0
                    3D
 Structure written by MMmdl.
162171  0  0  1  0            999 V2000
  -30.6072  -14.6491   20.5064 C   0  0  0  0  0  0
  -30.4390  -12.3964   19.4515 C   0  0  0  0  0  0
  -29.5078  -12.5161   18.2233 C   0  0  0  0  0  0
  -28.0302  -12.3510   18.6318 C   0  0  0  0  0  0
  -27.6533  -13.2153   19.8645 C   0  0  2  0  0  0
  -28.6975  -13.0593   20.9937 C   0  0  0  0  0  0
  -25.2577  -13.8189   20.5688 C   0  0  0  0  0  0
  -24.1844  -13.0452   20.9195 C   0  0  0  0  0  0
  -24.6404  -11.6918   20.8746 C   0  0  0  0  0  0
  -23.9071  -10.4298   21.0417 C   0  0  0  0  0  0
  -24.3624   -9.4216   21.9200 C   0  0  0  0  0  0
  -23.6290   -8.2253   22.0762 C   0  0  0  0  0  0
  -22.4279   -8.0294   21.3549 C   0  0  0  0  0  0
  -21.9910   -9.0270   20.4648 C   0  0  0  0  0  0
  -22.7243  -10.2150   20.3061 C   0  0  0  0  0  0
  -21.6856   -6.0742   22.5277 C   0  0  0  0  0  0
  -21.4013   -6.5644   23.8213 C   0  0  0  0  0  0
  -21.3643   -5.6787   24.9170 C   0  0  0  0  0  0
  -21.6035   -4.3053   24.7222 C   0  0  0  0  0  0
  -21.8827   -3.8146   23.4341 C   0  0  0  0  0  0
  -21.9196   -4.6967   22.3395 C   0  0  0  0  0  0
  -22.7858  -13.5250   21.1853 C   0  0  0  0  0  0
  -22.1668   -4.2154   21.0974 F   0  0  0  0  0  0
  -21.5611   -3.4536   25.7728 F   0  0  0  0  0  0
  -30.0147  -13.4116   20.4367 N   0  0  0  0  0  0
  -26.2986  -12.9348   20.3308 N   0  0  0  0  0  0
  -25.9322  -11.6505   20.5755 N   0  0  0  0  0  0
  -22.0480  -12.8251   22.0393 N   0  0  0  0  0  0
  -25.4324  -15.1912   20.4110 N   0  0  0  0  0  0
  -31.7636  -14.8212   20.1063 O   0  0  0  0  0  0
  -21.6639   -6.8893   21.4244 O   0  0  0  0  0  0
  -22.3548  -14.5554   20.6690 O   0  0  0  0  0  0
  -24.6255  -31.8617   23.2039 C   0  0  0  0  0  0
  -25.9098  -32.4791   23.8373 C   0  0  1  0  0  0
  -27.2185  -27.3089   20.1233 C   0  0  0  0  0  0
  -25.5912  -33.8588   24.2288 N   0  0  0  0  0  0
  -23.4204  -30.4866   21.5451 C   0  0  2  0  0  0
  -24.8668  -28.9430   20.1140 C   0  0  0  0  0  0
  -22.7484  -29.4634   22.4914 C   0  0  0  0  0  0
  -18.0298  -28.1387   22.8494 C   0  0  0  0  0  0
  -24.1471  -36.7277   23.2641 C   0  0  0  0  0  0
  -25.9633  -30.7895   21.3788 C   0  0  0  0  0  0
  -26.0360  -29.4147   20.7239 C   0  0  0  0  0  0
  -27.2146  -28.6083   20.7212 C   0  0  0  0  0  0
  -26.0309  -26.9083   19.4661 C   0  0  0  0  0  0
  -24.8669  -27.6955   19.4762 C   0  0  0  0  0  0
  -23.6381  -29.8269   20.1592 C   0  0  0  0  0  0
  -25.4099  -36.3083   24.0333 C   0  0  1  0  0  0
  -20.5903  -28.3697   23.1268 C   0  0  2  0  0  0
  -20.6784  -26.9416   22.5408 C   0  0  0  0  0  0
  -19.5752  -26.6391   21.5213 C   0  0  0  0  0  0
  -18.1933  -26.7934   22.1631 C   0  0  0  0  0  0
  -19.1552  -28.8857   23.2882 C   0  0  0  0  0  0
  -18.9478  -30.1447   23.8916 C   0  0  0  0  0  0
  -17.6480  -30.6588   24.0573 C   0  0  0  0  0  0
  -25.9051  -34.9456   23.5113 C   0  0  0  0  0  0
  -16.5369  -29.9098   23.6332 C   0  0  0  0  0  0
  -16.7284  -28.6513   23.0364 C   0  0  0  0  0  0
  -26.4473  -31.6586   25.0733 C   0  0  0  0  0  0
  -25.3696  -31.3729   26.1448 C   0  0  0  0  0  0
  -27.0300  -30.3011   24.6173 C   0  0  0  0  0  0
  -27.6048  -32.4301   25.7503 C   0  0  0  0  0  0
  -27.5561  -37.1797   24.8469 C   0  0  0  0  0  0
  -21.4200  -29.3035   22.3640 N   0  0  0  0  0  0
  -26.4270  -37.3782   23.9422 N   0  0  0  0  0  0
  -24.6885  -31.0625   22.0990 N   0  0  0  0  0  0
  -23.4203  -28.8184   23.3002 O   0  0  0  0  0  0
  -28.3375  -26.4560   20.1547 O   0  0  0  0  0  0
  -26.5636  -34.8924   22.4691 O   0  0  0  0  0  0
  -23.5418  -32.1414   23.7357 O   0  0  0  0  0  0
  -28.5396  -17.7412   21.1646 C   0  0  0  0  0  0
  -28.2808  -19.1251   20.9432 C   0  0  0  0  0  0
  -29.2396  -19.9353   20.2693 C   0  0  0  0  0  0
  -30.4398  -19.2378   19.9193 C   0  0  0  0  0  0
  -29.7257  -17.1070   20.7227 C   0  0  0  0  0  0
  -28.0621  -24.5001   21.7458 C   0  0  0  0  0  0
  -28.1803  -22.9592   21.6291 C   0  0  0  0  0  0
  -29.1849  -23.9700   19.7290 C   0  0  0  0  0  0
  -28.1291  -24.9845   20.2981 C   0  0  2  0  0  0
  -26.9449  -19.6796   21.4115 C   0  0  0  0  0  0
  -31.5869  -19.9519   19.2271 C   0  0  0  0  0  0
  -28.9026  -21.3963   19.7292 C   0  0  0  0  0  0
  -30.6617  -17.8982   20.1316 N   0  0  0  0  0  0
  -29.7845  -15.6614   20.9315 N   0  0  0  0  0  0
  -29.1354  -22.6765   20.5265 N   0  3  2  0  0  0
  -31.4805  -12.5232   19.1510 H   0  0  0  0  0  0
  -30.3732  -11.3986   19.8881 H   0  0  0  0  0  0
  -29.7717  -11.7689   17.4727 H   0  0  0  0  0  0
  -29.6502  -13.4881   17.7502 H   0  0  0  0  0  0
  -27.8636  -11.2971   18.8552 H   0  0  0  0  0  0
  -27.3785  -12.5893   17.7901 H   0  0  0  0  0  0
  -27.6738  -14.2522   19.5302 H   0  0  0  0  0  0
  -28.7105  -12.0324   21.3609 H   0  0  0  0  0  0
  -28.4386  -13.6743   21.8568 H   0  0  0  0  0  0
  -25.2775   -9.5674   22.4773 H   0  0  0  0  0  0
  -23.9990   -7.4643   22.7487 H   0  0  0  0  0  0
  -21.0837   -8.8798   19.8958 H   0  0  0  0  0  0
  -22.3719  -10.9690   19.6164 H   0  0  0  0  0  0
  -21.2018   -7.6153   23.9719 H   0  0  0  0  0  0
  -21.1441   -6.0515   25.9068 H   0  0  0  0  0  0
  -22.0617   -2.7609   23.2847 H   0  0  0  0  0  0
  -22.4069  -11.9899   22.4775 H   0  0  0  0  0  0
  -21.1096  -13.1297   22.2580 H   0  0  0  0  0  0
  -24.6713  -15.8514   20.5282 H   0  0  0  0  0  0
  -26.2722  -15.6219   20.0443 H   0  0  0  0  0  0
  -26.7171  -32.5475   23.1135 H   0  0  0  0  0  0
  -24.9997  -33.9739   25.0387 H   0  0  0  0  0  0
  -22.7131  -31.3063   21.4032 H   0  0  0  0  0  0
  -23.3743  -35.9604   23.3322 H   0  0  0  0  0  0
  -24.3539  -36.8875   22.2047 H   0  0  0  0  0  0
  -23.7218  -37.6480   23.6654 H   0  0  0  0  0  0
  -26.0934  -31.5506   20.6077 H   0  0  0  0  0  0
  -26.8453  -30.8432   22.0058 H   0  0  0  0  0  0
  -28.1101  -28.9656   21.2110 H   0  0  0  0  0  0
  -25.9676  -25.9839   18.9145 H   0  0  0  0  0  0
  -23.9756  -27.3379   18.9776 H   0  0  0  0  0  0
  -23.7686  -30.6081   19.4094 H   0  0  0  0  0  0
  -22.7572  -29.2639   19.8456 H   0  0  0  0  0  0
  -25.1274  -36.1933   25.0826 H   0  0  0  0  0  0
  -20.9999  -28.3288   24.1388 H   0  0  0  0  0  0
  -20.5674  -26.2317   23.3618 H   0  0  0  0  0  0
  -21.6651  -26.7429   22.1203 H   0  0  0  0  0  0
  -19.6913  -25.6306   21.1236 H   0  0  0  0  0  0
  -19.6681  -27.3211   20.6749 H   0  0  0  0  0  0
  -17.4193  -26.6679   21.4041 H   0  0  0  0  0  0
  -18.0335  -26.0075   22.9024 H   0  0  0  0  0  0
  -19.7950  -30.7252   24.2305 H   0  0  0  0  0  0
  -17.5039  -31.6260   24.5192 H   0  0  0  0  0  0
  -15.5374  -30.3015   23.7643 H   0  0  0  0  0  0
  -15.8684  -28.0831   22.7094 H   0  0  0  0  0  0
  -24.5873  -30.7078   25.7765 H   0  0  0  0  0  0
  -24.8881  -32.2896   26.4867 H   0  0  0  0  0  0
  -25.8000  -30.8899   27.0227 H   0  0  0  0  0  0
  -26.2850  -29.6780   24.1204 H   0  0  0  0  0  0
  -27.4003  -29.7253   25.4665 H   0  0  0  0  0  0
  -27.8729  -30.4304   23.9380 H   0  0  0  0  0  0
  -27.2675  -33.3599   26.2097 H   0  0  0  0  0  0
  -28.3854  -32.6850   25.0321 H   0  0  0  0  0  0
  -28.0715  -31.8401   26.5402 H   0  0  0  0  0  0
  -28.2600  -38.0075   24.7497 H   0  0  0  0  0  0
  -28.1028  -36.2605   24.6308 H   0  0  0  0  0  0
  -27.2273  -37.1456   25.8872 H   0  0  0  0  0  0
  -20.9390  -29.8714   21.6805 H   0  0  0  0  0  0
  -26.0145  -38.2850   24.1454 H   0  0  0  0  0  0
  -27.7807  -17.1467   21.6546 H   0  0  0  0  0  0
  -28.9050  -24.9023   22.3080 H   0  0  0  0  0  0
  -27.1466  -24.8123   22.2485 H   0  0  0  0  0  0
  -27.1983  -22.5583   21.3757 H   0  0  0  0  0  0
  -28.4945  -22.4912   22.5625 H   0  0  0  0  0  0
  -30.1852  -24.3888   19.8401 H   0  0  0  0  0  0
  -29.0253  -23.8034   18.6627 H   0  0  0  0  0  0
  -27.1952  -24.6731   19.8421 H   0  0  0  0  0  0
  -26.2833  -18.8799   21.7454 H   0  0  0  0  0  0
  -26.4212  -20.2140   20.6208 H   0  0  0  0  0  0
  -27.0869  -20.3486   22.2583 H   0  0  0  0  0  0
  -31.8881  -20.8318   19.7963 H   0  0  0  0  0  0
  -31.3051  -20.2641   18.2218 H   0  0  0  0  0  0
  -32.4609  -19.3058   19.1367 H   0  0  0  0  0  0
  -27.8699  -21.4038   19.3812 H   0  0  0  0  0  0
  -29.4656  -21.5129   18.8046 H   0  0  0  0  0  0
  -28.9370  -15.2908   21.3279 H   0  0  0  0  0  0
  -30.0479  -22.5899   20.9500 H   0  0  0  0  0  0
  1 25  1  0  0  0
  1 30  2  0  0  0
  1 84  1  0  0  0
  2  3  1  0  0  0
  2 25  1  0  0  0
  2 86  1  0  0  0
  2 87  1  0  0  0
  3  4  1  0  0  0
  3 88  1  0  0  0
  3 89  1  0  0  0
  4  5  1  0  0  0
  4 90  1  0  0  0
  4 91  1  0  0  0
  5  6  1  0  0  0
  5 26  1  0  0  0
  5 92  1  0  0  0
  6 25  1  0  0  0
  6 93  1  0  0  0
  6 94  1  0  0  0
  7  8  2  0  0  0
  7 26  1  0  0  0
  7 29  1  0  0  0
  8  9  1  0  0  0
  8 22  1  0  0  0
  9 10  1  0  0  0
  9 27  2  0  0  0
 10 11  2  0  0  0
 10 15  1  0  0  0
 11 12  1  0  0  0
 11 95  1  0  0  0
 12 13  2  0  0  0
 12 96  1  0  0  0
 13 14  1  0  0  0
 13 31  1  0  0  0
 14 15  2  0  0  0
 14 97  1  0  0  0
 15 98  1  0  0  0
 16 17  2  0  0  0
 16 21  1  0  0  0
 16 31  1  0  0  0
 17 18  1  0  0  0
 17 99  1  0  0  0
 18 19  2  0  0  0
 18100  1  0  0  0
 19 20  1  0  0  0
 19 24  1  0  0  0
 20 21  2  0  0  0
 20101  1  0  0  0
 21 23  1  0  0  0
 22 28  1  0  0  0
 22 32  2  0  0  0
 26 27  1  0  0  0
 28102  1  0  0  0
 28103  1  0  0  0
 29104  1  0  0  0
 29105  1  0  0  0
 33 34  1  0  0  0
 33 66  1  0  0  0
 33 70  2  0  0  0
 34 36  1  0  0  0
 34 59  1  0  0  0
 34106  1  0  0  0
 35 44  2  0  0  0
 35 45  1  0  0  0
 35 68  1  0  0  0
 36 56  1  0  0  0
 36107  1  0  0  0
 37 39  1  0  0  0
 37 47  1  0  0  0
 37 66  1  0  0  0
 37108  1  0  0  0
 38 43  2  0  0  0
 38 46  1  0  0  0
 38 47  1  0  0  0
 39 64  1  0  0  0
 39 67  2  0  0  0
 40 52  1  0  0  0
 40 53  2  0  0  0
 40 58  1  0  0  0
 41109  1  0  0  0
 41110  1  0  0  0
 41111  1  0  0  0
 41 48  1  0  0  0
 42 43  1  0  0  0
 42 66  1  0  0  0
 42112  1  0  0  0
 42113  1  0  0  0
 43 44  1  0  0  0
 44114  1  0  0  0
 45 46  2  0  0  0
 45115  1  0  0  0
 46116  1  0  0  0
 47117  1  0  0  0
 47118  1  0  0  0
 48 56  1  0  0  0
 48 65  1  0  0  0
 48119  1  0  0  0
 49 50  1  0  0  0
 49 53  1  0  0  0
 49 64  1  0  0  0
 49120  1  0  0  0
 50 51  1  0  0  0
 50121  1  0  0  0
 50122  1  0  0  0
 51 52  1  0  0  0
 51123  1  0  0  0
 51124  1  0  0  0
 52125  1  0  0  0
 52126  1  0  0  0
 53 54  1  0  0  0
 54 55  2  0  0  0
 54127  1  0  0  0
 55 57  1  0  0  0
 55128  1  0  0  0
 56 69  2  0  0  0
 57 58  2  0  0  0
 57129  1  0  0  0
 58130  1  0  0  0
 59 60  1  0  0  0
 59 61  1  0  0  0
 59 62  1  0  0  0
 60131  1  0  0  0
 60132  1  0  0  0
 60133  1  0  0  0
 61134  1  0  0  0
 61135  1  0  0  0
 61136  1  0  0  0
 62137  1  0  0  0
 62138  1  0  0  0
 62139  1  0  0  0
 63 65  1  0  0  0
 63140  1  0  0  0
 63141  1  0  0  0
 63142  1  0  0  0
 64143  1  0  0  0
 65144  1  0  0  0
 68 79  1  0  0  0
 71 72  2  0  0  0
 71 75  1  0  0  0
 71145  1  0  0  0
 72 73  1  0  0  0
 72 80  1  0  0  0
 73 74  2  0  0  0
 73 82  1  0  0  0
 74 81  1  0  0  0
 74 83  1  0  0  0
 75 83  2  0  0  0
 75 84  1  0  0  0
 76 77  1  0  0  0
 76 79  1  0  0  0
 76146  1  0  0  0
 76147  1  0  0  0
 77 85  1  0  0  0
 77148  1  0  0  0
 77149  1  0  0  0
 78 79  1  0  0  0
 78 85  1  0  0  0
 78150  1  0  0  0
 78151  1  0  0  0
 79152  1  0  0  0
 80153  1  0  0  0
 80154  1  0  0  0
 80155  1  0  0  0
 81156  1  0  0  0
 81157  1  0  0  0
 81158  1  0  0  0
 82159  1  0  0  0
 82160  1  0  0  0
 82 85  1  0  0  0
 84161  1  0  0  0
 85162  1  0  0  0
M  CHG  1  85   1
M  ISO  4   1 100  68 101  79 101  84 100
M  END
> <chiral flag>
0

> <version>
0

> <s_m_source_file>
/data/baiqing/PycharmProjects/Reinvent-master-3.2/result/LINK_invent/BTK/process_docking_weight1_custom_sum_contain_oxygen_bond_distance_aromatic_linkinvent_7_9_3/rearranged_h_0126.sdf

> <i_m_source_file_index>
1

> <r_mmod_Potential_Energy-OPLS-2005>
-103.079948425293

> <r_mmod_Stretch_Energy-OPLS-2005>
84.9811859130859

> <r_mmod_Bend_Energy-OPLS-2005>
187.375183105469

> <r_mmod_Torsional_Energy-OPLS-2005>
261.347778320312

> <r_mmod_Improper_Torsional_Energy-OPLS-2005>
4.91710090637207

> <r_mmod_Van_der_Waal_Energy-OPLS-2005>
142.105667114258

> <r_mmod_Electrostatic_Energy-OPLS-2005>
-371.975250244141

> <r_mmod_Solvation_Energy-OPLS-2005>
-462.790679931641

> <b_mmod_Minimization_Converged-OPLS-2005>
0

> <r_mmod_RMS_Derivative-OPLS-2005>
1.92321681976318

$$$$
1
                    3D
 Structure written by MMmdl.
159168  0  0  1  0            999 V2000
  -30.7494  -14.3720   20.6657 C   0  0  0  0  0  0
  -30.4163  -12.2792   19.4006 C   0  0  0  0  0  0
  -29.4869  -12.5274   18.1970 C   0  0  0  0  0  0
  -28.0093  -12.3851   18.6089 C   0  0  0  0  0  0
  -27.6669  -13.2009   19.8831 C   0  0  2  0  0  0
  -28.7028  -12.9299   20.9971 C   0  0  0  0  0  0
  -25.2602  -13.8153   20.5673 C   0  0  0  0  0  0
  -24.1842  -13.0436   20.9161 C   0  0  0  0  0  0
  -24.6386  -11.6901   20.8721 C   0  0  0  0  0  0
  -23.9053  -10.4290   21.0397 C   0  0  0  0  0  0
  -24.3609   -9.4209   21.9178 C   0  0  0  0  0  0
  -23.6285   -8.2243   22.0751 C   0  0  0  0  0  0
  -22.4266   -8.0279   21.3545 C   0  0  0  0  0  0
  -21.9902   -9.0251   20.4643 C   0  0  0  0  0  0
  -22.7227  -10.2129   20.3046 C   0  0  0  0  0  0
  -21.6851   -6.0734   22.5280 C   0  0  0  0  0  0
  -21.4013   -6.5639   23.8211 C   0  0  0  0  0  0
  -21.3659   -5.6792   24.9176 C   0  0  0  0  0  0
  -21.6044   -4.3055   24.7225 C   0  0  0  0  0  0
  -21.8820   -3.8146   23.4345 C   0  0  0  0  0  0
  -21.9193   -4.6963   22.3402 C   0  0  0  0  0  0
  -22.7867  -13.5244   21.1837 C   0  0  0  0  0  0
  -22.1660   -4.2150   21.0982 F   0  0  0  0  0  0
  -21.5631   -3.4537   25.7738 F   0  0  0  0  0  0
  -30.0492  -13.2237   20.4661 N   0  0  0  0  0  0
  -26.3041  -12.9313   20.3385 N   0  0  0  0  0  0
  -25.9311  -11.6477   20.5754 N   0  0  0  0  0  0
  -22.0503  -12.8235   22.0391 N   0  0  0  0  0  0
  -25.4338  -15.1869   20.4094 N   0  0  0  0  0  0
  -31.7964  -14.6219   20.0558 O   0  0  0  0  0  0
  -21.6634   -6.8874   21.4241 O   0  0  0  0  0  0
  -22.3558  -14.5559   20.6697 O   0  0  0  0  0  0
  -24.6095  -31.8703   23.2129 C   0  0  0  0  0  0
  -25.9006  -32.4838   23.8410 C   0  0  1  0  0  0
  -27.2388  -27.4749   20.0872 C   0  0  0  0  0  0
  -25.5868  -33.8636   24.2336 N   0  0  0  0  0  0
  -23.3953  -30.4929   21.5524 C   0  0  2  0  0  0
  -24.8402  -28.9593   20.1178 C   0  0  0  0  0  0
  -22.7381  -29.4669   22.5019 C   0  0  0  0  0  0
  -18.0262  -28.1381   22.8497 C   0  0  0  0  0  0
  -24.1479  -36.7326   23.2639 C   0  0  0  0  0  0
  -25.9188  -30.8475   21.3591 C   0  0  0  0  0  0
  -25.9959  -29.4839   20.7080 C   0  0  0  0  0  0
  -27.1959  -28.7474   20.6892 C   0  0  0  0  0  0
  -26.0666  -26.9502   19.4959 C   0  0  0  0  0  0
  -24.8681  -27.6897   19.5120 C   0  0  0  0  0  0
  -23.6002  -29.8216   20.1674 C   0  0  0  0  0  0
  -25.4103  -36.3130   24.0341 C   0  0  1  0  0  0
  -20.5849  -28.3651   23.1340 C   0  0  2  0  0  0
  -20.6758  -26.9395   22.5429 C   0  0  0  0  0  0
  -19.5736  -26.6390   21.5222 C   0  0  0  0  0  0
  -18.1906  -26.7932   22.1623 C   0  0  0  0  0  0
  -19.1511  -28.8833   23.2916 C   0  0  0  0  0  0
  -18.9445  -30.1442   23.8921 C   0  0  0  0  0  0
  -17.6451  -30.6584   24.0575 C   0  0  0  0  0  0
  -25.9026  -34.9487   23.5143 C   0  0  0  0  0  0
  -16.5341  -29.9095   23.6328 C   0  0  0  0  0  0
  -16.7255  -28.6514   23.0345 C   0  0  0  0  0  0
  -26.4447  -31.6614   25.0729 C   0  0  0  0  0  0
  -25.3726  -31.3704   26.1489 C   0  0  0  0  0  0
  -27.0281  -30.3068   24.6087 C   0  0  0  0  0  0
  -27.6038  -32.4321   25.7473 C   0  0  0  0  0  0
  -27.5584  -37.1816   24.8456 C   0  0  0  0  0  0
  -21.4115  -29.3024   22.3754 N   0  0  0  0  0  0
  -26.4291  -37.3813   23.9408 N   0  0  0  0  0  0
  -24.6591  -31.0838   22.1006 N   0  0  0  0  0  0
  -23.4171  -28.8218   23.3050 O   0  0  0  0  0  0
  -28.4446  -26.8196   20.0809 O   0  0  0  0  0  0
  -26.5603  -34.8932   22.4716 O   0  0  0  0  0  0
  -23.5299  -32.1439   23.7552 O   0  0  0  0  0  0
  -29.5752  -18.5905   22.8613 C   0  0  0  0  0  0
  -29.5125  -17.1997   22.6670 C   0  0  0  0  0  0
  -31.4318  -18.6232   21.3304 C   0  0  0  0  0  0
  -30.5418  -19.3390   22.1624 C   0  0  0  0  0  0
  -30.4125  -16.5747   21.7824 C   0  0  0  0  0  0
  -29.6385  -24.8997   20.8918 C   0  0  0  0  0  0
  -30.4366  -21.4459   19.9079 C   0  0  0  0  0  0
  -29.4510  -22.6109   19.8940 C   0  0  0  0  0  0
  -31.0994  -23.0424   21.5999 C   0  0  0  0  0  0
  -31.1715  -21.5537   21.2474 C   0  0  1  0  0  0
  -28.4539  -25.3956   20.0464 C   0  0  0  0  0  0
  -31.3665  -17.2913   21.1468 N   0  0  0  0  0  0
  -30.0274  -23.6134   20.7859 N   0  0  0  0  0  0
  -30.5658  -20.7374   22.2967 N   0  0  0  0  0  0
  -30.2206  -15.1849   21.5953 N   0  0  0  0  0  0
  -30.2038  -25.6827   21.6658 O   0  0  0  0  0  0
  -31.4610  -12.3717   19.0983 H   0  0  0  0  0  0
  -30.3068  -11.2554   19.7617 H   0  0  0  0  0  0
  -29.7188  -11.8301   17.3911 H   0  0  0  0  0  0
  -29.6614  -13.5275   17.7965 H   0  0  0  0  0  0
  -27.8114  -11.3266   18.7816 H   0  0  0  0  0  0
  -27.3589  -12.6838   17.7858 H   0  0  0  0  0  0
  -27.7289  -14.2565   19.6178 H   0  0  0  0  0  0
  -28.6614  -11.8824   21.2989 H   0  0  0  0  0  0
  -28.4472  -13.4897   21.8969 H   0  0  0  0  0  0
  -25.2755   -9.5691   22.4751 H   0  0  0  0  0  0
  -24.0001   -7.4637   22.7468 H   0  0  0  0  0  0
  -21.0836   -8.8759   19.8949 H   0  0  0  0  0  0
  -22.3684  -10.9663   19.6150 H   0  0  0  0  0  0
  -21.2000   -7.6142   23.9720 H   0  0  0  0  0  0
  -21.1481   -6.0519   25.9081 H   0  0  0  0  0  0
  -22.0598   -2.7608   23.2846 H   0  0  0  0  0  0
  -22.4103  -11.9880   22.4762 H   0  0  0  0  0  0
  -21.1124  -13.1271   22.2601 H   0  0  0  0  0  0
  -24.6692  -15.8442   20.5174 H   0  0  0  0  0  0
  -26.2929  -15.6268   20.1033 H   0  0  0  0  0  0
  -26.7085  -32.5555   23.1185 H   0  0  0  0  0  0
  -24.9989  -33.9803   25.0460 H   0  0  0  0  0  0
  -22.6825  -31.3085   21.4141 H   0  0  0  0  0  0
  -23.3741  -35.9660   23.3311 H   0  0  0  0  0  0
  -24.3572  -36.8932   22.2052 H   0  0  0  0  0  0
  -23.7230  -37.6535   23.6646 H   0  0  0  0  0  0
  -26.0256  -31.6152   20.5915 H   0  0  0  0  0  0
  -26.8092  -30.9019   21.9741 H   0  0  0  0  0  0
  -28.0925  -29.1517   21.1380 H   0  0  0  0  0  0
  -26.0706  -25.9865   19.0073 H   0  0  0  0  0  0
  -23.9789  -27.2809   19.0515 H   0  0  0  0  0  0
  -23.7046  -30.5937   19.4045 H   0  0  0  0  0  0
  -22.7255  -29.2373   19.8760 H   0  0  0  0  0  0
  -25.1282  -36.2008   25.0837 H   0  0  0  0  0  0
  -20.9936  -28.3216   24.1464 H   0  0  0  0  0  0
  -20.5674  -26.2258   23.3608 H   0  0  0  0  0  0
  -21.6629  -26.7461   22.1208 H   0  0  0  0  0  0
  -19.6894  -25.6311   21.1230 H   0  0  0  0  0  0
  -19.6675  -27.3226   20.6774 H   0  0  0  0  0  0
  -17.4186  -26.6701   21.4009 H   0  0  0  0  0  0
  -18.0283  -26.0067   22.9002 H   0  0  0  0  0  0
  -19.7920  -30.7257   24.2293 H   0  0  0  0  0  0
  -17.5005  -31.6266   24.5170 H   0  0  0  0  0  0
  -15.5344  -30.3013   23.7636 H   0  0  0  0  0  0
  -15.8649  -28.0851   22.7043 H   0  0  0  0  0  0
  -24.5877  -30.7086   25.7810 H   0  0  0  0  0  0
  -24.8946  -32.2858   26.4990 H   0  0  0  0  0  0
  -25.8083  -30.8819   27.0214 H   0  0  0  0  0  0
  -26.2827  -29.6826   24.1149 H   0  0  0  0  0  0
  -27.4074  -29.7308   25.4536 H   0  0  0  0  0  0
  -27.8642  -30.4404   23.9219 H   0  0  0  0  0  0
  -27.2678  -33.3601   26.2107 H   0  0  0  0  0  0
  -28.3811  -32.6912   25.0271 H   0  0  0  0  0  0
  -28.0753  -31.8413   26.5336 H   0  0  0  0  0  0
  -28.2603  -38.0116   24.7531 H   0  0  0  0  0  0
  -28.1082  -36.2652   24.6250 H   0  0  0  0  0  0
  -27.2303  -37.1431   25.8858 H   0  0  0  0  0  0
  -20.9268  -29.8743   21.6978 H   0  0  0  0  0  0
  -26.0183  -38.2891   24.1429 H   0  0  0  0  0  0
  -28.8685  -19.0743   23.5202 H   0  0  0  0  0  0
  -28.7504  -16.6336   23.1842 H   0  0  0  0  0  0
  -32.2081  -19.1200   20.7686 H   0  0  0  0  0  0
  -31.1586  -21.5915   19.1023 H   0  0  0  0  0  0
  -29.9524  -20.4859   19.7256 H   0  0  0  0  0  0
  -28.4821  -22.2980   20.2871 H   0  0  0  0  0  0
  -29.3065  -22.9758   18.8764 H   0  0  0  0  0  0
  -32.0350  -23.5331   21.3241 H   0  0  0  0  0  0
  -30.9442  -23.2222   22.6659 H   0  0  0  0  0  0
  -32.2198  -21.2686   21.1404 H   0  0  0  0  0  0
  -27.5458  -24.9583   20.4635 H   0  0  0  0  0  0
  -28.5488  -25.0778   19.0085 H   0  0  0  0  0  0
  -29.8347  -21.1721   22.8548 H   0  0  0  0  0  0
  -29.4417  -14.7864   22.0933 H   0  0  0  0  0  0
  1 25  1  0  0  0
  1 30  2  0  0  0
  1 85  1  0  0  0
  2  3  1  0  0  0
  2 25  1  0  0  0
  2 87  1  0  0  0
  2 88  1  0  0  0
  3  4  1  0  0  0
  3 89  1  0  0  0
  3 90  1  0  0  0
  4  5  1  0  0  0
  4 91  1  0  0  0
  4 92  1  0  0  0
  5  6  1  0  0  0
  5 26  1  0  0  0
  5 93  1  0  0  0
  6 25  1  0  0  0
  6 94  1  0  0  0
  6 95  1  0  0  0
  7  8  2  0  0  0
  7 26  1  0  0  0
  7 29  1  0  0  0
  8  9  1  0  0  0
  8 22  1  0  0  0
  9 10  1  0  0  0
  9 27  2  0  0  0
 10 11  2  0  0  0
 10 15  1  0  0  0
 11 12  1  0  0  0
 11 96  1  0  0  0
 12 13  2  0  0  0
 12 97  1  0  0  0
 13 14  1  0  0  0
 13 31  1  0  0  0
 14 15  2  0  0  0
 14 98  1  0  0  0
 15 99  1  0  0  0
 16 17  2  0  0  0
 16 21  1  0  0  0
 16 31  1  0  0  0
 17 18  1  0  0  0
 17100  1  0  0  0
 18 19  2  0  0  0
 18101  1  0  0  0
 19 20  1  0  0  0
 19 24  1  0  0  0
 20 21  2  0  0  0
 20102  1  0  0  0
 21 23  1  0  0  0
 22 28  1  0  0  0
 22 32  2  0  0  0
 26 27  1  0  0  0
 28103  1  0  0  0
 28104  1  0  0  0
 29105  1  0  0  0
 29106  1  0  0  0
 33 34  1  0  0  0
 33 66  1  0  0  0
 33 70  2  0  0  0
 34 36  1  0  0  0
 34 59  1  0  0  0
 34107  1  0  0  0
 35 44  2  0  0  0
 35 45  1  0  0  0
 35 68  1  0  0  0
 36 56  1  0  0  0
 36108  1  0  0  0
 37 39  1  0  0  0
 37 47  1  0  0  0
 37 66  1  0  0  0
 37109  1  0  0  0
 38 43  2  0  0  0
 38 46  1  0  0  0
 38 47  1  0  0  0
 39 64  1  0  0  0
 39 67  2  0  0  0
 40 52  1  0  0  0
 40 53  2  0  0  0
 40 58  1  0  0  0
 41110  1  0  0  0
 41111  1  0  0  0
 41112  1  0  0  0
 41 48  1  0  0  0
 42 43  1  0  0  0
 42 66  1  0  0  0
 42113  1  0  0  0
 42114  1  0  0  0
 43 44  1  0  0  0
 44115  1  0  0  0
 45 46  2  0  0  0
 45116  1  0  0  0
 46117  1  0  0  0
 47118  1  0  0  0
 47119  1  0  0  0
 48 56  1  0  0  0
 48 65  1  0  0  0
 48120  1  0  0  0
 49 50  1  0  0  0
 49 53  1  0  0  0
 49 64  1  0  0  0
 49121  1  0  0  0
 50 51  1  0  0  0
 50122  1  0  0  0
 50123  1  0  0  0
 51 52  1  0  0  0
 51124  1  0  0  0
 51125  1  0  0  0
 52126  1  0  0  0
 52127  1  0  0  0
 53 54  1  0  0  0
 54 55  2  0  0  0
 54128  1  0  0  0
 55 57  1  0  0  0
 55129  1  0  0  0
 56 69  2  0  0  0
 57 58  2  0  0  0
 57130  1  0  0  0
 58131  1  0  0  0
 59 60  1  0  0  0
 59 61  1  0  0  0
 59 62  1  0  0  0
 60132  1  0  0  0
 60133  1  0  0  0
 60134  1  0  0  0
 61135  1  0  0  0
 61136  1  0  0  0
 61137  1  0  0  0
 62138  1  0  0  0
 62139  1  0  0  0
 62140  1  0  0  0
 63 65  1  0  0  0
 63141  1  0  0  0
 63142  1  0  0  0
 63143  1  0  0  0
 64144  1  0  0  0
 65145  1  0  0  0
 68 81  1  0  0  0
 71 72  2  0  0  0
 71 74  1  0  0  0
 71146  1  0  0  0
 72 75  1  0  0  0
 72147  1  0  0  0
 73 74  2  0  0  0
 73 82  1  0  0  0
 73148  1  0  0  0
 74 84  1  0  0  0
 75 82  2  0  0  0
 75 85  1  0  0  0
 76 81  1  0  0  0
 76 83  1  0  0  0
 76 86  2  0  0  0
 77 78  1  0  0  0
 77 80  1  0  0  0
 77149  1  0  0  0
 77150  1  0  0  0
 78 83  1  0  0  0
 78151  1  0  0  0
 78152  1  0  0  0
 79 80  1  0  0  0
 79 83  1  0  0  0
 79153  1  0  0  0
 79154  1  0  0  0
 80 84  1  0  0  0
 80155  1  0  0  0
 81156  1  0  0  0
 81157  1  0  0  0
 84158  1  0  0  0
 85159  1  0  0  0
M  ISO  4   1 100  68 101  81 101  85 100
M  END
> <chiral flag>
0

> <version>
0

> <s_m_source_file>
/data/baiqing/PycharmProjects/Reinvent-master-3.2/result/LINK_invent/BTK/process_docking_weight1_custom_sum_contain_oxygen_bond_distance_aromatic_linkinvent_7_9_3/rearranged_h_0126.sdf

> <i_m_source_file_index>
2

> <r_mmod_Potential_Energy-OPLS-2005>
-101.16032409668

> <r_mmod_Stretch_Energy-OPLS-2005>
32.3488845825195

> <r_mmod_Bend_Energy-OPLS-2005>
123.913635253906

> <r_mmod_Torsional_Energy-OPLS-2005>
279.566162109375

> <r_mmod_Improper_Torsional_Energy-OPLS-2005>
4.25075054168701

> <r_mmod_Van_der_Waal_Energy-OPLS-2005>
168.49494934082

> <r_mmod_Electrostatic_Energy-OPLS-2005>
-437.097473144531

> <r_mmod_Solvation_Energy-OPLS-2005>
-280.407257080078

> <b_mmod_Minimization_Converged-OPLS-2005>
0

> <r_mmod_RMS_Derivative-OPLS-2005>
0.835664927959442

$$$$
2
                    3D
 Structure written by MMmdl.
154162  0  0  1  0            999 V2000
  -30.6637  -14.6492   20.5082 C   0  0  0  0  0  0
  -30.4170  -12.4043   19.4568 C   0  0  0  0  0  0
  -29.4914  -12.4935   18.2246 C   0  0  0  0  0  0
  -28.0175  -12.3459   18.6400 C   0  0  0  0  0  0
  -27.6452  -13.2243   19.8633 C   0  0  2  0  0  0
  -28.6887  -13.1311   20.9996 C   0  0  0  0  0  0
  -25.2526  -13.8256   20.5713 C   0  0  0  0  0  0
  -24.1817  -13.0539   20.9227 C   0  0  0  0  0  0
  -24.6357  -11.6979   20.8744 C   0  0  0  0  0  0
  -23.9028  -10.4350   21.0391 C   0  0  0  0  0  0
  -24.3581   -9.4242   21.9146 C   0  0  0  0  0  0
  -23.6279   -8.2260   22.0754 C   0  0  0  0  0  0
  -22.4251   -8.0274   21.3555 C   0  0  0  0  0  0
  -21.9880   -9.0256   20.4656 C   0  0  0  0  0  0
  -22.7199  -10.2149   20.3059 C   0  0  0  0  0  0
  -21.6892   -6.0715   22.5262 C   0  0  0  0  0  0
  -21.4034   -6.5630   23.8193 C   0  0  0  0  0  0
  -21.3645   -5.6775   24.9143 C   0  0  0  0  0  0
  -21.6057   -4.3051   24.7196 C   0  0  0  0  0  0
  -21.8825   -3.8135   23.4321 C   0  0  0  0  0  0
  -21.9204   -4.6939   22.3373 C   0  0  0  0  0  0
  -22.7814  -13.5296   21.1845 C   0  0  0  0  0  0
  -22.1681   -4.2125   21.0953 F   0  0  0  0  0  0
  -21.5609   -3.4537   25.7720 F   0  0  0  0  0  0
  -29.9978  -13.4525   20.4173 N   0  0  0  0  0  0
  -26.2950  -12.9421   20.3411 N   0  0  0  0  0  0
  -25.9320  -11.6565   20.5889 N   0  0  0  0  0  0
  -22.0421  -12.8353   22.0417 N   0  0  0  0  0  0
  -25.4198  -15.2006   20.4032 N   0  0  0  0  0  0
  -31.8393  -14.7433   20.1458 O   0  0  0  0  0  0
  -21.6661   -6.8842   21.4225 O   0  0  0  0  0  0
  -22.3492  -14.5539   20.6553 O   0  0  0  0  0  0
  -24.6268  -31.8607   23.2089 C   0  0  0  0  0  0
  -25.9106  -32.4809   23.8429 C   0  0  1  0  0  0
  -27.2257  -27.3139   20.1345 C   0  0  0  0  0  0
  -25.5953  -33.8625   24.2366 N   0  0  0  0  0  0
  -23.4249  -30.4825   21.5517 C   0  0  2  0  0  0
  -24.8759  -28.9413   20.1102 C   0  0  0  0  0  0
  -22.7516  -29.4603   22.4986 C   0  0  0  0  0  0
  -18.0267  -28.1420   22.8501 C   0  0  0  0  0  0
  -24.1451  -36.7252   23.2649 C   0  0  0  0  0  0
  -25.9629  -30.7912   21.3821 C   0  0  0  0  0  0
  -26.0430  -29.4157   20.7287 C   0  0  0  0  0  0
  -27.2207  -28.6082   20.7387 C   0  0  0  0  0  0
  -26.0482  -26.9003   19.4756 C   0  0  0  0  0  0
  -24.8808  -27.6905   19.4742 C   0  0  0  0  0  0
  -23.6434  -29.8235   20.1629 C   0  0  0  0  0  0
  -25.4091  -36.3126   24.0366 C   0  0  1  0  0  0
  -20.5882  -28.3695   23.1328 C   0  0  2  0  0  0
  -20.6771  -26.9424   22.5441 C   0  0  0  0  0  0
  -19.5729  -26.6424   21.5260 C   0  0  0  0  0  0
  -18.1896  -26.7958   22.1653 C   0  0  0  0  0  0
  -19.1529  -28.8868   23.2898 C   0  0  0  0  0  0
  -18.9446  -30.1467   23.8929 C   0  0  0  0  0  0
  -17.6455  -30.6619   24.0576 C   0  0  0  0  0  0
  -25.9048  -34.9483   23.5151 C   0  0  0  0  0  0
  -16.5343  -29.9133   23.6324 C   0  0  0  0  0  0
  -16.7254  -28.6540   23.0352 C   0  0  0  0  0  0
  -26.4506  -31.6632   25.0779 C   0  0  0  0  0  0
  -25.3767  -31.3721   26.1514 C   0  0  0  0  0  0
  -27.0352  -30.3086   24.6182 C   0  0  0  0  0  0
  -27.6107  -32.4363   25.7518 C   0  0  0  0  0  0
  -27.5562  -37.1784   24.8494 C   0  0  0  0  0  0
  -21.4226  -29.3041   22.3735 N   0  0  0  0  0  0
  -26.4258  -37.3834   23.9454 N   0  0  0  0  0  0
  -24.6903  -31.0604   22.1059 N   0  0  0  0  0  0
  -23.4227  -28.8136   23.3061 O   0  0  0  0  0  0
  -28.3066  -26.4155   20.1533 O   0  0  0  0  0  0
  -26.5604  -34.8945   22.4713 O   0  0  0  0  0  0
  -23.5424  -32.1405   23.7408 O   0  0  0  0  0  0
  -29.9855  -23.4458   21.7655 C   0  0  0  0  0  0
  -30.3939  -22.0874   21.7673 C   0  0  0  0  0  0
  -28.4020  -22.8763   20.0789 C   0  0  0  0  0  0
  -28.9431  -23.9004   20.9197 C   0  0  0  0  0  0
  -29.7686  -21.1304   20.9374 C   0  0  0  0  0  0
  -26.9821  -25.1590   21.9458 C   0  0  0  0  0  0
  -29.5369  -18.4751   20.7677 C   0  0  0  0  0  0
  -30.5078  -17.1948   20.8231 C   0  0  0  0  0  0
  -28.3125  -25.3372   21.1835 C   0  0  2  0  0  0
  -28.7911  -21.5467   20.0878 N   0  0  0  0  0  0
  -30.2469  -19.7792   20.9912 N   0  0  0  0  0  0
  -29.9549  -15.7872   20.8174 N   0  0  0  0  0  0
  -31.4523  -12.5297   19.1388 H   0  0  0  0  0  0
  -30.3638  -11.4132   19.9094 H   0  0  0  0  0  0
  -29.7390  -11.7159   17.5005 H   0  0  0  0  0  0
  -29.6439  -13.4507   17.7245 H   0  0  0  0  0  0
  -27.8507  -11.2964   18.8718 H   0  0  0  0  0  0
  -27.3603  -12.5681   17.7974 H   0  0  0  0  0  0
  -27.6544  -14.2496   19.4970 H   0  0  0  0  0  0
  -28.7021  -12.1400   21.4483 H   0  0  0  0  0  0
  -28.4399  -13.8154   21.8108 H   0  0  0  0  0  0
  -25.2702   -9.5804   22.4709 H   0  0  0  0  0  0
  -24.0029   -7.4696   22.7524 H   0  0  0  0  0  0
  -21.0791   -8.8758   19.8983 H   0  0  0  0  0  0
  -22.3614  -10.9659   19.6167 H   0  0  0  0  0  0
  -21.2067   -7.6144   23.9705 H   0  0  0  0  0  0
  -21.1453   -6.0493   25.9051 H   0  0  0  0  0  0
  -22.0616   -2.7592   23.2812 H   0  0  0  0  0  0
  -22.3974  -12.0022   22.4863 H   0  0  0  0  0  0
  -21.1001  -13.1357   22.2537 H   0  0  0  0  0  0
  -24.6454  -15.8477   20.5081 H   0  0  0  0  0  0
  -26.2705  -15.6434   20.0779 H   0  0  0  0  0  0
  -26.7180  -32.5479   23.1207 H   0  0  0  0  0  0
  -25.0191  -33.9786   25.0567 H   0  0  0  0  0  0
  -22.7164  -31.3024   21.4151 H   0  0  0  0  0  0
  -23.3766  -35.9528   23.3345 H   0  0  0  0  0  0
  -24.3526  -36.8806   22.2046 H   0  0  0  0  0  0
  -23.7094  -37.6435   23.6604 H   0  0  0  0  0  0
  -26.0833  -31.5523   20.6105 H   0  0  0  0  0  0
  -26.8473  -30.8545   22.0049 H   0  0  0  0  0  0
  -28.1151  -28.9542   21.2356 H   0  0  0  0  0  0
  -26.0296  -25.9389   18.9814 H   0  0  0  0  0  0
  -23.9898  -27.3330   18.9789 H   0  0  0  0  0  0
  -23.7667  -30.6080   19.4145 H   0  0  0  0  0  0
  -22.7605  -29.2610   19.8538 H   0  0  0  0  0  0
  -25.1240  -36.2011   25.0853 H   0  0  0  0  0  0
  -20.9933  -28.3251   24.1467 H   0  0  0  0  0  0
  -20.5704  -26.2296   23.3629 H   0  0  0  0  0  0
  -21.6617  -26.7480   22.1196 H   0  0  0  0  0  0
  -19.6867  -25.6339   21.1255 H   0  0  0  0  0  0
  -19.6656  -27.3267   20.6805 H   0  0  0  0  0  0
  -17.4172  -26.6737   21.4043 H   0  0  0  0  0  0
  -18.0244  -26.0114   22.9054 H   0  0  0  0  0  0
  -19.7916  -30.7271   24.2331 H   0  0  0  0  0  0
  -17.5002  -31.6290   24.5195 H   0  0  0  0  0  0
  -15.5328  -30.3051   23.7623 H   0  0  0  0  0  0
  -15.8656  -28.0872   22.7062 H   0  0  0  0  0  0
  -24.5967  -30.7043   25.7834 H   0  0  0  0  0  0
  -24.8922  -32.2839   26.5007 H   0  0  0  0  0  0
  -25.8119  -30.8871   27.0255 H   0  0  0  0  0  0
  -26.2913  -29.6859   24.1193 H   0  0  0  0  0  0
  -27.4074  -29.7315   25.4650 H   0  0  0  0  0  0
  -27.8780  -30.4432   23.9410 H   0  0  0  0  0  0
  -27.2795  -33.3692   26.2104 H   0  0  0  0  0  0
  -28.3907  -32.6881   25.0319 H   0  0  0  0  0  0
  -28.0807  -31.8479   26.5408 H   0  0  0  0  0  0
  -28.2628  -38.0051   24.7580 H   0  0  0  0  0  0
  -28.1012  -36.2582   24.6283 H   0  0  0  0  0  0
  -27.2300  -37.1415   25.8913 H   0  0  0  0  0  0
  -20.9414  -29.8809   21.6991 H   0  0  0  0  0  0
  -26.0155  -38.2896   24.1547 H   0  0  0  0  0  0
  -30.4572  -24.1132   22.4752 H   0  0  0  0  0  0
  -31.1854  -21.7907   22.4433 H   0  0  0  0  0  0
  -27.5795  -23.1020   19.4102 H   0  0  0  0  0  0
  -26.6443  -26.0987   22.3764 H   0  0  0  0  0  0
  -27.1010  -24.4714   22.7844 H   0  0  0  0  0  0
  -26.1927  -24.7821   21.2960 H   0  0  0  0  0  0
  -28.7727  -18.3932   21.5418 H   0  0  0  0  0  0
  -28.9960  -18.5085   19.8211 H   0  0  0  0  0  0
  -31.2216  -17.2742   20.0025 H   0  0  0  0  0  0
  -31.1213  -17.2798   21.7212 H   0  0  0  0  0  0
  -28.9826  -25.7691   21.9272 H   0  0  0  0  0  0
  -31.0143  -19.6863   21.6501 H   0  0  0  0  0  0
  -28.9804  -15.6690   21.0599 H   0  0  0  0  0  0
  1 25  1  0  0  0
  1 30  2  0  0  0
  1 82  1  0  0  0
  2  3  1  0  0  0
  2 25  1  0  0  0
  2 83  1  0  0  0
  2 84  1  0  0  0
  3  4  1  0  0  0
  3 85  1  0  0  0
  3 86  1  0  0  0
  4  5  1  0  0  0
  4 87  1  0  0  0
  4 88  1  0  0  0
  5  6  1  0  0  0
  5 26  1  0  0  0
  5 89  1  0  0  0
  6 25  1  0  0  0
  6 90  1  0  0  0
  6 91  1  0  0  0
  7  8  2  0  0  0
  7 26  1  0  0  0
  7 29  1  0  0  0
  8  9  1  0  0  0
  8 22  1  0  0  0
  9 10  1  0  0  0
  9 27  2  0  0  0
 10 11  2  0  0  0
 10 15  1  0  0  0
 11 12  1  0  0  0
 11 92  1  0  0  0
 12 13  2  0  0  0
 12 93  1  0  0  0
 13 14  1  0  0  0
 13 31  1  0  0  0
 14 15  2  0  0  0
 14 94  1  0  0  0
 15 95  1  0  0  0
 16 17  2  0  0  0
 16 21  1  0  0  0
 16 31  1  0  0  0
 17 18  1  0  0  0
 17 96  1  0  0  0
 18 19  2  0  0  0
 18 97  1  0  0  0
 19 20  1  0  0  0
 19 24  1  0  0  0
 20 21  2  0  0  0
 20 98  1  0  0  0
 21 23  1  0  0  0
 22 28  1  0  0  0
 22 32  2  0  0  0
 26 27  1  0  0  0
 28 99  1  0  0  0
 28100  1  0  0  0
 29101  1  0  0  0
 29102  1  0  0  0
 33 34  1  0  0  0
 33 66  1  0  0  0
 33 70  2  0  0  0
 34 36  1  0  0  0
 34 59  1  0  0  0
 34103  1  0  0  0
 35 44  2  0  0  0
 35 45  1  0  0  0
 35 68  1  0  0  0
 36 56  1  0  0  0
 36104  1  0  0  0
 37 39  1  0  0  0
 37 47  1  0  0  0
 37 66  1  0  0  0
 37105  1  0  0  0
 38 43  2  0  0  0
 38 46  1  0  0  0
 38 47  1  0  0  0
 39 64  1  0  0  0
 39 67  2  0  0  0
 40 52  1  0  0  0
 40 53  2  0  0  0
 40 58  1  0  0  0
 41106  1  0  0  0
 41107  1  0  0  0
 41108  1  0  0  0
 41 48  1  0  0  0
 42 43  1  0  0  0
 42 66  1  0  0  0
 42109  1  0  0  0
 42110  1  0  0  0
 43 44  1  0  0  0
 44111  1  0  0  0
 45 46  2  0  0  0
 45112  1  0  0  0
 46113  1  0  0  0
 47114  1  0  0  0
 47115  1  0  0  0
 48 56  1  0  0  0
 48 65  1  0  0  0
 48116  1  0  0  0
 49 50  1  0  0  0
 49 53  1  0  0  0
 49 64  1  0  0  0
 49117  1  0  0  0
 50 51  1  0  0  0
 50118  1  0  0  0
 50119  1  0  0  0
 51 52  1  0  0  0
 51120  1  0  0  0
 51121  1  0  0  0
 52122  1  0  0  0
 52123  1  0  0  0
 53 54  1  0  0  0
 54 55  2  0  0  0
 54124  1  0  0  0
 55 57  1  0  0  0
 55125  1  0  0  0
 56 69  2  0  0  0
 57 58  2  0  0  0
 57126  1  0  0  0
 58127  1  0  0  0
 59 60  1  0  0  0
 59 61  1  0  0  0
 59 62  1  0  0  0
 60128  1  0  0  0
 60129  1  0  0  0
 60130  1  0  0  0
 61131  1  0  0  0
 61132  1  0  0  0
 61133  1  0  0  0
 62134  1  0  0  0
 62135  1  0  0  0
 62136  1  0  0  0
 63 65  1  0  0  0
 63137  1  0  0  0
 63138  1  0  0  0
 63139  1  0  0  0
 64140  1  0  0  0
 65141  1  0  0  0
 68 79  1  0  0  0
 71 72  2  0  0  0
 71 74  1  0  0  0
 71142  1  0  0  0
 72 75  1  0  0  0
 72143  1  0  0  0
 73 74  2  0  0  0
 73 80  1  0  0  0
 73144  1  0  0  0
 74 79  1  0  0  0
 75 80  2  0  0  0
 75 81  1  0  0  0
 76145  1  0  0  0
 76146  1  0  0  0
 76147  1  0  0  0
 76 79  1  0  0  0
 77 78  1  0  0  0
 77 81  1  0  0  0
 77148  1  0  0  0
 77149  1  0  0  0
 78 82  1  0  0  0
 78150  1  0  0  0
 78151  1  0  0  0
 79152  1  0  0  0
 81153  1  0  0  0
 82154  1  0  0  0
M  ISO  4   1 100  68 101  79 101  82 100
M  END
> <chiral flag>
0

> <version>
0

> <s_m_source_file>
/data/baiqing/PycharmProjects/Reinvent-master-3.2/result/LINK_invent/BTK/process_docking_weight1_custom_sum_contain_oxygen_bond_distance_aromatic_linkinvent_7_9_3/rearranged_h_0126.sdf

> <i_m_source_file_index>
3

> <r_mmod_Potential_Energy-OPLS-2005>
-139.790649414062

> <r_mmod_Stretch_Energy-OPLS-2005>
89.0700225830078

> <r_mmod_Bend_Energy-OPLS-2005>
174.37223815918

> <r_mmod_Torsional_Energy-OPLS-2005>
239.474517822266

> <r_mmod_Improper_Torsional_Energy-OPLS-2005>
8.15375232696533

> <r_mmod_Van_der_Waal_Energy-OPLS-2005>
142.312393188477

> <r_mmod_Electrostatic_Energy-OPLS-2005>
-606.756164550781

> <r_mmod_Solvation_Energy-OPLS-2005>
-242.295928955078

> <b_mmod_Minimization_Converged-OPLS-2005>
0

> <r_mmod_RMS_Derivative-OPLS-2005>
6.59646129608154

$$$$
3
                    3D
 Structure written by MMmdl.
183193  0  0  1  0            999 V2000
  -30.6932  -14.4221   20.5880 C   0  0  0  0  0  0
  -30.4296  -12.2821   19.4072 C   0  0  0  0  0  0
  -29.4933  -12.5125   18.2009 C   0  0  0  0  0  0
  -28.0137  -12.3751   18.6138 C   0  0  0  0  0  0
  -27.6681  -13.1927   19.8866 C   0  0  2  0  0  0
  -28.7096  -12.9244   20.9988 C   0  0  0  0  0  0
  -25.2654  -13.8086   20.5810 C   0  0  0  0  0  0
  -24.1841  -13.0402   20.9157 C   0  0  0  0  0  0
  -24.6366  -11.6870   20.8691 C   0  0  0  0  0  0
  -23.9042  -10.4276   21.0377 C   0  0  0  0  0  0
  -24.3600   -9.4201   21.9164 C   0  0  0  0  0  0
  -23.6285   -8.2236   22.0748 C   0  0  0  0  0  0
  -22.4258   -8.0269   21.3542 C   0  0  0  0  0  0
  -21.9880   -9.0242   20.4650 C   0  0  0  0  0  0
  -22.7203  -10.2112   20.3049 C   0  0  0  0  0  0
  -21.6847   -6.0725   22.5275 C   0  0  0  0  0  0
  -21.4008   -6.5633   23.8205 C   0  0  0  0  0  0
  -21.3657   -5.6786   24.9165 C   0  0  0  0  0  0
  -21.6041   -4.3057   24.7219 C   0  0  0  0  0  0
  -21.8824   -3.8140   23.4346 C   0  0  0  0  0  0
  -21.9199   -4.6959   22.3397 C   0  0  0  0  0  0
  -22.7873  -13.5250   21.1811 C   0  0  0  0  0  0
  -22.1658   -4.2138   21.0979 F   0  0  0  0  0  0
  -21.5636   -3.4552   25.7740 F   0  0  0  0  0  0
  -30.0492  -13.2338   20.4598 N   0  0  0  0  0  0
  -26.3057  -12.9245   20.3423 N   0  0  0  0  0  0
  -25.9289  -11.6418   20.5720 N   0  0  0  0  0  0
  -22.0498  -12.8264   22.0374 N   0  0  0  0  0  0
  -25.4511  -15.1793   20.4533 N   0  0  0  0  0  0
  -31.7832  -14.6693   20.0634 O   0  0  0  0  0  0
  -21.6630   -6.8862   21.4240 O   0  0  0  0  0  0
  -22.3603  -14.5576   20.6665 O   0  0  0  0  0  0
  -24.6100  -31.8703   23.2122 C   0  0  0  0  0  0
  -25.9004  -32.4838   23.8410 C   0  0  1  0  0  0
  -27.2446  -27.4838   20.0836 C   0  0  0  0  0  0
  -25.5867  -33.8637   24.2340 N   0  0  0  0  0  0
  -23.3972  -30.4920   21.5511 C   0  0  2  0  0  0
  -24.8480  -28.9599   20.1181 C   0  0  0  0  0  0
  -22.7385  -29.4659   22.5005 C   0  0  0  0  0  0
  -18.0267  -28.1374   22.8493 C   0  0  0  0  0  0
  -24.1480  -36.7321   23.2635 C   0  0  0  0  0  0
  -25.9201  -30.8510   21.3584 C   0  0  0  0  0  0
  -26.0036  -29.4863   20.7102 C   0  0  0  0  0  0
  -27.2065  -28.7524   20.6980 C   0  0  0  0  0  0
  -26.0746  -26.9500   19.5090 C   0  0  0  0  0  0
  -24.8751  -27.6865   19.5194 C   0  0  0  0  0  0
  -23.6061  -29.8194   20.1670 C   0  0  0  0  0  0
  -25.4097  -36.3125   24.0342 C   0  0  1  0  0  0
  -20.5851  -28.3649   23.1333 C   0  0  2  0  0  0
  -20.6751  -26.9387   22.5423 C   0  0  0  0  0  0
  -19.5731  -26.6387   21.5208 C   0  0  0  0  0  0
  -18.1909  -26.7923   22.1623 C   0  0  0  0  0  0
  -19.1511  -28.8829   23.2917 C   0  0  0  0  0  0
  -18.9447  -30.1435   23.8925 C   0  0  0  0  0  0
  -17.6450  -30.6585   24.0567 C   0  0  0  0  0  0
  -25.9023  -34.9485   23.5137 C   0  0  0  0  0  0
  -16.5343  -29.9089   23.6323 C   0  0  0  0  0  0
  -16.7254  -28.6509   23.0342 C   0  0  0  0  0  0
  -26.4458  -31.6608   25.0717 C   0  0  0  0  0  0
  -25.3749  -31.3713   26.1485 C   0  0  0  0  0  0
  -27.0267  -30.3052   24.6056 C   0  0  0  0  0  0
  -27.6050  -32.4317   25.7467 C   0  0  0  0  0  0
  -27.5583  -37.1804   24.8459 C   0  0  0  0  0  0
  -21.4119  -29.3028   22.3748 N   0  0  0  0  0  0
  -26.4287  -37.3805   23.9420 N   0  0  0  0  0  0
  -24.6601  -31.0841   22.1002 N   0  0  0  0  0  0
  -23.4174  -28.8196   23.3032 O   0  0  0  0  0  0
  -28.3931  -26.7421   20.0573 O   0  0  0  0  0  0
  -26.5594  -34.8928   22.4705 O   0  0  0  0  0  0
  -23.5303  -32.1430   23.7535 O   0  0  0  0  0  0
  -27.9194  -20.2007   18.2027 C   0  0  0  0  0  0
  -29.7057  -19.4193   19.2788 C   0  0  0  0  0  0
  -29.2071  -20.5515   18.6915 C   0  0  0  0  0  0
  -27.6720  -18.8860   18.4722 C   0  0  0  0  0  0
  -29.0181  -22.9377   17.8303 C   0  0  0  0  0  0
  -30.2686  -22.4569   19.9574 C   0  0  0  0  0  0
  -25.2568  -18.4529   19.0324 C   0  0  0  0  0  0
  -26.0258  -18.3055   16.6450 C   0  0  0  0  0  0
  -29.6914  -24.3190   17.7726 C   0  0  0  0  0  0
  -30.9212  -23.8463   19.8457 C   0  0  0  0  0  0
  -23.9507  -17.7352   18.6275 C   0  0  0  0  0  0
  -24.7306  -17.5479   16.2995 C   0  0  0  0  0  0
  -29.8863  -21.9007   18.5751 C   0  0  1  0  0  0
  -26.4443  -18.0869   18.1166 C   0  0  0  0  0  0
  -28.9425  -17.0217   19.6443 C   0  0  0  0  0  0
  -29.9786  -16.7935   20.7730 C   0  0  0  0  0  0
  -30.5286  -26.2021   19.1694 C   0  0  0  0  0  0
  -29.3619  -27.1984   19.1203 C   0  0  0  0  0  0
  -28.7734  -18.3961   19.1746 N   0  0  0  0  0  0
  -29.9568  -15.3816   21.1600 N   0  0  0  0  0  0
  -23.6281  -17.9469   17.2008 N   0  3  0  0  0  0
  -30.0338  -24.8012   19.1352 N   0  3  1  0  0  0
  -31.4733  -12.3917   19.1057 H   0  0  0  0  0  0
  -30.3349  -11.2600   19.7773 H   0  0  0  0  0  0
  -29.7263  -11.8067   17.4016 H   0  0  0  0  0  0
  -29.6654  -13.5066   17.7826 H   0  0  0  0  0  0
  -27.8135  -11.3172   18.7900 H   0  0  0  0  0  0
  -27.3649  -12.6731   17.7904 H   0  0  0  0  0  0
  -27.7229  -14.2450   19.6115 H   0  0  0  0  0  0
  -28.6741  -11.8758   21.2957 H   0  0  0  0  0  0
  -28.4768  -13.4830   21.9059 H   0  0  0  0  0  0
  -25.2744   -9.5694   22.4728 H   0  0  0  0  0  0
  -24.0001   -7.4634   22.7468 H   0  0  0  0  0  0
  -21.0801   -8.8767   19.8959 H   0  0  0  0  0  0
  -22.3668  -10.9657   19.6158 H   0  0  0  0  0  0
  -21.1996   -7.6137   23.9705 H   0  0  0  0  0  0
  -21.1468   -6.0517   25.9067 H   0  0  0  0  0  0
  -22.0615   -2.7611   23.2857 H   0  0  0  0  0  0
  -22.4077  -11.9880   22.4713 H   0  0  0  0  0  0
  -21.1139  -13.1346   22.2624 H   0  0  0  0  0  0
  -24.7381  -15.8273   20.7634 H   0  0  0  0  0  0
  -26.3542  -15.6097   20.3255 H   0  0  0  0  0  0
  -26.7078  -32.5577   23.1191 H   0  0  0  0  0  0
  -25.0022  -33.9806   25.0487 H   0  0  0  0  0  0
  -22.6837  -31.3065   21.4102 H   0  0  0  0  0  0
  -23.3744  -35.9651   23.3304 H   0  0  0  0  0  0
  -24.3587  -36.8931   22.2050 H   0  0  0  0  0  0
  -23.7235  -37.6525   23.6651 H   0  0  0  0  0  0
  -26.0219  -31.6166   20.5877 H   0  0  0  0  0  0
  -26.8118  -30.9113   21.9712 H   0  0  0  0  0  0
  -28.0985  -29.1553   21.1580 H   0  0  0  0  0  0
  -26.0964  -25.9723   19.0499 H   0  0  0  0  0  0
  -23.9846  -27.2699   19.0704 H   0  0  0  0  0  0
  -23.7111  -30.5900   19.4030 H   0  0  0  0  0  0
  -22.7333  -29.2336   19.8743 H   0  0  0  0  0  0
  -25.1270  -36.1989   25.0835 H   0  0  0  0  0  0
  -20.9946  -28.3213   24.1451 H   0  0  0  0  0  0
  -20.5642  -26.2250   23.3606 H   0  0  0  0  0  0
  -21.6629  -26.7432   22.1229 H   0  0  0  0  0  0
  -19.6890  -25.6303   21.1225 H   0  0  0  0  0  0
  -19.6668  -27.3212   20.6751 H   0  0  0  0  0  0
  -17.4173  -26.6671   21.4028 H   0  0  0  0  0  0
  -18.0310  -26.0067   22.9024 H   0  0  0  0  0  0
  -19.7919  -30.7239   24.2313 H   0  0  0  0  0  0
  -17.5009  -31.6263   24.5164 H   0  0  0  0  0  0
  -15.5346  -30.3002   23.7631 H   0  0  0  0  0  0
  -15.8655  -28.0841   22.7042 H   0  0  0  0  0  0
  -24.5879  -30.7106   25.7837 H   0  0  0  0  0  0
  -24.8986  -32.2869   26.4995 H   0  0  0  0  0  0
  -25.8110  -30.8832   27.0207 H   0  0  0  0  0  0
  -26.2776  -29.6830   24.1135 H   0  0  0  0  0  0
  -27.4077  -29.7275   25.4491 H   0  0  0  0  0  0
  -27.8606  -30.4381   23.9156 H   0  0  0  0  0  0
  -27.2679  -33.3605   26.2087 H   0  0  0  0  0  0
  -28.3828  -32.6899   25.0268 H   0  0  0  0  0  0
  -28.0752  -31.8416   26.5345 H   0  0  0  0  0  0
  -28.2591  -38.0111   24.7536 H   0  0  0  0  0  0
  -28.1085  -36.2648   24.6238 H   0  0  0  0  0  0
  -27.2312  -37.1407   25.8863 H   0  0  0  0  0  0
  -20.9258  -29.8764   21.6999 H   0  0  0  0  0  0
  -26.0176  -38.2878   24.1444 H   0  0  0  0  0  0
  -27.2299  -20.8487   17.6809 H   0  0  0  0  0  0
  -30.6580  -19.2608   19.7651 H   0  0  0  0  0  0
  -28.8117  -22.5943   16.8154 H   0  0  0  0  0  0
  -28.0491  -23.0381   18.3223 H   0  0  0  0  0  0
  -29.3813  -22.5160   20.5900 H   0  0  0  0  0  0
  -30.9552  -21.7741   20.4597 H   0  0  0  0  0  0
  -25.5029  -18.2108   20.0669 H   0  0  0  0  0  0
  -25.0937  -19.5316   19.0079 H   0  0  0  0  0  0
  -25.8762  -19.3668   16.4439 H   0  0  0  0  0  0
  -26.8264  -17.9787   15.9809 H   0  0  0  0  0  0
  -29.0185  -25.0213   17.2794 H   0  0  0  0  0  0
  -30.5944  -24.2714   17.1617 H   0  0  0  0  0  0
  -31.8744  -23.7737   19.3208 H   0  0  0  0  0  0
  -31.1437  -24.2136   20.8485 H   0  0  0  0  0  0
  -23.1212  -18.0842   19.2429 H   0  0  0  0  0  0
  -24.0337  -16.6639   18.8023 H   0  0  0  0  0  0
  -24.8934  -16.4720   16.3772 H   0  0  0  0  0  0
  -24.4402  -17.7453   15.2671 H   0  0  0  0  0  0
  -30.7994  -21.7415   17.9993 H   0  0  0  0  0  0
  -26.6472  -17.0214   18.2302 H   0  0  0  0  0  0
  -27.9762  -16.6791   20.0086 H   0  0  0  0  0  0
  -29.1915  -16.4079   18.7775 H   0  0  0  0  0  0
  -29.7282  -17.3967   21.6454 H   0  0  0  0  0  0
  -30.9803  -17.0887   20.4567 H   0  0  0  0  0  0
  -31.0694  -26.3780   20.0995 H   0  0  0  0  0  0
  -31.2374  -26.3896   18.3624 H   0  0  0  0  0  0
  -28.9273  -27.2417   18.1202 H   0  0  0  0  0  0
  -29.7070  -28.2038   19.3683 H   0  0  0  0  0  0
  -29.1202  -15.0625   21.6268 H   0  0  0  0  0  0
  -23.3989  -18.9146   17.0460 H   0  0  0  0  0  0
  -22.8067  -17.4103   16.9704 H   0  0  0  0  0  0
  -29.1723  -24.8324   19.6657 H   0  0  0  0  0  0
  1 25  1  0  0  0
  1 30  2  0  0  0
  1 90  1  0  0  0
  2  3  1  0  0  0
  2 25  1  0  0  0
  2 93  1  0  0  0
  2 94  1  0  0  0
  3  4  1  0  0  0
  3 95  1  0  0  0
  3 96  1  0  0  0
  4  5  1  0  0  0
  4 97  1  0  0  0
  4 98  1  0  0  0
  5  6  1  0  0  0
  5 26  1  0  0  0
  5 99  1  0  0  0
  6 25  1  0  0  0
  6100  1  0  0  0
  6101  1  0  0  0
  7  8  2  0  0  0
  7 26  1  0  0  0
  7 29  1  0  0  0
  8  9  1  0  0  0
  8 22  1  0  0  0
  9 10  1  0  0  0
  9 27  2  0  0  0
 10 11  2  0  0  0
 10 15  1  0  0  0
 11 12  1  0  0  0
 11102  1  0  0  0
 12 13  2  0  0  0
 12103  1  0  0  0
 13 14  1  0  0  0
 13 31  1  0  0  0
 14 15  2  0  0  0
 14104  1  0  0  0
 15105  1  0  0  0
 16 17  2  0  0  0
 16 21  1  0  0  0
 16 31  1  0  0  0
 17 18  1  0  0  0
 17106  1  0  0  0
 18 19  2  0  0  0
 18107  1  0  0  0
 19 20  1  0  0  0
 19 24  1  0  0  0
 20 21  2  0  0  0
 20108  1  0  0  0
 21 23  1  0  0  0
 22 28  1  0  0  0
 22 32  2  0  0  0
 26 27  1  0  0  0
 28109  1  0  0  0
 28110  1  0  0  0
 29111  1  0  0  0
 29112  1  0  0  0
 33 34  1  0  0  0
 33 66  1  0  0  0
 33 70  2  0  0  0
 34 36  1  0  0  0
 34 59  1  0  0  0
 34113  1  0  0  0
 35 44  2  0  0  0
 35 45  1  0  0  0
 35 68  1  0  0  0
 36 56  1  0  0  0
 36114  1  0  0  0
 37 39  1  0  0  0
 37 47  1  0  0  0
 37 66  1  0  0  0
 37115  1  0  0  0
 38 43  2  0  0  0
 38 46  1  0  0  0
 38 47  1  0  0  0
 39 64  1  0  0  0
 39 67  2  0  0  0
 40 52  1  0  0  0
 40 53  2  0  0  0
 40 58  1  0  0  0
 41116  1  0  0  0
 41117  1  0  0  0
 41118  1  0  0  0
 41 48  1  0  0  0
 42 43  1  0  0  0
 42 66  1  0  0  0
 42119  1  0  0  0
 42120  1  0  0  0
 43 44  1  0  0  0
 44121  1  0  0  0
 45 46  2  0  0  0
 45122  1  0  0  0
 46123  1  0  0  0
 47124  1  0  0  0
 47125  1  0  0  0
 48 56  1  0  0  0
 48 65  1  0  0  0
 48126  1  0  0  0
 49 50  1  0  0  0
 49 53  1  0  0  0
 49 64  1  0  0  0
 49127  1  0  0  0
 50 51  1  0  0  0
 50128  1  0  0  0
 50129  1  0  0  0
 51 52  1  0  0  0
 51130  1  0  0  0
 51131  1  0  0  0
 52132  1  0  0  0
 52133  1  0  0  0
 53 54  1  0  0  0
 54 55  2  0  0  0
 54134  1  0  0  0
 55 57  1  0  0  0
 55135  1  0  0  0
 56 69  2  0  0  0
 57 58  2  0  0  0
 57136  1  0  0  0
 58137  1  0  0  0
 59 60  1  0  0  0
 59 61  1  0  0  0
 59 62  1  0  0  0
 60138  1  0  0  0
 60139  1  0  0  0
 60140  1  0  0  0
 61141  1  0  0  0
 61142  1  0  0  0
 61143  1  0  0  0
 62144  1  0  0  0
 62145  1  0  0  0
 62146  1  0  0  0
 63 65  1  0  0  0
 63147  1  0  0  0
 63148  1  0  0  0
 63149  1  0  0  0
 64150  1  0  0  0
 65151  1  0  0  0
 68 88  1  0  0  0
 71 73  1  0  0  0
 71 74  2  0  0  0
 71152  1  0  0  0
 72 73  2  0  0  0
 72 89  1  0  0  0
 72153  1  0  0  0
 73 83  1  0  0  0
 74 89  1  0  0  0
 74 84  1  0  0  0
 75 79  1  0  0  0
 75 83  1  0  0  0
 75154  1  0  0  0
 75155  1  0  0  0
 76 80  1  0  0  0
 76 83  1  0  0  0
 76156  1  0  0  0
 76157  1  0  0  0
 77 81  1  0  0  0
 77 84  1  0  0  0
 77158  1  0  0  0
 77159  1  0  0  0
 78 82  1  0  0  0
 78 84  1  0  0  0
 78160  1  0  0  0
 78161  1  0  0  0
 79 92  1  0  0  0
 79162  1  0  0  0
 79163  1  0  0  0
 80 92  1  0  0  0
 80164  1  0  0  0
 80165  1  0  0  0
 81 91  1  0  0  0
 81166  1  0  0  0
 81167  1  0  0  0
 82 91  1  0  0  0
 82168  1  0  0  0
 82169  1  0  0  0
 83170  1  0  0  0
 84171  1  0  0  0
 85 86  1  0  0  0
 85 89  1  0  0  0
 85172  1  0  0  0
 85173  1  0  0  0
 86 90  1  0  0  0
 86174  1  0  0  0
 86175  1  0  0  0
 87 88  1  0  0  0
 87176  1  0  0  0
 87177  1  0  0  0
 87 92  1  0  0  0
 88178  1  0  0  0
 88179  1  0  0  0
 90180  1  0  0  0
 91181  1  0  0  0
 91182  1  0  0  0
 92183  1  0  0  0
M  CHG  2  91   1  92   1
M  ISO  4   1 100  68 101  88 101  90 100
M  END
> <chiral flag>
0

> <version>
0

> <s_m_source_file>
/data/baiqing/PycharmProjects/Reinvent-master-3.2/result/LINK_invent/BTK/process_docking_weight1_custom_sum_contain_oxygen_bond_distance_aromatic_linkinvent_7_9_3/rearranged_h_0126.sdf

> <i_m_source_file_index>
4

> <r_mmod_Potential_Energy-OPLS-2005>
-334.992980957031

> <r_mmod_Stretch_Energy-OPLS-2005>
33.3460845947266

> <r_mmod_Bend_Energy-OPLS-2005>
98.0945739746094

> <r_mmod_Torsional_Energy-OPLS-2005>
323.412353515625

> <r_mmod_Improper_Torsional_Energy-OPLS-2005>
6.83860778808594

> <r_mmod_Van_der_Waal_Energy-OPLS-2005>
127.800094604492

> <r_mmod_Electrostatic_Energy-OPLS-2005>
-121.294998168945

> <r_mmod_Solvation_Energy-OPLS-2005>
-811.230285644531

> <b_mmod_Minimization_Converged-OPLS-2005>
0

> <r_mmod_RMS_Derivative-OPLS-2005>
2.3471314907074

$$$$
4
                    3D
 Structure written by MMmdl.
162171  0  0  1  0            999 V2000
  -30.7576  -14.4229   20.6084 C   0  0  0  0  0  0
  -30.4200  -12.2897   19.4181 C   0  0  0  0  0  0
  -29.4963  -12.5220   18.2079 C   0  0  0  0  0  0
  -28.0175  -12.3795   18.6142 C   0  0  0  0  0  0
  -27.6710  -13.2066   19.8822 C   0  0  2  0  0  0
  -28.7119  -12.9815   21.0040 C   0  0  0  0  0  0
  -25.2598  -13.8136   20.5603 C   0  0  0  0  0  0
  -24.1863  -13.0441   20.9159 C   0  0  0  0  0  0
  -24.6426  -11.6910   20.8768 C   0  0  0  0  0  0
  -23.9091  -10.4308   21.0430 C   0  0  0  0  0  0
  -24.3633   -9.4219   21.9206 C   0  0  0  0  0  0
  -23.6304   -8.2256   22.0765 C   0  0  0  0  0  0
  -22.4287   -8.0297   21.3546 C   0  0  0  0  0  0
  -21.9931   -9.0280   20.4645 C   0  0  0  0  0  0
  -22.7272  -10.2151   20.3061 C   0  0  0  0  0  0
  -21.6862   -6.0757   22.5288 C   0  0  0  0  0  0
  -21.4025   -6.5660   23.8222 C   0  0  0  0  0  0
  -21.3651   -5.6802   24.9182 C   0  0  0  0  0  0
  -21.6031   -4.3068   24.7219 C   0  0  0  0  0  0
  -21.8821   -3.8166   23.4343 C   0  0  0  0  0  0
  -21.9203   -4.6989   22.3401 C   0  0  0  0  0  0
  -22.7886  -13.5244   21.1823 C   0  0  0  0  0  0
  -22.1674   -4.2176   21.0978 F   0  0  0  0  0  0
  -21.5608   -3.4547   25.7728 F   0  0  0  0  0  0
  -30.0520  -13.2668   20.4581 N   0  0  0  0  0  0
  -26.3079  -12.9338   20.3383 N   0  0  0  0  0  0
  -25.9354  -11.6496   20.5784 N   0  0  0  0  0  0
  -22.0476  -12.8239   22.0333 N   0  0  0  0  0  0
  -25.4261  -15.1823   20.3857 N   0  0  0  0  0  0
  -31.8443  -14.6213   20.0600 O   0  0  0  0  0  0
  -21.6646   -6.8902   21.4247 O   0  0  0  0  0  0
  -22.3598  -14.5565   20.6680 O   0  0  0  0  0  0
  -24.6165  -31.8653   23.2041 C   0  0  0  0  0  0
  -25.9060  -32.4814   23.8351 C   0  0  1  0  0  0
  -27.2573  -27.4317   20.0809 C   0  0  0  0  0  0
  -25.5904  -33.8608   24.2297 N   0  0  0  0  0  0
  -23.4053  -30.4853   21.5437 C   0  0  2  0  0  0
  -24.8546  -28.9433   20.1103 C   0  0  0  0  0  0
  -22.7413  -29.4657   22.4976 C   0  0  0  0  0  0
  -18.0273  -28.1378   22.8497 C   0  0  0  0  0  0
  -24.1495  -36.7321   23.2639 C   0  0  0  0  0  0
  -25.9319  -30.8261   21.3577 C   0  0  0  0  0  0
  -26.0097  -29.4566   20.7114 C   0  0  0  0  0  0
  -27.2054  -28.7037   20.6993 C   0  0  0  0  0  0
  -26.0765  -26.9254   19.4882 C   0  0  0  0  0  0
  -24.8834  -27.6764   19.4986 C   0  0  0  0  0  0
  -23.6144  -29.8096   20.1598 C   0  0  0  0  0  0
  -25.4118  -36.3113   24.0333 C   0  0  1  0  0  0
  -20.5863  -28.3660   23.1275 C   0  0  2  0  0  0
  -20.6785  -26.9452   22.5252 C   0  0  0  0  0  0
  -19.5702  -26.6451   21.5105 C   0  0  0  0  0  0
  -18.1906  -26.7961   22.1569 C   0  0  0  0  0  0
  -19.1527  -28.8828   23.2898 C   0  0  0  0  0  0
  -18.9459  -30.1427   23.8933 C   0  0  0  0  0  0
  -17.6468  -30.6583   24.0570 C   0  0  0  0  0  0
  -25.9048  -34.9477   23.5123 C   0  0  0  0  0  0
  -16.5346  -29.9089   23.6352 C   0  0  0  0  0  0
  -16.7263  -28.6502   23.0399 C   0  0  0  0  0  0
  -26.4475  -31.6592   25.0681 C   0  0  0  0  0  0
  -25.3733  -31.3677   26.1419 C   0  0  0  0  0  0
  -27.0315  -30.3049   24.6041 C   0  0  0  0  0  0
  -27.6064  -32.4292   25.7447 C   0  0  0  0  0  0
  -27.5582  -37.1816   24.8466 C   0  0  0  0  0  0
  -21.4124  -29.3082   22.3735 N   0  0  0  0  0  0
  -26.4305  -37.3794   23.9406 N   0  0  0  0  0  0
  -24.6693  -31.0758   22.0936 N   0  0  0  0  0  0
  -23.4180  -28.8196   23.3031 O   0  0  0  0  0  0
  -28.4646  -26.7554   20.0992 O   0  0  0  0  0  0
  -26.5610  -34.8941   22.4684 O   0  0  0  0  0  0
  -23.5355  -32.1406   23.7429 O   0  0  0  0  0  0
  -28.5296  -24.1023   21.3035 C   0  0  0  0  0  0
  -28.5345  -22.8008   21.8495 C   0  0  0  0  0  0
  -28.9920  -23.1013   19.1621 C   0  0  0  0  0  0
  -28.7350  -24.2639   19.9189 C   0  0  0  0  0  0
  -28.7608  -21.6957   21.0036 C   0  0  0  0  0  0
  -26.9289  -18.3138   21.5081 C   0  0  0  0  0  0
  -27.2278  -19.7146   20.9749 C   0  0  0  0  0  0
  -28.0520  -17.3441   21.1326 C   0  0  0  0  0  0
  -29.7282  -19.2738   21.2163 C   0  0  0  0  0  0
  -28.5604  -20.2600   21.5106 C   0  0  1  0  0  0
  -29.4244  -17.8092   21.6644 C   0  0  2  0  0  0
  -28.7197  -25.6353   19.2362 C   0  0  0  0  0  0
  -30.5602  -16.8214   21.2679 C   0  0  0  0  0  0
  -28.9983  -21.8517   19.6814 N   0  0  0  0  0  0
  -30.1565  -15.4045   21.3018 N   0  0  0  0  0  0
  -31.4656  -12.3693   19.1131 H   0  0  0  0  0  0
  -30.3052  -11.2726   19.7924 H   0  0  0  0  0  0
  -29.7376  -11.8221   17.4059 H   0  0  0  0  0  0
  -29.6689  -13.5209   17.8035 H   0  0  0  0  0  0
  -27.8200  -11.3219   18.7926 H   0  0  0  0  0  0
  -27.3729  -12.6705   17.7832 H   0  0  0  0  0  0
  -27.7256  -14.2564   19.5942 H   0  0  0  0  0  0
  -28.6723  -11.9481   21.3534 H   0  0  0  0  0  0
  -28.4748  -13.5920   21.8766 H   0  0  0  0  0  0
  -25.2779   -9.5695   22.4787 H   0  0  0  0  0  0
  -24.0025   -7.4648   22.7482 H   0  0  0  0  0  0
  -21.0868   -8.8804   19.8944 H   0  0  0  0  0  0
  -22.3752  -10.9698   19.6159 H   0  0  0  0  0  0
  -21.2025   -7.6171   23.9738 H   0  0  0  0  0  0
  -21.1456   -6.0530   25.9085 H   0  0  0  0  0  0
  -22.0607   -2.7638   23.2831 H   0  0  0  0  0  0
  -22.4055  -11.9897   22.4745 H   0  0  0  0  0  0
  -21.1081  -13.1284   22.2470 H   0  0  0  0  0  0
  -24.6494  -15.8305   20.4542 H   0  0  0  0  0  0
  -26.2810  -15.6229   20.0737 H   0  0  0  0  0  0
  -26.7117  -32.5522   23.1102 H   0  0  0  0  0  0
  -25.0083  -33.9751   25.0457 H   0  0  0  0  0  0
  -22.6967  -31.3031   21.3992 H   0  0  0  0  0  0
  -23.3745  -35.9661   23.3316 H   0  0  0  0  0  0
  -24.3586  -36.8923   22.2048 H   0  0  0  0  0  0
  -23.7247  -37.6534   23.6647 H   0  0  0  0  0  0
  -26.0419  -31.5837   20.5821 H   0  0  0  0  0  0
  -26.8203  -30.8846   21.9719 H   0  0  0  0  0  0
  -28.1008  -29.1018   21.1578 H   0  0  0  0  0  0
  -26.0554  -25.9523   19.0215 H   0  0  0  0  0  0
  -23.9962  -27.2722   19.0295 H   0  0  0  0  0  0
  -23.7211  -30.5824   19.3966 H   0  0  0  0  0  0
  -22.7387  -29.2275   19.8673 H   0  0  0  0  0  0
  -25.1290  -36.1982   25.0819 H   0  0  0  0  0  0
  -20.9965  -28.3148   24.1384 H   0  0  0  0  0  0
  -20.5850  -26.2234   23.3368 H   0  0  0  0  0  0
  -21.6618  -26.7668   22.0877 H   0  0  0  0  0  0
  -19.6575  -27.3299   20.6642 H   0  0  0  0  0  0
  -19.6857  -25.6398   21.1074 H   0  0  0  0  0  0
  -17.4192  -26.6810   21.3943 H   0  0  0  0  0  0
  -18.0277  -26.0036   22.8880 H   0  0  0  0  0  0
  -19.7933  -30.7225   24.2345 H   0  0  0  0  0  0
  -17.5012  -31.6269   24.5151 H   0  0  0  0  0  0
  -15.5346  -30.2990   23.7687 H   0  0  0  0  0  0
  -15.8659  -28.0821   22.7118 H   0  0  0  0  0  0
  -24.5906  -30.7043   25.7720 H   0  0  0  0  0  0
  -24.8923  -32.2826   26.4902 H   0  0  0  0  0  0
  -25.8075  -30.8799   27.0154 H   0  0  0  0  0  0
  -26.2845  -29.6787   24.1154 H   0  0  0  0  0  0
  -27.4173  -29.7314   25.4477 H   0  0  0  0  0  0
  -27.8638  -30.4394   23.9124 H   0  0  0  0  0  0
  -27.2711  -33.3578   26.2077 H   0  0  0  0  0  0
  -28.3859  -32.6861   25.0261 H   0  0  0  0  0  0
  -28.0757  -31.8371   26.5316 H   0  0  0  0  0  0
  -28.2616  -38.0100   24.7513 H   0  0  0  0  0  0
  -28.1069  -36.2636   24.6307 H   0  0  0  0  0  0
  -27.2305  -37.1478   25.8871 H   0  0  0  0  0  0
  -20.9257  -29.8815   21.6985 H   0  0  0  0  0  0
  -26.0203  -38.2878   24.1387 H   0  0  0  0  0  0
  -28.3502  -24.9565   21.9392 H   0  0  0  0  0  0
  -28.3187  -22.6595   22.8999 H   0  0  0  0  0  0
  -29.1972  -23.1656   18.1033 H   0  0  0  0  0  0
  -25.9813  -17.9615   21.1015 H   0  0  0  0  0  0
  -26.8121  -18.3411   22.5923 H   0  0  0  0  0  0
  -26.4177  -20.3925   21.2436 H   0  0  0  0  0  0
  -27.2573  -19.6826   19.8855 H   0  0  0  0  0  0
  -28.0964  -17.2185   20.0514 H   0  0  0  0  0  0
  -27.7956  -16.3695   21.5447 H   0  0  0  0  0  0
  -30.6322  -19.6310   21.7129 H   0  0  0  0  0  0
  -29.9507  -19.2840   20.1484 H   0  0  0  0  0  0
  -28.4752  -20.3179   22.5963 H   0  0  0  0  0  0
  -29.3598  -17.8145   22.7546 H   0  0  0  0  0  0
  -28.0782  -25.6170   18.3553 H   0  0  0  0  0  0
  -29.7237  -25.7879   18.8395 H   0  0  0  0  0  0
  -31.4186  -16.9662   21.9256 H   0  0  0  0  0  0
  -30.9024  -17.0645   20.2588 H   0  0  0  0  0  0
  -29.2811  -15.1854   21.7508 H   0  0  0  0  0  0
  1 25  1  0  0  0
  1 30  2  0  0  0
  1 85  1  0  0  0
  2  3  1  0  0  0
  2 25  1  0  0  0
  2 86  1  0  0  0
  2 87  1  0  0  0
  3  4  1  0  0  0
  3 88  1  0  0  0
  3 89  1  0  0  0
  4  5  1  0  0  0
  4 90  1  0  0  0
  4 91  1  0  0  0
  5  6  1  0  0  0
  5 26  1  0  0  0
  5 92  1  0  0  0
  6 25  1  0  0  0
  6 93  1  0  0  0
  6 94  1  0  0  0
  7  8  2  0  0  0
  7 26  1  0  0  0
  7 29  1  0  0  0
  8  9  1  0  0  0
  8 22  1  0  0  0
  9 10  1  0  0  0
  9 27  2  0  0  0
 10 11  2  0  0  0
 10 15  1  0  0  0
 11 12  1  0  0  0
 11 95  1  0  0  0
 12 13  2  0  0  0
 12 96  1  0  0  0
 13 14  1  0  0  0
 13 31  1  0  0  0
 14 15  2  0  0  0
 14 97  1  0  0  0
 15 98  1  0  0  0
 16 17  2  0  0  0
 16 21  1  0  0  0
 16 31  1  0  0  0
 17 18  1  0  0  0
 17 99  1  0  0  0
 18 19  2  0  0  0
 18100  1  0  0  0
 19 20  1  0  0  0
 19 24  1  0  0  0
 20 21  2  0  0  0
 20101  1  0  0  0
 21 23  1  0  0  0
 22 28  1  0  0  0
 22 32  2  0  0  0
 26 27  1  0  0  0
 28102  1  0  0  0
 28103  1  0  0  0
 29104  1  0  0  0
 29105  1  0  0  0
 33 34  1  0  0  0
 33 66  1  0  0  0
 33 70  2  0  0  0
 34 36  1  0  0  0
 34 59  1  0  0  0
 34106  1  0  0  0
 35 44  2  0  0  0
 35 45  1  0  0  0
 35 68  1  0  0  0
 36 56  1  0  0  0
 36107  1  0  0  0
 37 39  1  0  0  0
 37 47  1  0  0  0
 37 66  1  0  0  0
 37108  1  0  0  0
 38 43  2  0  0  0
 38 46  1  0  0  0
 38 47  1  0  0  0
 39 64  1  0  0  0
 39 67  2  0  0  0
 40 52  1  0  0  0
 40 53  2  0  0  0
 40 58  1  0  0  0
 41109  1  0  0  0
 41110  1  0  0  0
 41111  1  0  0  0
 41 48  1  0  0  0
 42 43  1  0  0  0
 42 66  1  0  0  0
 42112  1  0  0  0
 42113  1  0  0  0
 43 44  1  0  0  0
 44114  1  0  0  0
 45 46  2  0  0  0
 45115  1  0  0  0
 46116  1  0  0  0
 47117  1  0  0  0
 47118  1  0  0  0
 48 56  1  0  0  0
 48 65  1  0  0  0
 48119  1  0  0  0
 49 50  1  0  0  0
 49 53  1  0  0  0
 49 64  1  0  0  0
 49120  1  0  0  0
 50 51  1  0  0  0
 50121  1  0  0  0
 50122  1  0  0  0
 51 52  1  0  0  0
 51123  1  0  0  0
 51124  1  0  0  0
 52125  1  0  0  0
 52126  1  0  0  0
 53 54  1  0  0  0
 54 55  2  0  0  0
 54127  1  0  0  0
 55 57  1  0  0  0
 55128  1  0  0  0
 56 69  2  0  0  0
 57 58  2  0  0  0
 57129  1  0  0  0
 58130  1  0  0  0
 59 60  1  0  0  0
 59 61  1  0  0  0
 59 62  1  0  0  0
 60131  1  0  0  0
 60132  1  0  0  0
 60133  1  0  0  0
 61134  1  0  0  0
 61135  1  0  0  0
 61136  1  0  0  0
 62137  1  0  0  0
 62138  1  0  0  0
 62139  1  0  0  0
 63 65  1  0  0  0
 63140  1  0  0  0
 63141  1  0  0  0
 63142  1  0  0  0
 64143  1  0  0  0
 65144  1  0  0  0
 68 82  1  0  0  0
 71 72  2  0  0  0
 71 74  1  0  0  0
 71145  1  0  0  0
 72 75  1  0  0  0
 72146  1  0  0  0
 73 74  2  0  0  0
 73 84  1  0  0  0
 73147  1  0  0  0
 74 82  1  0  0  0
 75 84  2  0  0  0
 75 80  1  0  0  0
 76 77  1  0  0  0
 76 78  1  0  0  0
 76148  1  0  0  0
 76149  1  0  0  0
 77 80  1  0  0  0
 77150  1  0  0  0
 77151  1  0  0  0
 78 81  1  0  0  0
 78152  1  0  0  0
 78153  1  0  0  0
 79 80  1  0  0  0
 79 81  1  0  0  0
 79154  1  0  0  0
 79155  1  0  0  0
 80156  1  0  0  0
 81 83  1  0  0  0
 81157  1  0  0  0
 82158  1  0  0  0
 82159  1  0  0  0
 83 85  1  0  0  0
 83160  1  0  0  0
 83161  1  0  0  0
 85162  1  0  0  0
M  ISO  4   1 100  68 101  82 101  85 100
M  END
> <chiral flag>
0

> <version>
0

> <s_m_source_file>
/data/baiqing/PycharmProjects/Reinvent-master-3.2/result/LINK_invent/BTK/process_docking_weight1_custom_sum_contain_oxygen_bond_distance_aromatic_linkinvent_7_9_3/rearranged_h_0126.sdf

> <i_m_source_file_index>
5

> <r_mmod_Potential_Energy-OPLS-2005>
-197.549224853516

> <r_mmod_Stretch_Energy-OPLS-2005>
39.4652099609375

> <r_mmod_Bend_Energy-OPLS-2005>
107.387405395508

> <r_mmod_Torsional_Energy-OPLS-2005>
218.606674194336

> <r_mmod_Improper_Torsional_Energy-OPLS-2005>
3.66762733459473

> <r_mmod_Van_der_Waal_Energy-OPLS-2005>
152.719207763672

> <r_mmod_Electrostatic_Energy-OPLS-2005>
-521.363708496094

> <r_mmod_Solvation_Energy-OPLS-2005>
-208.755599975586

> <b_mmod_Minimization_Converged-OPLS-2005>
0

> <r_mmod_RMS_Derivative-OPLS-2005>
3.62665009498596

$$$$
5
                    3D
 Structure written by MMmdl.
187196  0  0  1  0            999 V2000
  -30.7115  -14.3907   20.5860 C   0  0  0  0  0  0
  -30.4389  -12.2721   19.3809 C   0  0  0  0  0  0
  -29.4890  -12.5055   18.1822 C   0  0  0  0  0  0
  -28.0060  -12.3947   18.5986 C   0  0  0  0  0  0
  -27.6803  -13.1881   19.8906 C   0  0  2  0  0  0
  -28.7227  -12.8980   20.9963 C   0  0  0  0  0  0
  -25.2681  -13.8131   20.5690 C   0  0  0  0  0  0
  -24.1913  -13.0472   20.9184 C   0  0  0  0  0  0
  -24.6406  -11.6904   20.8754 C   0  0  0  0  0  0
  -23.9068  -10.4306   21.0442 C   0  0  0  0  0  0
  -24.3622   -9.4215   21.9211 C   0  0  0  0  0  0
  -23.6296   -8.2253   22.0756 C   0  0  0  0  0  0
  -22.4288   -8.0295   21.3552 C   0  0  0  0  0  0
  -21.9938   -9.0276   20.4670 C   0  0  0  0  0  0
  -22.7246  -10.2156   20.3084 C   0  0  0  0  0  0
  -21.6864   -6.0748   22.5279 C   0  0  0  0  0  0
  -21.4020   -6.5645   23.8209 C   0  0  0  0  0  0
  -21.3654   -5.6791   24.9176 C   0  0  0  0  0  0
  -21.6041   -4.3054   24.7234 C   0  0  0  0  0  0
  -21.8808   -3.8153   23.4354 C   0  0  0  0  0  0
  -21.9193   -4.6970   22.3413 C   0  0  0  0  0  0
  -22.7942  -13.5303   21.1845 C   0  0  0  0  0  0
  -22.1648   -4.2137   21.0991 F   0  0  0  0  0  0
  -21.5638   -3.4548   25.7754 F   0  0  0  0  0  0
  -30.0668  -13.2040   20.4503 N   0  0  0  0  0  0
  -26.3136  -12.9261   20.3470 N   0  0  0  0  0  0
  -25.9325  -11.6434   20.5780 N   0  0  0  0  0  0
  -22.0567  -12.8301   22.0378 N   0  0  0  0  0  0
  -25.4523  -15.1854   20.3984 N   0  0  0  0  0  0
  -31.7996  -14.6656   20.0729 O   0  0  0  0  0  0
  -21.6641   -6.8904   21.4248 O   0  0  0  0  0  0
  -22.3666  -14.5612   20.6700 O   0  0  0  0  0  0
  -24.6101  -31.8755   23.2297 C   0  0  0  0  0  0
  -25.9034  -32.4893   23.8498 C   0  0  1  0  0  0
  -27.2044  -27.4507   20.0051 C   0  0  0  0  0  0
  -25.5957  -33.8677   24.2405 N   0  0  0  0  0  0
  -23.3971  -30.5032   21.5789 C   0  0  2  0  0  0
  -24.8318  -29.0032   20.1154 C   0  0  0  0  0  0
  -22.7464  -29.4539   22.5075 C   0  0  0  0  0  0
  -18.0319  -28.1223   22.8387 C   0  0  0  0  0  0
  -24.1476  -36.7377   23.2620 C   0  0  0  0  0  0
  -25.9332  -30.8133   21.4082 C   0  0  0  0  0  0
  -25.9933  -29.4493   20.7562 C   0  0  0  0  0  0
  -27.1683  -28.6527   20.7574 C   0  0  0  0  0  0
  -26.0777  -27.1713   19.2199 C   0  0  0  0  0  0
  -24.8614  -27.8446   19.3435 C   0  0  0  0  0  0
  -23.6050  -29.8726   20.1799 C   0  0  0  0  0  0
  -25.4082  -36.3153   24.0316 C   0  0  1  0  0  0
  -20.5939  -28.3475   23.1402 C   0  0  2  0  0  0
  -20.6781  -26.9222   22.5400 C   0  0  0  0  0  0
  -19.5889  -26.6609   21.5009 C   0  0  0  0  0  0
  -18.2047  -26.7870   22.1393 C   0  0  0  0  0  0
  -19.1551  -28.8636   23.2907 C   0  0  0  0  0  0
  -18.9470  -30.1220   23.8896 C   0  0  0  0  0  0
  -17.6462  -30.6303   24.0574 C   0  0  0  0  0  0
  -25.8998  -34.9535   23.5133 C   0  0  0  0  0  0
  -16.5354  -29.8823   23.6269 C   0  0  0  0  0  0
  -16.7257  -28.6276   23.0216 C   0  0  0  0  0  0
  -26.4440  -31.6685   25.0840 C   0  0  0  0  0  0
  -25.3692  -31.3847   26.1586 C   0  0  0  0  0  0
  -27.0255  -30.3114   24.6268 C   0  0  0  0  0  0
  -27.5992  -32.4398   25.7619 C   0  0  0  0  0  0
  -27.5563  -37.1845   24.8436 C   0  0  0  0  0  0
  -21.4207  -29.2821   22.3745 N   0  0  0  0  0  0
  -26.4293  -37.3809   23.9358 N   0  0  0  0  0  0
  -24.6679  -31.0793   22.1293 N   0  0  0  0  0  0
  -23.4241  -28.8174   23.3152 O   0  0  0  0  0  0
  -28.2970  -26.5999   19.9988 O   0  0  0  0  0  0
  -26.5509  -34.8940   22.4670 O   0  0  0  0  0  0
  -23.5279  -32.1561   23.7670 O   0  0  0  0  0  0
  -25.9992  -24.1753   18.9039 C   0  0  0  0  0  0
  -27.4044  -24.2685   19.1876 C   0  0  0  0  0  0
  -25.5603  -22.9049   19.0286 C   0  0  0  0  0  0
  -27.7717  -22.9734   19.4973 C   0  0  0  0  0  0
  -26.6369  -20.3000   23.9566 C   0  0  0  0  0  0
  -26.6790  -18.9264   23.2628 C   0  0  0  0  0  0
  -25.5522  -21.2183   23.3460 C   0  0  0  0  0  0
  -26.9432  -19.0533   21.7350 C   0  0  1  0  0  0
  -26.5371  -20.4842   21.2670 C   0  0  1  0  0  0
  -24.1579  -22.4208   18.7981 C   0  0  0  0  0  0
  -29.1473  -22.4554   19.8300 C   0  0  0  0  0  0
  -21.5699  -20.0006   22.3171 C   0  0  0  0  0  0
  -22.6944  -22.2397   22.4473 C   0  0  0  0  0  0
  -28.3524  -25.4957   19.0437 C   0  0  0  0  0  0
  -26.5667  -20.7101   19.7382 C   0  0  0  0  0  0
  -24.0817  -20.0967   21.7732 C   0  0  0  0  0  0
  -29.8902  -16.7332   20.8693 C   0  0  0  0  0  0
  -28.6626  -17.2659   21.6227 C   0  0  0  0  0  0
  -22.7193  -20.8607   21.7611 C   0  0  0  0  0  0
  -26.6358  -22.1383   19.4328 N   0  0  0  0  0  0
  -25.2850  -20.9451   21.9214 N   0  0  0  0  0  0
  -29.9489  -15.3086   21.1725 N   0  0  0  0  0  0
  -28.3533  -18.6964   21.4003 N   0  3  0  0  0  0
  -31.4743  -12.4021   19.0567 H   0  0  0  0  0  0
  -30.3631  -11.2425   19.7356 H   0  0  0  0  0  0
  -29.6951  -11.7925   17.3783 H   0  0  0  0  0  0
  -29.6624  -13.5001   17.7673 H   0  0  0  0  0  0
  -27.7725  -11.3392   18.7411 H   0  0  0  0  0  0
  -27.3601  -12.7493   17.7890 H   0  0  0  0  0  0
  -27.7448  -14.2485   19.6411 H   0  0  0  0  0  0
  -28.6766  -11.8488   21.2935 H   0  0  0  0  0  0
  -28.4910  -13.4570   21.9040 H   0  0  0  0  0  0
  -25.2791   -9.5649   22.4774 H   0  0  0  0  0  0
  -23.9982   -7.4649   22.7481 H   0  0  0  0  0  0
  -21.0869   -8.8863   19.8985 H   0  0  0  0  0  0
  -22.3781  -10.9721   19.6189 H   0  0  0  0  0  0
  -21.2016   -7.6150   23.9718 H   0  0  0  0  0  0
  -21.1479   -6.0532   25.9078 H   0  0  0  0  0  0
  -22.0597   -2.7615   23.2875 H   0  0  0  0  0  0
  -22.4151  -11.9914   22.4690 H   0  0  0  0  0  0
  -21.1205  -13.1366   22.2614 H   0  0  0  0  0  0
  -24.6653  -15.8232   20.4293 H   0  0  0  0  0  0
  -26.2402  -15.5526   19.8861 H   0  0  0  0  0  0
  -26.7118  -32.5550   23.1243 H   0  0  0  0  0  0
  -25.0236  -33.9897   25.0638 H   0  0  0  0  0  0
  -22.6789  -31.3148   21.4675 H   0  0  0  0  0  0
  -23.3717  -35.9738   23.3311 H   0  0  0  0  0  0
  -24.3589  -36.8955   22.2038 H   0  0  0  0  0  0
  -23.7283  -37.6607   23.6619 H   0  0  0  0  0  0
  -26.0407  -31.5686   20.6261 H   0  0  0  0  0  0
  -26.8306  -30.8682   22.0129 H   0  0  0  0  0  0
  -28.0459  -28.9591   21.3109 H   0  0  0  0  0  0
  -26.1841  -26.5388   18.3655 H   0  0  0  0  0  0
  -24.0150  -27.5745   18.7227 H   0  0  0  0  0  0
  -23.7546  -30.6725   19.4532 H   0  0  0  0  0  0
  -22.7260  -29.3123   19.8460 H   0  0  0  0  0  0
  -25.1255  -36.2028   25.0808 H   0  0  0  0  0  0
  -21.0069  -28.2928   24.1493 H   0  0  0  0  0  0
  -20.5220  -26.2105   23.3512 H   0  0  0  0  0  0
  -21.6602  -26.7042   22.1315 H   0  0  0  0  0  0
  -19.6891  -27.3903   20.6990 H   0  0  0  0  0  0
  -19.7108  -25.6782   21.0477 H   0  0  0  0  0  0
  -17.4474  -26.6398   21.3694 H   0  0  0  0  0  0
  -18.0519  -25.9977   22.8741 H   0  0  0  0  0  0
  -19.7958  -30.7124   24.2232 H   0  0  0  0  0  0
  -17.4925  -31.5950   24.5126 H   0  0  0  0  0  0
  -15.5374  -30.2769   23.7503 H   0  0  0  0  0  0
  -15.8663  -28.0650   22.6813 H   0  0  0  0  0  0
  -24.5892  -30.7124   25.8000 H   0  0  0  0  0  0
  -24.8870  -32.3038   26.4919 H   0  0  0  0  0  0
  -25.8052  -30.9161   27.0415 H   0  0  0  0  0  0
  -26.2838  -29.6901   24.1263 H   0  0  0  0  0  0
  -27.3898  -29.7293   25.4734 H   0  0  0  0  0  0
  -27.8705  -30.4384   23.9503 H   0  0  0  0  0  0
  -27.2598  -33.3670   26.2217 H   0  0  0  0  0  0
  -28.3842  -32.6977   25.0523 H   0  0  0  0  0  0
  -28.0623  -31.8530   26.5545 H   0  0  0  0  0  0
  -28.2553  -38.0154   24.7441 H   0  0  0  0  0  0
  -28.1071  -36.2677   24.6305 H   0  0  0  0  0  0
  -27.2278  -37.1560   25.8837 H   0  0  0  0  0  0
  -20.9352  -29.8529   21.6942 H   0  0  0  0  0  0
  -26.0182  -38.2868   24.1388 H   0  0  0  0  0  0
  -25.2713  -24.9053   18.5986 H   0  0  0  0  0  0
  -27.6149  -20.7750   23.8607 H   0  0  0  0  0  0
  -26.4727  -20.1954   25.0314 H   0  0  0  0  0  0
  -25.7352  -18.4091   23.4141 H   0  0  0  0  0  0
  -27.4052  -18.2909   23.7529 H   0  0  0  0  0  0
  -25.8835  -22.2546   23.4510 H   0  0  0  0  0  0
  -24.6406  -21.1384   23.9368 H   0  0  0  0  0  0
  -26.3105  -18.3364   21.2107 H   0  0  0  0  0  0
  -27.3092  -21.1606   21.6414 H   0  0  0  0  0  0
  -24.0763  -21.3635   18.5584 H   0  0  0  0  0  0
  -23.6923  -22.9598   17.9685 H   0  0  0  0  0  0
  -23.5498  -22.6142   19.6756 H   0  0  0  0  0  0
  -29.7623  -23.2331   20.2889 H   0  0  0  0  0  0
  -29.6686  -22.1453   18.9264 H   0  0  0  0  0  0
  -29.1442  -21.5972   20.5033 H   0  0  0  0  0  0
  -20.6195  -20.5387   22.2831 H   0  0  0  0  0  0
  -21.7439  -19.7189   23.3557 H   0  0  0  0  0  0
  -21.4425  -19.0844   21.7420 H   0  0  0  0  0  0
  -21.7680  -22.7693   22.2170 H   0  0  0  0  0  0
  -23.5068  -22.8754   22.1001 H   0  0  0  0  0  0
  -22.7640  -22.1559   23.5307 H   0  0  0  0  0  0
  -28.2426  -25.8888   18.0345 H   0  0  0  0  0  0
  -29.3788  -25.1287   19.0668 H   0  0  0  0  0  0
  -25.7186  -20.2327   19.2498 H   0  0  0  0  0  0
  -27.4448  -20.2389   19.2929 H   0  0  0  0  0  0
  -24.1379  -19.5190   20.8456 H   0  0  0  0  0  0
  -24.0445  -19.3474   22.5655 H   0  0  0  0  0  0
  -30.7958  -17.2454   21.1931 H   0  0  0  0  0  0
  -29.7809  -16.8726   19.7884 H   0  0  0  0  0  0
  -28.8297  -17.0956   22.6875 H   0  0  0  0  0  0
  -27.7962  -16.6640   21.3459 H   0  0  0  0  0  0
  -22.4732  -21.0289   20.7161 H   0  0  0  0  0  0
  -29.1107  -14.9174   21.5686 H   0  0  0  0  0  0
  -28.5395  -18.8966   20.4308 H   0  0  0  0  0  0
  -28.9929  -19.2471   21.9472 H   0  0  0  0  0  0
  1 25  1  0  0  0
  1 30  2  0  0  0
  1 92  1  0  0  0
  2  3  1  0  0  0
  2 25  1  0  0  0
  2 94  1  0  0  0
  2 95  1  0  0  0
  3  4  1  0  0  0
  3 96  1  0  0  0
  3 97  1  0  0  0
  4  5  1  0  0  0
  4 98  1  0  0  0
  4 99  1  0  0  0
  5  6  1  0  0  0
  5 26  1  0  0  0
  5100  1  0  0  0
  6 25  1  0  0  0
  6101  1  0  0  0
  6102  1  0  0  0
  7  8  2  0  0  0
  7 26  1  0  0  0
  7 29  1  0  0  0
  8  9  1  0  0  0
  8 22  1  0  0  0
  9 10  1  0  0  0
  9 27  2  0  0  0
 10 11  2  0  0  0
 10 15  1  0  0  0
 11 12  1  0  0  0
 11103  1  0  0  0
 12 13  2  0  0  0
 12104  1  0  0  0
 13 14  1  0  0  0
 13 31  1  0  0  0
 14 15  2  0  0  0
 14105  1  0  0  0
 15106  1  0  0  0
 16 17  2  0  0  0
 16 21  1  0  0  0
 16 31  1  0  0  0
 17 18  1  0  0  0
 17107  1  0  0  0
 18 19  2  0  0  0
 18108  1  0  0  0
 19 20  1  0  0  0
 19 24  1  0  0  0
 20 21  2  0  0  0
 20109  1  0  0  0
 21 23  1  0  0  0
 22 28  1  0  0  0
 22 32  2  0  0  0
 26 27  1  0  0  0
 28110  1  0  0  0
 28111  1  0  0  0
 29112  1  0  0  0
 29113  1  0  0  0
 33 34  1  0  0  0
 33 66  1  0  0  0
 33 70  2  0  0  0
 34 36  1  0  0  0
 34 59  1  0  0  0
 34114  1  0  0  0
 35 44  2  0  0  0
 35 45  1  0  0  0
 35 68  1  0  0  0
 36 56  1  0  0  0
 36115  1  0  0  0
 37 39  1  0  0  0
 37 47  1  0  0  0
 37 66  1  0  0  0
 37116  1  0  0  0
 38 43  2  0  0  0
 38 46  1  0  0  0
 38 47  1  0  0  0
 39 64  1  0  0  0
 39 67  2  0  0  0
 40 52  1  0  0  0
 40 53  2  0  0  0
 40 58  1  0  0  0
 41117  1  0  0  0
 41118  1  0  0  0
 41119  1  0  0  0
 41 48  1  0  0  0
 42 43  1  0  0  0
 42 66  1  0  0  0
 42120  1  0  0  0
 42121  1  0  0  0
 43 44  1  0  0  0
 44122  1  0  0  0
 45 46  2  0  0  0
 45123  1  0  0  0
 46124  1  0  0  0
 47125  1  0  0  0
 47126  1  0  0  0
 48 56  1  0  0  0
 48 65  1  0  0  0
 48127  1  0  0  0
 49 50  1  0  0  0
 49 53  1  0  0  0
 49 64  1  0  0  0
 49128  1  0  0  0
 50 51  1  0  0  0
 50129  1  0  0  0
 50130  1  0  0  0
 51 52  1  0  0  0
 51131  1  0  0  0
 51132  1  0  0  0
 52133  1  0  0  0
 52134  1  0  0  0
 53 54  1  0  0  0
 54 55  2  0  0  0
 54135  1  0  0  0
 55 57  1  0  0  0
 55136  1  0  0  0
 56 69  2  0  0  0
 57 58  2  0  0  0
 57137  1  0  0  0
 58138  1  0  0  0
 59 60  1  0  0  0
 59 61  1  0  0  0
 59 62  1  0  0  0
 60139  1  0  0  0
 60140  1  0  0  0
 60141  1  0  0  0
 61142  1  0  0  0
 61143  1  0  0  0
 61144  1  0  0  0
 62145  1  0  0  0
 62146  1  0  0  0
 62147  1  0  0  0
 63 65  1  0  0  0
 63148  1  0  0  0
 63149  1  0  0  0
 63150  1  0  0  0
 64151  1  0  0  0
 65152  1  0  0  0
 68 84  1  0  0  0
 71 72  1  0  0  0
 71 73  2  0  0  0
 71153  1  0  0  0
 72 74  2  0  0  0
 72 84  1  0  0  0
 73 80  1  0  0  0
 73 90  1  0  0  0
 74 81  1  0  0  0
 74 90  1  0  0  0
 75 76  1  0  0  0
 75 77  1  0  0  0
 75154  1  0  0  0
 75155  1  0  0  0
 76 78  1  0  0  0
 76156  1  0  0  0
 76157  1  0  0  0
 77 91  1  0  0  0
 77158  1  0  0  0
 77159  1  0  0  0
 78 79  1  0  0  0
 78 93  1  0  0  0
 78160  1  0  0  0
 79 85  1  0  0  0
 79 91  1  0  0  0
 79161  1  0  0  0
 80162  1  0  0  0
 80163  1  0  0  0
 80164  1  0  0  0
 81165  1  0  0  0
 81166  1  0  0  0
 81167  1  0  0  0
 82168  1  0  0  0
 82169  1  0  0  0
 82170  1  0  0  0
 82 89  1  0  0  0
 83 89  1  0  0  0
 83171  1  0  0  0
 83172  1  0  0  0
 83173  1  0  0  0
 84174  1  0  0  0
 84175  1  0  0  0
 85 90  1  0  0  0
 85176  1  0  0  0
 85177  1  0  0  0
 86 89  1  0  0  0
 86 91  1  0  0  0
 86178  1  0  0  0
 86179  1  0  0  0
 87 88  1  0  0  0
 87 92  1  0  0  0
 87180  1  0  0  0
 87181  1  0  0  0
 88 93  1  0  0  0
 88182  1  0  0  0
 88183  1  0  0  0
 89184  1  0  0  0
 92185  1  0  0  0
 93186  1  0  0  0
 93187  1  0  0  0
M  CHG  1  93   1
M  ISO  4   1 100  68 101  84 101  92 100
M  END
> <chiral flag>
0

> <version>
0

> <s_m_source_file>
/data/baiqing/PycharmProjects/Reinvent-master-3.2/result/LINK_invent/BTK/process_docking_weight1_custom_sum_contain_oxygen_bond_distance_aromatic_linkinvent_7_9_3/rearranged_h_0126.sdf

> <i_m_source_file_index>
6

> <r_mmod_Potential_Energy-OPLS-2005>
23.6362400054932

> <r_mmod_Stretch_Energy-OPLS-2005>
52.3295593261719

> <r_mmod_Bend_Energy-OPLS-2005>
152.993301391602

> <r_mmod_Torsional_Energy-OPLS-2005>
358.596099853516

> <r_mmod_Improper_Torsional_Energy-OPLS-2005>
9.01571846008301

> <r_mmod_Van_der_Waal_Energy-OPLS-2005>
177.210601806641

> <r_mmod_Electrostatic_Energy-OPLS-2005>
-255.692337036133

> <r_mmod_Solvation_Energy-OPLS-2005>
-505.291534423828

> <b_mmod_Minimization_Converged-OPLS-2005>
0

> <r_mmod_RMS_Derivative-OPLS-2005>
9.44612216949463

$$$$
6
                    3D
 Structure written by MMmdl.
167176  0  0  1  0            999 V2000
  -30.6890  -14.3981   20.5183 C   0  0  0  0  0  0
  -30.3859  -12.2378   19.4201 C   0  0  0  0  0  0
  -29.4704  -12.5082   18.2096 C   0  0  0  0  0  0
  -27.9884  -12.3759   18.6138 C   0  0  0  0  0  0
  -27.6515  -13.2041   19.8790 C   0  0  2  0  0  0
  -28.6890  -12.9480   21.0033 C   0  0  0  0  0  0
  -25.2506  -13.8207   20.5648 C   0  0  0  0  0  0
  -24.1767  -13.0462   20.9243 C   0  0  0  0  0  0
  -24.6372  -11.6963   20.8815 C   0  0  0  0  0  0
  -23.9062  -10.4302   21.0460 C   0  0  0  0  0  0
  -24.3596   -9.4224   21.9232 C   0  0  0  0  0  0
  -23.6290   -8.2245   22.0761 C   0  0  0  0  0  0
  -22.4281   -8.0279   21.3553 C   0  0  0  0  0  0
  -21.9919   -9.0282   20.4664 C   0  0  0  0  0  0
  -22.7258  -10.2154   20.3091 C   0  0  0  0  0  0
  -21.6833   -6.0778   22.5305 C   0  0  0  0  0  0
  -21.4013   -6.5691   23.8251 C   0  0  0  0  0  0
  -21.3617   -5.6834   24.9198 C   0  0  0  0  0  0
  -21.6001   -4.3102   24.7258 C   0  0  0  0  0  0
  -21.8807   -3.8205   23.4403 C   0  0  0  0  0  0
  -21.9160   -4.7009   22.3442 C   0  0  0  0  0  0
  -22.7787  -13.5221   21.1936 C   0  0  0  0  0  0
  -22.1619   -4.2206   21.1032 F   0  0  0  0  0  0
  -21.5606   -3.4582   25.7783 F   0  0  0  0  0  0
  -30.0330  -13.2120   20.4596 N   0  0  0  0  0  0
  -26.2922  -12.9355   20.3353 N   0  0  0  0  0  0
  -25.9270  -11.6524   20.5807 N   0  0  0  0  0  0
  -22.0407  -12.8150   22.0466 N   0  0  0  0  0  0
  -25.4283  -15.1899   20.4048 N   0  0  0  0  0  0
  -31.8244  -14.5596   20.0675 O   0  0  0  0  0  0
  -21.6614   -6.8922   21.4264 O   0  0  0  0  0  0
  -22.3480  -14.5513   20.6785 O   0  0  0  0  0  0
  -24.6116  -31.8696   23.2126 C   0  0  0  0  0  0
  -25.9079  -32.4804   23.8404 C   0  0  1  0  0  0
  -27.2402  -27.4778   20.1593 C   0  0  0  0  0  0
  -25.5970  -33.8593   24.2366 N   0  0  0  0  0  0
  -23.3923  -30.4972   21.5430 C   0  0  2  0  0  0
  -24.8454  -28.9599   20.1154 C   0  0  0  0  0  0
  -22.7326  -29.4725   22.4932 C   0  0  0  0  0  0
  -18.0253  -28.1413   22.8519 C   0  0  0  0  0  0
  -24.1485  -36.7304   23.2633 C   0  0  0  0  0  0
  -25.9059  -30.8633   21.3432 C   0  0  0  0  0  0
  -25.9913  -29.4899   20.7204 C   0  0  0  0  0  0
  -27.1868  -28.7555   20.7494 C   0  0  0  0  0  0
  -26.0874  -26.9489   19.5423 C   0  0  0  0  0  0
  -24.8834  -27.6848   19.5236 C   0  0  0  0  0  0
  -23.6034  -29.8241   20.1569 C   0  0  0  0  0  0
  -25.4090  -36.3083   24.0349 C   0  0  1  0  0  0
  -20.5818  -28.3696   23.1291 C   0  0  2  0  0  0
  -20.6751  -26.9426   22.5397 C   0  0  0  0  0  0
  -19.5726  -26.6418   21.5207 C   0  0  0  0  0  0
  -18.1891  -26.7980   22.1601 C   0  0  0  0  0  0
  -19.1501  -28.8856   23.2926 C   0  0  0  0  0  0
  -18.9469  -30.1468   23.8942 C   0  0  0  0  0  0
  -17.6482  -30.6633   24.0579 C   0  0  0  0  0  0
  -25.9029  -34.9458   23.5133 C   0  0  0  0  0  0
  -16.5362  -29.9127   23.6340 C   0  0  0  0  0  0
  -16.7255  -28.6530   23.0392 C   0  0  0  0  0  0
  -26.4550  -31.6533   25.0704 C   0  0  0  0  0  0
  -25.3807  -31.3564   26.1420 C   0  0  0  0  0  0
  -27.0445  -30.2991   24.6070 C   0  0  0  0  0  0
  -27.6161  -32.4202   25.7472 C   0  0  0  0  0  0
  -27.5571  -37.1782   24.8468 C   0  0  0  0  0  0
  -21.4052  -29.3081   22.3670 N   0  0  0  0  0  0
  -26.4244  -37.3793   23.9497 N   0  0  0  0  0  0
  -24.6536  -31.0900   22.0962 N   0  0  0  0  0  0
  -23.4113  -28.8281   23.2977 O   0  0  0  0  0  0
  -28.3797  -26.7230   20.1524 O   0  0  0  0  0  0
  -26.5529  -34.8914   22.4665 O   0  0  0  0  0  0
  -23.5327  -32.1430   23.7573 O   0  0  0  0  0  0
  -31.1911  -18.9101   21.9373 C   0  0  0  0  0  0
  -31.0852  -20.1690   22.5534 C   0  0  0  0  0  0
  -31.0939  -18.8302   20.5326 C   0  0  0  0  0  0
  -30.9023  -21.3026   21.7397 C   0  0  0  0  0  0
  -30.9192  -20.0230   19.8041 C   0  0  0  0  0  0
  -29.0996  -23.0123   21.9976 C   0  0  0  0  0  0
  -31.5904  -23.7622   21.8631 C   0  0  0  0  0  0
  -28.7283  -24.4814   22.2243 C   0  0  0  0  0  0
  -31.1084  -25.1949   22.1665 C   0  0  0  0  0  0
  -30.5794  -22.6752   22.3211 C   0  0  2  0  0  0
  -29.7419  -25.3734   21.4909 C   0  0  2  0  0  0
  -31.1537  -17.4671   19.8749 C   0  0  0  0  0  0
  -29.2485  -26.8093   21.2901 C   0  0  0  0  0  0
  -29.8337  -16.6819   20.0610 C   0  0  0  0  0  0
  -30.8554  -21.2210   20.3898 N   0  0  0  0  0  0
  -30.7411  -20.0651   18.4282 N   0  0  0  0  0  0
  -29.9074  -15.4373   20.8382 N   0  0  0  0  0  0
  -31.4340  -12.2779   19.1307 H   0  0  0  0  0  0
  -30.2222  -11.2223   19.7819 H   0  0  0  0  0  0
  -29.6959  -11.8054   17.4099 H   0  0  0  0  0  0
  -29.6616  -13.5040   17.8044 H   0  0  0  0  0  0
  -27.7940  -11.3212   18.8032 H   0  0  0  0  0  0
  -27.3338  -12.6516   17.7881 H   0  0  0  0  0  0
  -27.7052  -14.2542   19.5937 H   0  0  0  0  0  0
  -28.6289  -11.9128   21.3420 H   0  0  0  0  0  0
  -28.4683  -13.5555   21.8841 H   0  0  0  0  0  0
  -25.2721   -9.5724   22.4827 H   0  0  0  0  0  0
  -24.0008   -7.4626   22.7457 H   0  0  0  0  0  0
  -21.0849   -8.8849   19.8964 H   0  0  0  0  0  0
  -22.3767  -10.9705   19.6211 H   0  0  0  0  0  0
  -21.2052   -7.6208   23.9802 H   0  0  0  0  0  0
  -21.1393   -6.0567   25.9088 H   0  0  0  0  0  0
  -22.0604   -2.7674   23.2925 H   0  0  0  0  0  0
  -22.3968  -11.9726   22.4705 H   0  0  0  0  0  0
  -21.1067  -13.1233   22.2758 H   0  0  0  0  0  0
  -24.6677  -15.8562   20.4967 H   0  0  0  0  0  0
  -26.2907  -15.6079   20.0686 H   0  0  0  0  0  0
  -26.7157  -32.5596   23.1182 H   0  0  0  0  0  0
  -25.0309  -33.9756   25.0635 H   0  0  0  0  0  0
  -22.6881  -31.3172   21.4007 H   0  0  0  0  0  0
  -23.3734  -35.9635   23.3222 H   0  0  0  0  0  0
  -24.3601  -36.8997   22.2061 H   0  0  0  0  0  0
  -23.7200  -37.6483   23.6681 H   0  0  0  0  0  0
  -25.9827  -31.6129   20.5504 H   0  0  0  0  0  0
  -26.8037  -30.9469   21.9450 H   0  0  0  0  0  0
  -28.0634  -29.1770   21.2217 H   0  0  0  0  0  0
  -26.1190  -25.9641   19.0999 H   0  0  0  0  0  0
  -23.9983  -27.2672   19.0679 H   0  0  0  0  0  0
  -23.7187  -30.5975   19.3963 H   0  0  0  0  0  0
  -22.7278  -29.2469   19.8564 H   0  0  0  0  0  0
  -25.1221  -36.1913   25.0818 H   0  0  0  0  0  0
  -20.9973  -28.3302   24.1391 H   0  0  0  0  0  0
  -20.5654  -26.2331   23.3598 H   0  0  0  0  0  0
  -21.6625  -26.7487   22.1194 H   0  0  0  0  0  0
  -19.6899  -25.6330   21.1248 H   0  0  0  0  0  0
  -19.6681  -27.3206   20.6711 H   0  0  0  0  0  0
  -17.4170  -26.6772   21.3976 H   0  0  0  0  0  0
  -18.0277  -26.0097   22.8958 H   0  0  0  0  0  0
  -19.7941  -30.7275   24.2314 H   0  0  0  0  0  0
  -17.5034  -31.6323   24.5174 H   0  0  0  0  0  0
  -15.5351  -30.3060   23.7679 H   0  0  0  0  0  0
  -15.8644  -28.0859   22.7138 H   0  0  0  0  0  0
  -24.6129  -30.6742   25.7719 H   0  0  0  0  0  0
  -24.8824  -32.2668   26.4757 H   0  0  0  0  0  0
  -25.8182  -30.8846   27.0224 H   0  0  0  0  0  0
  -26.2986  -29.6593   24.1315 H   0  0  0  0  0  0
  -27.4442  -29.7375   25.4534 H   0  0  0  0  0  0
  -27.8698  -30.4341   23.9060 H   0  0  0  0  0  0
  -27.2891  -33.3561   26.1984 H   0  0  0  0  0  0
  -28.4037  -32.6582   25.0314 H   0  0  0  0  0  0
  -28.0729  -31.8301   26.5428 H   0  0  0  0  0  0
  -28.2474  -38.0187   24.7628 H   0  0  0  0  0  0
  -28.1158  -36.2710   24.6104 H   0  0  0  0  0  0
  -27.2322  -37.1218   25.8870 H   0  0  0  0  0  0
  -20.9188  -29.8832   21.6935 H   0  0  0  0  0  0
  -26.0100  -38.2830   24.1619 H   0  0  0  0  0  0
  -31.2944  -18.0130   22.5314 H   0  0  0  0  0  0
  -31.1034  -20.2475   23.6305 H   0  0  0  0  0  0
  -28.8908  -22.7829   20.9533 H   0  0  0  0  0  0
  -28.4432  -22.3587   22.5698 H   0  0  0  0  0  0
  -32.5709  -23.5786   22.3027 H   0  0  0  0  0  0
  -31.7362  -23.7017   20.7835 H   0  0  0  0  0  0
  -28.7030  -24.7056   23.2917 H   0  0  0  0  0  0
  -27.7208  -24.6644   21.8463 H   0  0  0  0  0  0
  -31.8264  -25.9198   21.7835 H   0  0  0  0  0  0
  -31.0516  -25.3570   23.2459 H   0  0  0  0  0  0
  -30.6600  -22.6168   23.4085 H   0  0  0  0  0  0
  -29.8557  -24.9919   20.4741 H   0  0  0  0  0  0
  -32.0176  -16.9480   20.2851 H   0  0  0  0  0  0
  -31.3609  -17.5753   18.8088 H   0  0  0  0  0  0
  -30.0795  -27.4769   21.0562 H   0  0  0  0  0  0
  -28.7684  -27.1755   22.2023 H   0  0  0  0  0  0
  -29.4505  -16.4055   19.0773 H   0  0  0  0  0  0
  -29.0557  -17.3213   20.4834 H   0  0  0  0  0  0
  -30.4512  -19.2275   17.9453 H   0  0  0  0  0  0
  -30.2874  -20.8932   18.0602 H   0  0  0  0  0  0
  -29.0514  -15.1779   21.3022 H   0  0  0  0  0  0
  1 25  1  0  0  0
  1 30  2  0  0  0
  1 87  1  0  0  0
  2  3  1  0  0  0
  2 25  1  0  0  0
  2 88  1  0  0  0
  2 89  1  0  0  0
  3  4  1  0  0  0
  3 90  1  0  0  0
  3 91  1  0  0  0
  4  5  1  0  0  0
  4 92  1  0  0  0
  4 93  1  0  0  0
  5  6  1  0  0  0
  5 26  1  0  0  0
  5 94  1  0  0  0
  6 25  1  0  0  0
  6 95  1  0  0  0
  6 96  1  0  0  0
  7  8  2  0  0  0
  7 26  1  0  0  0
  7 29  1  0  0  0
  8  9  1  0  0  0
  8 22  1  0  0  0
  9 10  1  0  0  0
  9 27  2  0  0  0
 10 11  2  0  0  0
 10 15  1  0  0  0
 11 12  1  0  0  0
 11 97  1  0  0  0
 12 13  2  0  0  0
 12 98  1  0  0  0
 13 14  1  0  0  0
 13 31  1  0  0  0
 14 15  2  0  0  0
 14 99  1  0  0  0
 15100  1  0  0  0
 16 17  2  0  0  0
 16 21  1  0  0  0
 16 31  1  0  0  0
 17 18  1  0  0  0
 17101  1  0  0  0
 18 19  2  0  0  0
 18102  1  0  0  0
 19 20  1  0  0  0
 19 24  1  0  0  0
 20 21  2  0  0  0
 20103  1  0  0  0
 21 23  1  0  0  0
 22 28  1  0  0  0
 22 32  2  0  0  0
 26 27  1  0  0  0
 28104  1  0  0  0
 28105  1  0  0  0
 29106  1  0  0  0
 29107  1  0  0  0
 33 34  1  0  0  0
 33 66  1  0  0  0
 33 70  2  0  0  0
 34 36  1  0  0  0
 34 59  1  0  0  0
 34108  1  0  0  0
 35 44  2  0  0  0
 35 45  1  0  0  0
 35 68  1  0  0  0
 36 56  1  0  0  0
 36109  1  0  0  0
 37 39  1  0  0  0
 37 47  1  0  0  0
 37 66  1  0  0  0
 37110  1  0  0  0
 38 43  2  0  0  0
 38 46  1  0  0  0
 38 47  1  0  0  0
 39 64  1  0  0  0
 39 67  2  0  0  0
 40 52  1  0  0  0
 40 53  2  0  0  0
 40 58  1  0  0  0
 41111  1  0  0  0
 41112  1  0  0  0
 41113  1  0  0  0
 41 48  1  0  0  0
 42 43  1  0  0  0
 42 66  1  0  0  0
 42114  1  0  0  0
 42115  1  0  0  0
 43 44  1  0  0  0
 44116  1  0  0  0
 45 46  2  0  0  0
 45117  1  0  0  0
 46118  1  0  0  0
 47119  1  0  0  0
 47120  1  0  0  0
 48 56  1  0  0  0
 48 65  1  0  0  0
 48121  1  0  0  0
 49 50  1  0  0  0
 49 53  1  0  0  0
 49 64  1  0  0  0
 49122  1  0  0  0
 50 51  1  0  0  0
 50123  1  0  0  0
 50124  1  0  0  0
 51 52  1  0  0  0
 51125  1  0  0  0
 51126  1  0  0  0
 52127  1  0  0  0
 52128  1  0  0  0
 53 54  1  0  0  0
 54 55  2  0  0  0
 54129  1  0  0  0
 55 57  1  0  0  0
 55130  1  0  0  0
 56 69  2  0  0  0
 57 58  2  0  0  0
 57131  1  0  0  0
 58132  1  0  0  0
 59 60  1  0  0  0
 59 61  1  0  0  0
 59 62  1  0  0  0
 60133  1  0  0  0
 60134  1  0  0  0
 60135  1  0  0  0
 61136  1  0  0  0
 61137  1  0  0  0
 61138  1  0  0  0
 62139  1  0  0  0
 62140  1  0  0  0
 62141  1  0  0  0
 63 65  1  0  0  0
 63142  1  0  0  0
 63143  1  0  0  0
 63144  1  0  0  0
 64145  1  0  0  0
 65146  1  0  0  0
 68 83  1  0  0  0
 71 72  2  0  0  0
 71 73  1  0  0  0
 71147  1  0  0  0
 72 74  1  0  0  0
 72148  1  0  0  0
 73 75  2  0  0  0
 73 82  1  0  0  0
 74 85  2  0  0  0
 74 80  1  0  0  0
 75 85  1  0  0  0
 75 86  1  0  0  0
 76 78  1  0  0  0
 76 80  1  0  0  0
 76149  1  0  0  0
 76150  1  0  0  0
 77 79  1  0  0  0
 77 80  1  0  0  0
 77151  1  0  0  0
 77152  1  0  0  0
 78 81  1  0  0  0
 78153  1  0  0  0
 78154  1  0  0  0
 79 81  1  0  0  0
 79155  1  0  0  0
 79156  1  0  0  0
 80157  1  0  0  0
 81 83  1  0  0  0
 81158  1  0  0  0
 82 84  1  0  0  0
 82159  1  0  0  0
 82160  1  0  0  0
 83161  1  0  0  0
 83162  1  0  0  0
 84 87  1  0  0  0
 84163  1  0  0  0
 84164  1  0  0  0
 86165  1  0  0  0
 86166  1  0  0  0
 87167  1  0  0  0
M  ISO  4   1 100  68 101  83 101  87 100
M  END
> <chiral flag>
0

> <version>
0

> <s_m_source_file>
/data/baiqing/PycharmProjects/Reinvent-master-3.2/result/LINK_invent/BTK/process_docking_weight1_custom_sum_contain_oxygen_bond_distance_aromatic_linkinvent_7_9_3/rearranged_h_0126.sdf

> <i_m_source_file_index>
7

> <r_mmod_Potential_Energy-OPLS-2005>
-302.873474121094

> <r_mmod_Stretch_Energy-OPLS-2005>
32.5895080566406

> <r_mmod_Bend_Energy-OPLS-2005>
114.94140625

> <r_mmod_Torsional_Energy-OPLS-2005>
268.13330078125

> <r_mmod_Improper_Torsional_Energy-OPLS-2005>
13.7757806777954

> <r_mmod_Van_der_Waal_Energy-OPLS-2005>
172.370223999023

> <r_mmod_Electrostatic_Energy-OPLS-2005>
-690.65087890625

> <r_mmod_Solvation_Energy-OPLS-2005>
-226.353256225586

> <b_mmod_Minimization_Converged-OPLS-2005>
0

> <r_mmod_RMS_Derivative-OPLS-2005>
7.0187292098999

$$$$
7
                    3D
 Structure written by MMmdl.
161169  0  0  1  0            999 V2000
  -30.8056  -14.3207   20.7142 C   0  0  0  0  0  0
  -30.4156  -12.2816   19.3910 C   0  0  0  0  0  0
  -29.4828  -12.5355   18.1936 C   0  0  0  0  0  0
  -28.0086  -12.3846   18.6103 C   0  0  0  0  0  0
  -27.6684  -13.2020   19.8832 C   0  0  2  0  0  0
  -28.7075  -12.9445   20.9991 C   0  0  0  0  0  0
  -25.2599  -13.8157   20.5666 C   0  0  0  0  0  0
  -24.1847  -13.0446   20.9182 C   0  0  0  0  0  0
  -24.6398  -11.6913   20.8740 C   0  0  0  0  0  0
  -23.9068  -10.4297   21.0403 C   0  0  0  0  0  0
  -24.3621   -9.4211   21.9181 C   0  0  0  0  0  0
  -23.6295   -8.2249   22.0749 C   0  0  0  0  0  0
  -22.4279   -8.0286   21.3539 C   0  0  0  0  0  0
  -21.9918   -9.0261   20.4642 C   0  0  0  0  0  0
  -22.7247  -10.2140   20.3048 C   0  0  0  0  0  0
  -21.6848   -6.0746   22.5284 C   0  0  0  0  0  0
  -21.4014   -6.5644   23.8219 C   0  0  0  0  0  0
  -21.3660   -5.6791   24.9178 C   0  0  0  0  0  0
  -21.6044   -4.3054   24.7224 C   0  0  0  0  0  0
  -21.8820   -3.8154   23.4341 C   0  0  0  0  0  0
  -21.9192   -4.6974   22.3401 C   0  0  0  0  0  0
  -22.7868  -13.5245   21.1850 C   0  0  0  0  0  0
  -22.1659   -4.2162   21.0976 F   0  0  0  0  0  0
  -21.5633   -3.4536   25.7734 F   0  0  0  0  0  0
  -30.0588  -13.2163   20.4668 N   0  0  0  0  0  0
  -26.3049  -12.9325   20.3393 N   0  0  0  0  0  0
  -25.9323  -11.6483   20.5778 N   0  0  0  0  0  0
  -22.0505  -12.8222   22.0392 N   0  0  0  0  0  0
  -25.4309  -15.1877   20.4026 N   0  0  0  0  0  0
  -31.7770  -14.6624   20.0350 O   0  0  0  0  0  0
  -21.6635   -6.8891   21.4245 O   0  0  0  0  0  0
  -22.3556  -14.5558   20.6710 O   0  0  0  0  0  0
  -24.6121  -31.8712   23.2126 C   0  0  0  0  0  0
  -25.9029  -32.4837   23.8383 C   0  0  1  0  0  0
  -27.2430  -27.4754   20.1010 C   0  0  0  0  0  0
  -25.5929  -33.8630   24.2357 N   0  0  0  0  0  0
  -23.3970  -30.4953   21.5516 C   0  0  2  0  0  0
  -24.8466  -28.9612   20.1200 C   0  0  0  0  0  0
  -22.7374  -29.4701   22.5022 C   0  0  0  0  0  0
  -18.0262  -28.1381   22.8479 C   0  0  0  0  0  0
  -24.1499  -36.7301   23.2634 C   0  0  0  0  0  0
  -25.9179  -30.8551   21.3500 C   0  0  0  0  0  0
  -26.0027  -29.4858   20.7141 C   0  0  0  0  0  0
  -27.2044  -28.7472   20.7090 C   0  0  0  0  0  0
  -26.0798  -26.9576   19.4969 C   0  0  0  0  0  0
  -24.8778  -27.6935   19.5114 C   0  0  0  0  0  0
  -23.6021  -29.8208   20.1693 C   0  0  0  0  0  0
  -25.4098  -36.3087   24.0345 C   0  0  1  0  0  0
  -20.5854  -28.3657   23.1335 C   0  0  2  0  0  0
  -20.6749  -26.9402   22.5412 C   0  0  0  0  0  0
  -19.5753  -26.6393   21.5194 C   0  0  0  0  0  0
  -18.1919  -26.7932   22.1600 C   0  0  0  0  0  0
  -19.1508  -28.8828   23.2920 C   0  0  0  0  0  0
  -18.9441  -30.1431   23.8937 C   0  0  0  0  0  0
  -17.6447  -30.6591   24.0553 C   0  0  0  0  0  0
  -25.9038  -34.9468   23.5127 C   0  0  0  0  0  0
  -16.5338  -29.9071   23.6346 C   0  0  0  0  0  0
  -16.7245  -28.6498   23.0349 C   0  0  0  0  0  0
  -26.4480  -31.6581   25.0680 C   0  0  0  0  0  0
  -25.3773  -31.3627   26.1445 C   0  0  0  0  0  0
  -27.0313  -30.3054   24.5951 C   0  0  0  0  0  0
  -27.6087  -32.4252   25.7417 C   0  0  0  0  0  0
  -27.5576  -37.1769   24.8476 C   0  0  0  0  0  0
  -21.4116  -29.3043   22.3748 N   0  0  0  0  0  0
  -26.4273  -37.3778   23.9443 N   0  0  0  0  0  0
  -24.6604  -31.0870   22.0978 N   0  0  0  0  0  0
  -23.4160  -28.8250   23.3060 O   0  0  0  0  0  0
  -28.4098  -26.7567   20.0488 O   0  0  0  0  0  0
  -26.5575  -34.8918   22.4678 O   0  0  0  0  0  0
  -23.5332  -32.1416   23.7584 O   0  0  0  0  0  0
  -27.9594  -20.2553   21.2792 C   0  0  0  0  0  0
  -30.1809  -21.0464   20.6599 C   0  0  0  0  0  0
  -27.6770  -21.5025   21.8692 C   0  0  0  0  0  0
  -29.8902  -22.3026   21.2285 C   0  0  0  0  0  0
  -29.2106  -20.0233   20.6676 C   0  0  0  0  0  0
  -28.6343  -22.5359   21.8261 C   0  0  0  0  0  0
  -29.4909  -18.6906   19.9896 C   0  0  0  0  0  0
  -31.1621  -16.1641   22.3630 C   0  0  0  0  0  0
  -27.9214  -24.7045   21.2374 C   0  0  0  0  0  0
  -31.0418  -17.4427   21.5043 C   0  0  0  0  0  0
  -28.7131  -26.0224   21.2310 C   0  0  0  0  0  0
  -28.3140  -23.8023   22.3182 N   0  0  0  0  0  0
  -30.4475  -15.0112   21.8029 N   0  0  0  0  0  0
  -29.6736  -17.6097   20.9708 N   0  3  0  0  0  0
  -31.4591  -12.3804   19.0853 H   0  0  0  0  0  0
  -30.3089  -11.2563   19.7494 H   0  0  0  0  0  0
  -29.7163  -11.8463   17.3809 H   0  0  0  0  0  0
  -29.6500  -13.5407   17.8029 H   0  0  0  0  0  0
  -27.8147  -11.3253   18.7848 H   0  0  0  0  0  0
  -27.3546  -12.6827   17.7899 H   0  0  0  0  0  0
  -27.7273  -14.2565   19.6128 H   0  0  0  0  0  0
  -28.6581  -11.9047   21.3266 H   0  0  0  0  0  0
  -28.4540  -13.5346   21.8802 H   0  0  0  0  0  0
  -25.2772   -9.5688   22.4746 H   0  0  0  0  0  0
  -24.0014   -7.4637   22.7457 H   0  0  0  0  0  0
  -21.0858   -8.8785   19.8930 H   0  0  0  0  0  0
  -22.3721  -10.9681   19.6148 H   0  0  0  0  0  0
  -21.1996   -7.6149   23.9732 H   0  0  0  0  0  0
  -21.1483   -6.0514   25.9084 H   0  0  0  0  0  0
  -22.0594   -2.7616   23.2834 H   0  0  0  0  0  0
  -22.4112  -11.9870   22.4761 H   0  0  0  0  0  0
  -21.1121  -13.1238   22.2602 H   0  0  0  0  0  0
  -24.6562  -15.8375   20.4848 H   0  0  0  0  0  0
  -26.2689  -15.6166   20.0330 H   0  0  0  0  0  0
  -26.7101  -32.5589   23.1160 H   0  0  0  0  0  0
  -25.0143  -33.9814   25.0532 H   0  0  0  0  0  0
  -22.6879  -31.3145   21.4116 H   0  0  0  0  0  0
  -23.3748  -35.9648   23.3284 H   0  0  0  0  0  0
  -24.3612  -36.8918   22.2054 H   0  0  0  0  0  0
  -23.7263  -37.6505   23.6649 H   0  0  0  0  0  0
  -26.0037  -31.6093   20.5666 H   0  0  0  0  0  0
  -26.8178  -30.9361   21.9455 H   0  0  0  0  0  0
  -28.1019  -29.1511   21.1605 H   0  0  0  0  0  0
  -26.1061  -25.9890   19.0194 H   0  0  0  0  0  0
  -23.9892  -27.2884   19.0483 H   0  0  0  0  0  0
  -23.6930  -30.5900   19.4024 H   0  0  0  0  0  0
  -22.7290  -29.2297   19.8869 H   0  0  0  0  0  0
  -25.1249  -36.1919   25.0826 H   0  0  0  0  0  0
  -20.9949  -28.3198   24.1467 H   0  0  0  0  0  0
  -20.5670  -26.2257   23.3588 H   0  0  0  0  0  0
  -21.6619  -26.7481   22.1222 H   0  0  0  0  0  0
  -19.6951  -25.6317   21.1218 H   0  0  0  0  0  0
  -19.6713  -27.3221   20.6738 H   0  0  0  0  0  0
  -17.4206  -26.6699   21.3981 H   0  0  0  0  0  0
  -18.0307  -26.0061   22.8980 H   0  0  0  0  0  0
  -19.7917  -30.7203   24.2368 H   0  0  0  0  0  0
  -17.5014  -31.6303   24.5099 H   0  0  0  0  0  0
  -15.5349  -30.2970   23.7691 H   0  0  0  0  0  0
  -15.8639  -28.0825   22.7051 H   0  0  0  0  0  0
  -24.6032  -30.6854   25.7790 H   0  0  0  0  0  0
  -24.8832  -32.2730   26.4841 H   0  0  0  0  0  0
  -25.8168  -30.8872   27.0224 H   0  0  0  0  0  0
  -26.2789  -29.6765   24.1157 H   0  0  0  0  0  0
  -27.4332  -29.7325   25.4313 H   0  0  0  0  0  0
  -27.8505  -30.4444   23.8890 H   0  0  0  0  0  0
  -27.2790  -33.3591   26.1986 H   0  0  0  0  0  0
  -28.3896  -32.6741   25.0208 H   0  0  0  0  0  0
  -28.0746  -31.8344   26.5318 H   0  0  0  0  0  0
  -28.2565  -38.0093   24.7551 H   0  0  0  0  0  0
  -28.1108  -36.2632   24.6243 H   0  0  0  0  0  0
  -27.2342  -37.1338   25.8893 H   0  0  0  0  0  0
  -20.9284  -29.8725   21.6932 H   0  0  0  0  0  0
  -26.0161  -38.2855   24.1444 H   0  0  0  0  0  0
  -27.2028  -19.4825   21.2836 H   0  0  0  0  0  0
  -31.1433  -20.8831   20.1948 H   0  0  0  0  0  0
  -26.7061  -21.6652   22.3187 H   0  0  0  0  0  0
  -30.6329  -23.0873   21.1907 H   0  0  0  0  0  0
  -30.3479  -18.7611   19.3177 H   0  0  0  0  0  0
  -28.6366  -18.4413   19.3599 H   0  0  0  0  0  0
  -30.7428  -16.3564   23.3513 H   0  0  0  0  0  0
  -32.2136  -15.9163   22.5237 H   0  0  0  0  0  0
  -28.0332  -24.2241   20.2616 H   0  0  0  0  0  0
  -26.8576  -24.9204   21.3470 H   0  0  0  0  0  0
  -31.7495  -17.3837   20.6762 H   0  0  0  0  0  0
  -31.3274  -18.3179   22.0916 H   0  0  0  0  0  0
  -29.7851  -25.8174   21.2301 H   0  0  0  0  0  0
  -28.5139  -26.6053   22.1324 H   0  0  0  0  0  0
  -27.5954  -23.7691   23.0373 H   0  0  0  0  0  0
  -29.6983  -14.6151   22.3523 H   0  0  0  0  0  0
  -29.4312  -16.7526   20.5059 H   0  0  0  0  0  0
  -29.0276  -17.7421   21.7313 H   0  0  0  0  0  0
  1 25  1  0  0  0
  1 30  2  0  0  0
  1 83  1  0  0  0
  2  3  1  0  0  0
  2 25  1  0  0  0
  2 85  1  0  0  0
  2 86  1  0  0  0
  3  4  1  0  0  0
  3 87  1  0  0  0
  3 88  1  0  0  0
  4  5  1  0  0  0
  4 89  1  0  0  0
  4 90  1  0  0  0
  5  6  1  0  0  0
  5 26  1  0  0  0
  5 91  1  0  0  0
  6 25  1  0  0  0
  6 92  1  0  0  0
  6 93  1  0  0  0
  7  8  2  0  0  0
  7 26  1  0  0  0
  7 29  1  0  0  0
  8  9  1  0  0  0
  8 22  1  0  0  0
  9 10  1  0  0  0
  9 27  2  0  0  0
 10 11  2  0  0  0
 10 15  1  0  0  0
 11 12  1  0  0  0
 11 94  1  0  0  0
 12 13  2  0  0  0
 12 95  1  0  0  0
 13 14  1  0  0  0
 13 31  1  0  0  0
 14 15  2  0  0  0
 14 96  1  0  0  0
 15 97  1  0  0  0
 16 17  2  0  0  0
 16 21  1  0  0  0
 16 31  1  0  0  0
 17 18  1  0  0  0
 17 98  1  0  0  0
 18 19  2  0  0  0
 18 99  1  0  0  0
 19 20  1  0  0  0
 19 24  1  0  0  0
 20 21  2  0  0  0
 20100  1  0  0  0
 21 23  1  0  0  0
 22 28  1  0  0  0
 22 32  2  0  0  0
 26 27  1  0  0  0
 28101  1  0  0  0
 28102  1  0  0  0
 29103  1  0  0  0
 29104  1  0  0  0
 33 34  1  0  0  0
 33 66  1  0  0  0
 33 70  2  0  0  0
 34 36  1  0  0  0
 34 59  1  0  0  0
 34105  1  0  0  0
 35 44  2  0  0  0
 35 45  1  0  0  0
 35 68  1  0  0  0
 36 56  1  0  0  0
 36106  1  0  0  0
 37 39  1  0  0  0
 37 47  1  0  0  0
 37 66  1  0  0  0
 37107  1  0  0  0
 38 43  2  0  0  0
 38 46  1  0  0  0
 38 47  1  0  0  0
 39 64  1  0  0  0
 39 67  2  0  0  0
 40 52  1  0  0  0
 40 53  2  0  0  0
 40 58  1  0  0  0
 41108  1  0  0  0
 41109  1  0  0  0
 41110  1  0  0  0
 41 48  1  0  0  0
 42 43  1  0  0  0
 42 66  1  0  0  0
 42111  1  0  0  0
 42112  1  0  0  0
 43 44  1  0  0  0
 44113  1  0  0  0
 45 46  2  0  0  0
 45114  1  0  0  0
 46115  1  0  0  0
 47116  1  0  0  0
 47117  1  0  0  0
 48 56  1  0  0  0
 48 65  1  0  0  0
 48118  1  0  0  0
 49 50  1  0  0  0
 49 53  1  0  0  0
 49 64  1  0  0  0
 49119  1  0  0  0
 50 51  1  0  0  0
 50120  1  0  0  0
 50121  1  0  0  0
 51 52  1  0  0  0
 51122  1  0  0  0
 51123  1  0  0  0
 52124  1  0  0  0
 52125  1  0  0  0
 53 54  1  0  0  0
 54 55  2  0  0  0
 54126  1  0  0  0
 55 57  1  0  0  0
 55127  1  0  0  0
 56 69  2  0  0  0
 57 58  2  0  0  0
 57128  1  0  0  0
 58129  1  0  0  0
 59 60  1  0  0  0
 59 61  1  0  0  0
 59 62  1  0  0  0
 60130  1  0  0  0
 60131  1  0  0  0
 60132  1  0  0  0
 61133  1  0  0  0
 61134  1  0  0  0
 61135  1  0  0  0
 62136  1  0  0  0
 62137  1  0  0  0
 62138  1  0  0  0
 63 65  1  0  0  0
 63139  1  0  0  0
 63140  1  0  0  0
 63141  1  0  0  0
 64142  1  0  0  0
 65143  1  0  0  0
 68 81  1  0  0  0
 71 73  2  0  0  0
 71 75  1  0  0  0
 71144  1  0  0  0
 72 74  1  0  0  0
 72 75  2  0  0  0
 72145  1  0  0  0
 73 76  1  0  0  0
 73146  1  0  0  0
 74 76  2  0  0  0
 74147  1  0  0  0
 75 77  1  0  0  0
 76 82  1  0  0  0
 77 84  1  0  0  0
 77148  1  0  0  0
 77149  1  0  0  0
 78 80  1  0  0  0
 78 83  1  0  0  0
 78150  1  0  0  0
 78151  1  0  0  0
 79 81  1  0  0  0
 79 82  1  0  0  0
 79152  1  0  0  0
 79153  1  0  0  0
 80 84  1  0  0  0
 80154  1  0  0  0
 80155  1  0  0  0
 81156  1  0  0  0
 81157  1  0  0  0
 82158  1  0  0  0
 83159  1  0  0  0
 84160  1  0  0  0
 84161  1  0  0  0
M  CHG  1  84   1
M  ISO  4   1 100  68 101  81 101  83 100
M  END
> <chiral flag>
0

> <version>
0

> <s_m_source_file>
/data/baiqing/PycharmProjects/Reinvent-master-3.2/result/LINK_invent/BTK/process_docking_weight1_custom_sum_contain_oxygen_bond_distance_aromatic_linkinvent_7_9_3/rearranged_h_0126.sdf

> <i_m_source_file_index>
8

> <r_mmod_Potential_Energy-OPLS-2005>
-319.927307128906

> <r_mmod_Stretch_Energy-OPLS-2005>
31.2113857269287

> <r_mmod_Bend_Energy-OPLS-2005>
83.29931640625

> <r_mmod_Torsional_Energy-OPLS-2005>
257.76123046875

> <r_mmod_Improper_Torsional_Energy-OPLS-2005>
8.11300277709961

> <r_mmod_Van_der_Waal_Energy-OPLS-2005>
147.96272277832

> <r_mmod_Electrostatic_Energy-OPLS-2005>
-368.702880859375

> <r_mmod_Solvation_Energy-OPLS-2005>
-485.794555664062

> <b_mmod_Minimization_Converged-OPLS-2005>
0

> <r_mmod_RMS_Derivative-OPLS-2005>
2.36534380912781

$$$$
8
                    3D
 Structure written by MMmdl.
172181  0  0  1  0            999 V2000
  -30.7974  -14.2900   20.7408 C   0  0  0  0  0  0
  -30.4158  -12.2865   19.3535 C   0  0  0  0  0  0
  -29.4660  -12.5494   18.1723 C   0  0  0  0  0  0
  -27.9961  -12.3937   18.5984 C   0  0  0  0  0  0
  -27.6694  -13.1969   19.8813 C   0  0  2  0  0  0
  -28.7069  -12.9091   20.9847 C   0  0  0  0  0  0
  -25.2608  -13.8168   20.5693 C   0  0  0  0  0  0
  -24.1848  -13.0448   20.9175 C   0  0  0  0  0  0
  -24.6386  -11.6903   20.8735 C   0  0  0  0  0  0
  -23.9052  -10.4308   21.0426 C   0  0  0  0  0  0
  -24.3614   -9.4219   21.9191 C   0  0  0  0  0  0
  -23.6302   -8.2254   22.0746 C   0  0  0  0  0  0
  -22.4277   -8.0297   21.3545 C   0  0  0  0  0  0
  -21.9925   -9.0267   20.4644 C   0  0  0  0  0  0
  -22.7243  -10.2141   20.3067 C   0  0  0  0  0  0
  -21.6854   -6.0750   22.5281 C   0  0  0  0  0  0
  -21.4011   -6.5648   23.8219 C   0  0  0  0  0  0
  -21.3657   -5.6794   24.9180 C   0  0  0  0  0  0
  -21.6042   -4.3061   24.7220 C   0  0  0  0  0  0
  -21.8820   -3.8155   23.4345 C   0  0  0  0  0  0
  -21.9192   -4.6977   22.3406 C   0  0  0  0  0  0
  -22.7869  -13.5245   21.1850 C   0  0  0  0  0  0
  -22.1660   -4.2172   21.0984 F   0  0  0  0  0  0
  -21.5632   -3.4537   25.7730 F   0  0  0  0  0  0
  -30.0570  -13.1922   20.4549 N   0  0  0  0  0  0
  -26.3059  -12.9322   20.3428 N   0  0  0  0  0  0
  -25.9310  -11.6471   20.5764 N   0  0  0  0  0  0
  -22.0509  -12.8237   22.0410 N   0  0  0  0  0  0
  -25.4327  -15.1903   20.4095 N   0  0  0  0  0  0
  -31.7574  -14.6694   20.0594 O   0  0  0  0  0  0
  -21.6631   -6.8892   21.4245 O   0  0  0  0  0  0
  -22.3567  -14.5566   20.6719 O   0  0  0  0  0  0
  -24.6064  -31.8711   23.2064 C   0  0  0  0  0  0
  -25.8989  -32.4804   23.8312 C   0  0  1  0  0  0
  -27.2271  -27.4442   20.1145 C   0  0  0  0  0  0
  -25.5817  -33.8589   24.2239 N   0  0  0  0  0  0
  -23.3994  -30.4872   21.5502 C   0  0  2  0  0  0
  -24.8425  -28.9538   20.1184 C   0  0  0  0  0  0
  -22.7421  -29.4660   22.5055 C   0  0  0  0  0  0
  -18.0215  -28.1354   22.8451 C   0  0  0  0  0  0
  -24.1498  -36.7342   23.2655 C   0  0  0  0  0  0
  -25.9250  -30.8439   21.3523 C   0  0  0  0  0  0
  -25.9992  -29.4767   20.7030 C   0  0  0  0  0  0
  -27.1985  -28.7337   20.6842 C   0  0  0  0  0  0
  -26.0487  -26.9280   19.5282 C   0  0  0  0  0  0
  -24.8604  -27.6779   19.5271 C   0  0  0  0  0  0
  -23.6053  -29.8148   20.1657 C   0  0  0  0  0  0
  -25.4100  -36.3088   24.0355 C   0  0  1  0  0  0
  -20.5811  -28.3590   23.1374 C   0  0  2  0  0  0
  -20.6733  -26.9315   22.5511 C   0  0  0  0  0  0
  -19.5716  -26.6300   21.5300 C   0  0  0  0  0  0
  -18.1854  -26.7895   22.1634 C   0  0  0  0  0  0
  -19.1477  -28.8803   23.2910 C   0  0  0  0  0  0
  -18.9447  -30.1418   23.8879 C   0  0  0  0  0  0
  -17.6472  -30.6562   24.0570 C   0  0  0  0  0  0
  -25.9054  -34.9452   23.5096 C   0  0  0  0  0  0
  -16.5342  -29.9090   23.6310 C   0  0  0  0  0  0
  -16.7230  -28.6547   23.0252 C   0  0  0  0  0  0
  -26.4547  -31.6539   25.0576 C   0  0  0  0  0  0
  -25.4044  -31.3714   26.1540 C   0  0  0  0  0  0
  -27.0315  -30.2937   24.5836 C   0  0  0  0  0  0
  -27.6192  -32.4299   25.7164 C   0  0  0  0  0  0
  -27.5551  -37.1820   24.8480 C   0  0  0  0  0  0
  -21.4163  -29.2948   22.3816 N   0  0  0  0  0  0
  -26.4251  -37.3802   23.9437 N   0  0  0  0  0  0
  -24.6616  -31.0826   22.0948 N   0  0  0  0  0  0
  -23.4231  -28.8210   23.3040 O   0  0  0  0  0  0
  -28.4023  -26.7387   20.1969 O   0  0  0  0  0  0
  -26.5681  -34.8914   22.4718 O   0  0  0  0  0  0
  -23.5287  -32.1445   23.7529 O   0  0  0  0  0  0
  -28.6294  -21.0434   23.7184 C   0  0  0  0  0  0
  -29.1266  -19.7712   23.3657 C   0  0  0  0  0  0
  -31.3929  -20.5911   23.6034 C   0  0  0  0  0  0
  -30.9058  -21.8789   23.9081 C   0  0  0  0  0  0
  -29.5100  -22.1182   23.9589 C   0  0  0  0  0  0
  -30.5199  -19.5284   23.3153 C   0  0  0  0  0  0
  -27.7877  -25.4482   24.4832 C   0  0  0  0  0  0
  -27.9997  -25.8461   23.0123 C   0  0  0  0  0  0
  -26.7976  -23.8050   23.1484 C   0  0  0  0  0  0
  -27.7083  -23.9254   24.3946 C   0  0  2  0  0  0
  -31.9105  -22.9759   24.2176 C   0  0  0  0  0  0
  -31.1757  -15.9918   22.5302 C   0  0  0  0  0  0
  -27.7110  -24.3690   20.9221 C   0  0  0  0  0  0
  -30.3774  -17.2969   22.3783 C   0  0  0  0  0  0
  -28.4193  -25.3349   19.9203 C   0  0  0  0  0  0
  -29.0842  -23.4258   24.2482 N   0  0  0  0  0  0
  -30.4901  -14.8675   21.9045 N   0  0  0  0  0  0
  -27.1672  -24.9040   22.2174 N   0  3  2  0  0  0
  -31.1073  -18.3108   23.0561 O   0  0  0  0  0  0
  -31.4531  -12.4109   19.0300 H   0  0  0  0  0  0
  -30.3286  -11.2476   19.6804 H   0  0  0  0  0  0
  -29.6873  -11.8741   17.3444 H   0  0  0  0  0  0
  -29.6278  -13.5595   17.7900 H   0  0  0  0  0  0
  -27.7981  -11.3351   18.7569 H   0  0  0  0  0  0
  -27.3345  -12.7057   17.7882 H   0  0  0  0  0  0
  -27.7388  -14.2561   19.6286 H   0  0  0  0  0  0
  -28.6565  -11.8597   21.2799 H   0  0  0  0  0  0
  -28.4528  -13.4730   21.8819 H   0  0  0  0  0  0
  -25.2757   -9.5688   22.4759 H   0  0  0  0  0  0
  -24.0012   -7.4639   22.7451 H   0  0  0  0  0  0
  -21.0873   -8.8797   19.8941 H   0  0  0  0  0  0
  -22.3731  -10.9682   19.6181 H   0  0  0  0  0  0
  -21.1991   -7.6153   23.9737 H   0  0  0  0  0  0
  -21.1481   -6.0516   25.9086 H   0  0  0  0  0  0
  -22.0595   -2.7621   23.2835 H   0  0  0  0  0  0
  -22.4092  -11.9878   22.4788 H   0  0  0  0  0  0
  -21.1119  -13.1267   22.2589 H   0  0  0  0  0  0
  -24.6654  -15.8448   20.5139 H   0  0  0  0  0  0
  -26.2931  -15.6297   20.1062 H   0  0  0  0  0  0
  -26.7017  -32.5499   23.1025 H   0  0  0  0  0  0
  -24.9754  -33.9731   25.0219 H   0  0  0  0  0  0
  -22.6829  -31.2992   21.4022 H   0  0  0  0  0  0
  -23.3719  -35.9713   23.3373 H   0  0  0  0  0  0
  -24.3594  -36.8942   22.2040 H   0  0  0  0  0  0
  -23.7341  -37.6592   23.6692 H   0  0  0  0  0  0
  -26.0232  -31.6043   20.5760 H   0  0  0  0  0  0
  -26.8248  -30.9070   21.9563 H   0  0  0  0  0  0
  -28.0969  -29.1352   21.1286 H   0  0  0  0  0  0
  -26.0135  -25.9391   19.0983 H   0  0  0  0  0  0
  -23.9588  -27.2558   19.0983 H   0  0  0  0  0  0
  -23.7195  -30.5904   19.4050 H   0  0  0  0  0  0
  -22.7340  -29.2321   19.8624 H   0  0  0  0  0  0
  -25.1275  -36.1937   25.0836 H   0  0  0  0  0  0
  -20.9827  -28.3080   24.1541 H   0  0  0  0  0  0
  -20.5667  -26.2211   23.3723 H   0  0  0  0  0  0
  -21.6601  -26.7283   22.1363 H   0  0  0  0  0  0
  -19.6838  -25.6237   21.1287 H   0  0  0  0  0  0
  -19.6684  -27.3128   20.6838 H   0  0  0  0  0  0
  -17.4190  -26.6716   21.3940 H   0  0  0  0  0  0
  -18.0095  -26.0025   22.8959 H   0  0  0  0  0  0
  -19.7952  -30.7198   24.2236 H   0  0  0  0  0  0
  -17.5040  -31.6224   24.5219 H   0  0  0  0  0  0
  -15.5359  -30.3024   23.7694 H   0  0  0  0  0  0
  -15.8591  -28.1001   22.6816 H   0  0  0  0  0  0
  -24.5674  -30.7768   25.7989 H   0  0  0  0  0  0
  -25.0051  -32.2977   26.5608 H   0  0  0  0  0  0
  -25.8366  -30.8262   26.9923 H   0  0  0  0  0  0
  -26.3206  -29.7172   23.9905 H   0  0  0  0  0  0
  -27.3140  -29.6475   25.4161 H   0  0  0  0  0  0
  -27.9293  -30.4283   23.9816 H   0  0  0  0  0  0
  -27.2980  -33.3883   26.1220 H   0  0  0  0  0  0
  -28.4097  -32.6412   24.9961 H   0  0  0  0  0  0
  -28.0688  -31.8740   26.5368 H   0  0  0  0  0  0
  -28.2580  -38.0094   24.7438 H   0  0  0  0  0  0
  -28.1017  -36.2616   24.6394 H   0  0  0  0  0  0
  -27.2283  -37.1540   25.8890 H   0  0  0  0  0  0
  -20.9334  -29.8764   21.7145 H   0  0  0  0  0  0
  -26.0120  -38.2864   24.1488 H   0  0  0  0  0  0
  -27.5592  -21.1564   23.8027 H   0  0  0  0  0  0
  -28.4095  -18.9923   23.1635 H   0  0  0  0  0  0
  -32.4589  -20.4062   23.5928 H   0  0  0  0  0  0
  -26.8387  -25.8482   24.8438 H   0  0  0  0  0  0
  -28.5634  -25.8201   25.1531 H   0  0  0  0  0  0
  -29.0546  -25.7336   22.7492 H   0  0  0  0  0  0
  -27.7271  -26.8877   22.8382 H   0  0  0  0  0  0
  -25.7725  -24.0047   23.4712 H   0  0  0  0  0  0
  -26.7683  -22.8200   22.6834 H   0  0  0  0  0  0
  -27.2488  -23.4883   25.2851 H   0  0  0  0  0  0
  -32.9183  -22.5734   24.2956 H   0  0  0  0  0  0
  -31.6783  -23.4375   25.1779 H   0  0  0  0  0  0
  -31.9251  -23.7408   23.4424 H   0  0  0  0  0  0
  -31.3019  -15.7653   23.5884 H   0  0  0  0  0  0
  -32.1814  -16.1115   22.1279 H   0  0  0  0  0  0
  -28.3939  -23.5495   21.1442 H   0  0  0  0  0  0
  -26.8674  -23.9091   20.3998 H   0  0  0  0  0  0
  -29.3735  -17.1469   22.7776 H   0  0  0  0  0  0
  -30.2857  -17.5674   21.3244 H   0  0  0  0  0  0
  -28.0794  -25.1370   18.8999 H   0  0  0  0  0  0
  -29.4760  -25.0695   19.8900 H   0  0  0  0  0  0
  -29.8114  -24.0759   24.5296 H   0  0  0  0  0  0
  -29.7262  -14.4474   22.4175 H   0  0  0  0  0  0
  -26.3106  -25.3891   21.9959 H   0  0  0  0  0  0
  1 25  1  0  0  0
  1 30  2  0  0  0
  1 87  1  0  0  0
  2  3  1  0  0  0
  2 25  1  0  0  0
  2 90  1  0  0  0
  2 91  1  0  0  0
  3  4  1  0  0  0
  3 92  1  0  0  0
  3 93  1  0  0  0
  4  5  1  0  0  0
  4 94  1  0  0  0
  4 95  1  0  0  0
  5  6  1  0  0  0
  5 26  1  0  0  0
  5 96  1  0  0  0
  6 25  1  0  0  0
  6 97  1  0  0  0
  6 98  1  0  0  0
  7  8  2  0  0  0
  7 26  1  0  0  0
  7 29  1  0  0  0
  8  9  1  0  0  0
  8 22  1  0  0  0
  9 10  1  0  0  0
  9 27  2  0  0  0
 10 11  2  0  0  0
 10 15  1  0  0  0
 11 12  1  0  0  0
 11 99  1  0  0  0
 12 13  2  0  0  0
 12100  1  0  0  0
 13 14  1  0  0  0
 13 31  1  0  0  0
 14 15  2  0  0  0
 14101  1  0  0  0
 15102  1  0  0  0
 16 17  2  0  0  0
 16 21  1  0  0  0
 16 31  1  0  0  0
 17 18  1  0  0  0
 17103  1  0  0  0
 18 19  2  0  0  0
 18104  1  0  0  0
 19 20  1  0  0  0
 19 24  1  0  0  0
 20 21  2  0  0  0
 20105  1  0  0  0
 21 23  1  0  0  0
 22 28  1  0  0  0
 22 32  2  0  0  0
 26 27  1  0  0  0
 28106  1  0  0  0
 28107  1  0  0  0
 29108  1  0  0  0
 29109  1  0  0  0
 33 34  1  0  0  0
 33 66  1  0  0  0
 33 70  2  0  0  0
 34 36  1  0  0  0
 34 59  1  0  0  0
 34110  1  0  0  0
 35 44  2  0  0  0
 35 45  1  0  0  0
 35 68  1  0  0  0
 36 56  1  0  0  0
 36111  1  0  0  0
 37 39  1  0  0  0
 37 47  1  0  0  0
 37 66  1  0  0  0
 37112  1  0  0  0
 38 43  2  0  0  0
 38 46  1  0  0  0
 38 47  1  0  0  0
 39 64  1  0  0  0
 39 67  2  0  0  0
 40 52  1  0  0  0
 40 53  2  0  0  0
 40 58  1  0  0  0
 41113  1  0  0  0
 41114  1  0  0  0
 41115  1  0  0  0
 41 48  1  0  0  0
 42 43  1  0  0  0
 42 66  1  0  0  0
 42116  1  0  0  0
 42117  1  0  0  0
 43 44  1  0  0  0
 44118  1  0  0  0
 45 46  2  0  0  0
 45119  1  0  0  0
 46120  1  0  0  0
 47121  1  0  0  0
 47122  1  0  0  0
 48 56  1  0  0  0
 48 65  1  0  0  0
 48123  1  0  0  0
 49 50  1  0  0  0
 49 53  1  0  0  0
 49 64  1  0  0  0
 49124  1  0  0  0
 50 51  1  0  0  0
 50125  1  0  0  0
 50126  1  0  0  0
 51 52  1  0  0  0
 51127  1  0  0  0
 51128  1  0  0  0
 52129  1  0  0  0
 52130  1  0  0  0
 53 54  1  0  0  0
 54 55  2  0  0  0
 54131  1  0  0  0
 55 57  1  0  0  0
 55132  1  0  0  0
 56 69  2  0  0  0
 57 58  2  0  0  0
 57133  1  0  0  0
 58134  1  0  0  0
 59 60  1  0  0  0
 59 61  1  0  0  0
 59 62  1  0  0  0
 60135  1  0  0  0
 60136  1  0  0  0
 60137  1  0  0  0
 61138  1  0  0  0
 61139  1  0  0  0
 61140  1  0  0  0
 62141  1  0  0  0
 62142  1  0  0  0
 62143  1  0  0  0
 63 65  1  0  0  0
 63144  1  0  0  0
 63145  1  0  0  0
 63146  1  0  0  0
 64147  1  0  0  0
 65148  1  0  0  0
 68 85  1  0  0  0
 71 72  2  0  0  0
 71 75  1  0  0  0
 71149  1  0  0  0
 72 76  1  0  0  0
 72150  1  0  0  0
 73 74  1  0  0  0
 73 76  2  0  0  0
 73151  1  0  0  0
 74 75  2  0  0  0
 74 81  1  0  0  0
 75 86  1  0  0  0
 76 89  1  0  0  0
 77 78  1  0  0  0
 77 80  1  0  0  0
 77152  1  0  0  0
 77153  1  0  0  0
 78 88  1  0  0  0
 78154  1  0  0  0
 78155  1  0  0  0
 79 80  1  0  0  0
 79 88  1  0  0  0
 79156  1  0  0  0
 79157  1  0  0  0
 80 86  1  0  0  0
 80158  1  0  0  0
 81159  1  0  0  0
 81160  1  0  0  0
 81161  1  0  0  0
 82 84  1  0  0  0
 82 87  1  0  0  0
 82162  1  0  0  0
 82163  1  0  0  0
 83 85  1  0  0  0
 83164  1  0  0  0
 83165  1  0  0  0
 83 88  1  0  0  0
 84 89  1  0  0  0
 84166  1  0  0  0
 84167  1  0  0  0
 85168  1  0  0  0
 85169  1  0  0  0
 86170  1  0  0  0
 87171  1  0  0  0
 88172  1  0  0  0
M  CHG  1  88   1
M  ISO  4   1 100  68 101  85 101  87 100
M  END
> <chiral flag>
0

> <version>
0

> <s_m_source_file>
/data/baiqing/PycharmProjects/Reinvent-master-3.2/result/LINK_invent/BTK/process_docking_weight1_custom_sum_contain_oxygen_bond_distance_aromatic_linkinvent_7_9_3/rearranged_h_0126.sdf

> <i_m_source_file_index>
9

> <r_mmod_Potential_Energy-OPLS-2005>
-104.162788391113

> <r_mmod_Stretch_Energy-OPLS-2005>
37.4827003479004

> <r_mmod_Bend_Energy-OPLS-2005>
189.488754272461

> <r_mmod_Torsional_Energy-OPLS-2005>
286.922912597656

> <r_mmod_Improper_Torsional_Energy-OPLS-2005>
3.17303967475891

> <r_mmod_Van_der_Waal_Energy-OPLS-2005>
155.469863891602

> <r_mmod_Electrostatic_Energy-OPLS-2005>
-386.50537109375

> <r_mmod_Solvation_Energy-OPLS-2005>
-402.466522216797

> <b_mmod_Minimization_Converged-OPLS-2005>
0

> <r_mmod_RMS_Derivative-OPLS-2005>
6.97067832946777

$$$$
9
                    3D
 Structure written by MMmdl.
171180  0  0  1  0            999 V2000
  -30.7501  -14.4733   20.5623 C   0  0  0  0  0  0
  -30.4057  -12.3084   19.4391 C   0  0  0  0  0  0
  -29.4893  -12.4892   18.2145 C   0  0  0  0  0  0
  -28.0132  -12.3536   18.6275 C   0  0  0  0  0  0
  -27.6547  -13.2173   19.8670 C   0  0  2  0  0  0
  -28.6962  -13.0520   20.9966 C   0  0  0  0  0  0
  -25.2557  -13.8196   20.5680 C   0  0  0  0  0  0
  -24.1819  -13.0451   20.9176 C   0  0  0  0  0  0
  -24.6375  -11.6922   20.8726 C   0  0  0  0  0  0
  -23.9044  -10.4298   21.0390 C   0  0  0  0  0  0
  -24.3599   -9.4218   21.9170 C   0  0  0  0  0  0
  -23.6282   -8.2245   22.0746 C   0  0  0  0  0  0
  -22.4274   -8.0269   21.3520 C   0  0  0  0  0  0
  -21.9892   -9.0242   20.4634 C   0  0  0  0  0  0
  -22.7215  -10.2132   20.3037 C   0  0  0  0  0  0
  -21.6866   -6.0718   22.5262 C   0  0  0  0  0  0
  -21.4027   -6.5624   23.8202 C   0  0  0  0  0  0
  -21.3654   -5.6782   24.9161 C   0  0  0  0  0  0
  -21.6050   -4.3040   24.7227 C   0  0  0  0  0  0
  -21.8823   -3.8128   23.4344 C   0  0  0  0  0  0
  -21.9202   -4.6936   22.3400 C   0  0  0  0  0  0
  -22.7839  -13.5221   21.1852 C   0  0  0  0  0  0
  -22.1664   -4.2120   21.0972 F   0  0  0  0  0  0
  -21.5629   -3.4530   25.7742 F   0  0  0  0  0  0
  -30.0262  -13.3265   20.4340 N   0  0  0  0  0  0
  -26.2989  -12.9382   20.3345 N   0  0  0  0  0  0
  -25.9303  -11.6527   20.5758 N   0  0  0  0  0  0
  -22.0489  -12.8208   22.0414 N   0  0  0  0  0  0
  -25.4295  -15.1912   20.4076 N   0  0  0  0  0  0
  -31.8813  -14.5852   20.0841 O   0  0  0  0  0  0
  -21.6641   -6.8852   21.4222 O   0  0  0  0  0  0
  -22.3508  -14.5515   20.6693 O   0  0  0  0  0  0
  -24.6135  -31.8689   23.2053 C   0  0  0  0  0  0
  -25.9022  -32.4837   23.8349 C   0  0  1  0  0  0
  -27.2386  -27.4334   20.0864 C   0  0  0  0  0  0
  -25.5874  -33.8628   24.2289 N   0  0  0  0  0  0
  -23.3992  -30.4900   21.5504 C   0  0  2  0  0  0
  -24.8424  -28.9498   20.1191 C   0  0  0  0  0  0
  -22.7406  -29.4657   22.5020 C   0  0  0  0  0  0
  -18.0275  -28.1387   22.8540 C   0  0  0  0  0  0
  -24.1466  -36.7314   23.2645 C   0  0  0  0  0  0
  -25.9233  -30.8366   21.3490 C   0  0  0  0  0  0
  -26.0008  -29.4644   20.7102 C   0  0  0  0  0  0
  -27.1957  -28.7108   20.6945 C   0  0  0  0  0  0
  -26.0553  -26.9290   19.4981 C   0  0  0  0  0  0
  -24.8641  -27.6818   19.5128 C   0  0  0  0  0  0
  -23.6024  -29.8136   20.1671 C   0  0  0  0  0  0
  -25.4098  -36.3126   24.0342 C   0  0  1  0  0  0
  -20.5862  -28.3647   23.1364 C   0  0  2  0  0  0
  -20.6732  -26.9386   22.5452 C   0  0  0  0  0  0
  -19.5707  -26.6406   21.5239 C   0  0  0  0  0  0
  -18.1900  -26.7943   22.1661 C   0  0  0  0  0  0
  -19.1532  -28.8847   23.2939 C   0  0  0  0  0  0
  -18.9447  -30.1457   23.8940 C   0  0  0  0  0  0
  -17.6447  -30.6585   24.0608 C   0  0  0  0  0  0
  -25.9045  -34.9492   23.5135 C   0  0  0  0  0  0
  -16.5349  -29.9103   23.6333 C   0  0  0  0  0  0
  -16.7269  -28.6525   23.0366 C   0  0  0  0  0  0
  -26.4441  -31.6625   25.0689 C   0  0  0  0  0  0
  -25.3719  -31.3745   26.1466 C   0  0  0  0  0  0
  -27.0231  -30.3079   24.5995 C   0  0  0  0  0  0
  -27.6013  -32.4337   25.7459 C   0  0  0  0  0  0
  -27.5570  -37.1818   24.8470 C   0  0  0  0  0  0
  -21.4137  -29.3016   22.3773 N   0  0  0  0  0  0
  -26.4275  -37.3825   23.9437 N   0  0  0  0  0  0
  -24.6650  -31.0784   22.0946 N   0  0  0  0  0  0
  -23.4195  -28.8203   23.3054 O   0  0  0  0  0  0
  -28.4453  -26.7584   20.0841 O   0  0  0  0  0  0
  -26.5621  -34.8946   22.4697 O   0  0  0  0  0  0
  -23.5330  -32.1419   23.7460 O   0  0  0  0  0  0
  -28.6538  -19.7468   22.5669 C   0  0  0  0  0  0
  -30.3379  -19.1732   20.4989 C   0  0  0  0  0  0
  -29.1778  -18.4376   22.4878 C   0  0  0  0  0  0
  -30.0640  -18.1378   21.4251 C   0  0  0  0  0  0
  -29.0323  -20.7229   21.6326 C   0  0  0  0  0  0
  -27.3230  -16.5813   25.9982 C   0  0  0  0  0  0
  -26.9176  -16.0866   24.6005 C   0  0  0  0  0  0
  -28.8210  -16.9250   26.0686 C   0  0  0  0  0  0
  -27.3042  -17.1088   23.5225 C   0  0  0  0  0  0
  -29.2157  -17.9335   24.9780 C   0  0  0  0  0  0
  -28.8079  -17.4354   23.5755 C   0  0  0  0  0  0
  -30.8671  -16.8235   21.3345 C   0  0  0  0  0  0
  -28.5767  -22.1701   21.8413 C   0  0  0  0  0  0
  -28.2020  -24.4241   20.8517 C   0  0  0  0  0  0
  -28.5378  -25.3808   19.6831 C   0  0  0  0  0  0
  -29.8467  -20.4356   20.5917 N   0  0  0  0  0  0
  -30.1531  -15.5421   21.1321 N   0  0  0  0  0  0
  -28.6864  -23.0255   20.6412 N   0  3  0  0  0  0
  -31.4518  -12.3800   19.1373 H   0  0  0  0  0  0
  -30.2901  -11.3098   19.8644 H   0  0  0  0  0  0
  -29.7299  -11.7471   17.4525 H   0  0  0  0  0  0
  -29.6624  -13.4656   17.7598 H   0  0  0  0  0  0
  -27.8309  -11.3013   18.8466 H   0  0  0  0  0  0
  -27.3615  -12.6037   17.7894 H   0  0  0  0  0  0
  -27.6843  -14.2564   19.5385 H   0  0  0  0  0  0
  -28.6694  -12.0361   21.3936 H   0  0  0  0  0  0
  -28.4605  -13.7090   21.8345 H   0  0  0  0  0  0
  -25.2739   -9.5708   22.4741 H   0  0  0  0  0  0
  -24.0007   -7.4638   22.7460 H   0  0  0  0  0  0
  -21.0830   -8.8736   19.8935 H   0  0  0  0  0  0
  -22.3650  -10.9654   19.6143 H   0  0  0  0  0  0
  -21.2015   -7.6133   23.9691 H   0  0  0  0  0  0
  -21.1478   -6.0510   25.9067 H   0  0  0  0  0  0
  -22.0609   -2.7581   23.2859 H   0  0  0  0  0  0
  -22.4116  -11.9878   22.4816 H   0  0  0  0  0  0
  -21.1085  -13.1198   22.2588 H   0  0  0  0  0  0
  -24.6667  -15.8506   20.5074 H   0  0  0  0  0  0
  -26.2841  -15.6223   20.0798 H   0  0  0  0  0  0
  -26.7119  -32.5583   23.1140 H   0  0  0  0  0  0
  -24.9982  -33.9754   25.0409 H   0  0  0  0  0  0
  -22.6862  -31.3047   21.4113 H   0  0  0  0  0  0
  -23.3725  -35.9650   23.3321 H   0  0  0  0  0  0
  -24.3539  -36.8913   22.2052 H   0  0  0  0  0  0
  -23.7200  -37.6522   23.6641 H   0  0  0  0  0  0
  -26.0122  -31.5900   20.5639 H   0  0  0  0  0  0
  -26.8204  -30.9151   21.9506 H   0  0  0  0  0  0
  -28.0914  -29.1072   21.1503 H   0  0  0  0  0  0
  -26.0234  -25.9671   19.0109 H   0  0  0  0  0  0
  -23.9739  -27.2795   19.0525 H   0  0  0  0  0  0
  -23.7049  -30.5814   19.3991 H   0  0  0  0  0  0
  -22.7264  -29.2279   19.8811 H   0  0  0  0  0  0
  -25.1268  -36.1988   25.0834 H   0  0  0  0  0  0
  -20.9991  -28.3193   24.1467 H   0  0  0  0  0  0
  -20.5620  -26.2245   23.3616 H   0  0  0  0  0  0
  -21.6592  -26.7396   22.1259 H   0  0  0  0  0  0
  -19.6820  -25.6335   21.1219 H   0  0  0  0  0  0
  -19.6622  -27.3243   20.6780 H   0  0  0  0  0  0
  -17.4165  -26.6752   21.4064 H   0  0  0  0  0  0
  -18.0258  -26.0045   22.9003 H   0  0  0  0  0  0
  -19.7919  -30.7294   24.2283 H   0  0  0  0  0  0
  -17.5001  -31.6262   24.5206 H   0  0  0  0  0  0
  -15.5356  -30.3028   23.7609 H   0  0  0  0  0  0
  -15.8661  -28.0852   22.7061 H   0  0  0  0  0  0
  -24.5881  -30.7077   25.7863 H   0  0  0  0  0  0
  -24.8917  -32.2912   26.4909 H   0  0  0  0  0  0
  -25.8111  -30.8962   27.0229 H   0  0  0  0  0  0
  -26.2737  -29.6895   24.1048 H   0  0  0  0  0  0
  -27.4037  -29.7272   25.4404 H   0  0  0  0  0  0
  -27.8545  -30.4427   23.9068 H   0  0  0  0  0  0
  -27.2609  -33.3622   26.2052 H   0  0  0  0  0  0
  -28.3806  -32.6928   25.0282 H   0  0  0  0  0  0
  -28.0672  -31.8450   26.5366 H   0  0  0  0  0  0
  -28.2639  -38.0077   24.7530 H   0  0  0  0  0  0
  -28.1020  -36.2621   24.6280 H   0  0  0  0  0  0
  -27.2303  -37.1469   25.8881 H   0  0  0  0  0  0
  -20.9268  -29.8756   21.7032 H   0  0  0  0  0  0
  -26.0157  -38.2912   24.1438 H   0  0  0  0  0  0
  -28.0002  -20.0247   23.3821 H   0  0  0  0  0  0
  -31.0285  -19.0060   19.6825 H   0  0  0  0  0  0
  -27.0787  -15.8250   26.7450 H   0  0  0  0  0  0
  -26.7369  -17.4654   26.2514 H   0  0  0  0  0  0
  -25.8429  -15.9055   24.5651 H   0  0  0  0  0  0
  -27.3992  -15.1319   24.3871 H   0  0  0  0  0  0
  -29.4157  -16.0172   25.9599 H   0  0  0  0  0  0
  -29.0604  -17.3360   27.0505 H   0  0  0  0  0  0
  -26.7201  -18.0200   23.6596 H   0  0  0  0  0  0
  -27.0424  -16.7262   22.5349 H   0  0  0  0  0  0
  -30.2922  -18.1077   25.0092 H   0  0  0  0  0  0
  -28.7476  -18.8928   25.2003 H   0  0  0  0  0  0
  -29.3464  -16.5055   23.4129 H   0  0  0  0  0  0
  -31.4492  -16.7279   22.2519 H   0  0  0  0  0  0
  -31.6126  -16.9633   20.5492 H   0  0  0  0  0  0
  -29.1805  -22.5960   22.6455 H   0  0  0  0  0  0
  -27.5446  -22.1692   22.1926 H   0  0  0  0  0  0
  -27.1263  -24.4224   21.0354 H   0  0  0  0  0  0
  -28.6690  -24.8200   21.7561 H   0  0  0  0  0  0
  -27.9676  -25.1544   18.7837 H   0  0  0  0  0  0
  -29.5797  -25.2259   19.4022 H   0  0  0  0  0  0
  -29.2182  -15.4366   21.4897 H   0  0  0  0  0  0
  -28.1784  -22.5648   19.9026 H   0  0  0  0  0  0
  -29.6588  -23.0088   20.3763 H   0  0  0  0  0  0
  1 25  1  0  0  0
  1 30  2  0  0  0
  1 87  1  0  0  0
  2  3  1  0  0  0
  2 25  1  0  0  0
  2 89  1  0  0  0
  2 90  1  0  0  0
  3  4  1  0  0  0
  3 91  1  0  0  0
  3 92  1  0  0  0
  4  5  1  0  0  0
  4 93  1  0  0  0
  4 94  1  0  0  0
  5  6  1  0  0  0
  5 26  1  0  0  0
  5 95  1  0  0  0
  6 25  1  0  0  0
  6 96  1  0  0  0
  6 97  1  0  0  0
  7  8  2  0  0  0
  7 26  1  0  0  0
  7 29  1  0  0  0
  8  9  1  0  0  0
  8 22  1  0  0  0
  9 10  1  0  0  0
  9 27  2  0  0  0
 10 11  2  0  0  0
 10 15  1  0  0  0
 11 12  1  0  0  0
 11 98  1  0  0  0
 12 13  2  0  0  0
 12 99  1  0  0  0
 13 14  1  0  0  0
 13 31  1  0  0  0
 14 15  2  0  0  0
 14100  1  0  0  0
 15101  1  0  0  0
 16 17  2  0  0  0
 16 21  1  0  0  0
 16 31  1  0  0  0
 17 18  1  0  0  0
 17102  1  0  0  0
 18 19  2  0  0  0
 18103  1  0  0  0
 19 20  1  0  0  0
 19 24  1  0  0  0
 20 21  2  0  0  0
 20104  1  0  0  0
 21 23  1  0  0  0
 22 28  1  0  0  0
 22 32  2  0  0  0
 26 27  1  0  0  0
 28105  1  0  0  0
 28106  1  0  0  0
 29107  1  0  0  0
 29108  1  0  0  0
 33 34  1  0  0  0
 33 66  1  0  0  0
 33 70  2  0  0  0
 34 36  1  0  0  0
 34 59  1  0  0  0
 34109  1  0  0  0
 35 44  2  0  0  0
 35 45  1  0  0  0
 35 68  1  0  0  0
 36 56  1  0  0  0
 36110  1  0  0  0
 37 39  1  0  0  0
 37 47  1  0  0  0
 37 66  1  0  0  0
 37111  1  0  0  0
 38 43  2  0  0  0
 38 46  1  0  0  0
 38 47  1  0  0  0
 39 64  1  0  0  0
 39 67  2  0  0  0
 40 52  1  0  0  0
 40 53  2  0  0  0
 40 58  1  0  0  0
 41112  1  0  0  0
 41113  1  0  0  0
 41114  1  0  0  0
 41 48  1  0  0  0
 42 43  1  0  0  0
 42 66  1  0  0  0
 42115  1  0  0  0
 42116  1  0  0  0
 43 44  1  0  0  0
 44117  1  0  0  0
 45 46  2  0  0  0
 45118  1  0  0  0
 46119  1  0  0  0
 47120  1  0  0  0
 47121  1  0  0  0
 48 56  1  0  0  0
 48 65  1  0  0  0
 48122  1  0  0  0
 49 50  1  0  0  0
 49 53  1  0  0  0
 49 64  1  0  0  0
 49123  1  0  0  0
 50 51  1  0  0  0
 50124  1  0  0  0
 50125  1  0  0  0
 51 52  1  0  0  0
 51126  1  0  0  0
 51127  1  0  0  0
 52128  1  0  0  0
 52129  1  0  0  0
 53 54  1  0  0  0
 54 55  2  0  0  0
 54130  1  0  0  0
 55 57  1  0  0  0
 55131  1  0  0  0
 56 69  2  0  0  0
 57 58  2  0  0  0
 57132  1  0  0  0
 58133  1  0  0  0
 59 60  1  0  0  0
 59 61  1  0  0  0
 59 62  1  0  0  0
 60134  1  0  0  0
 60135  1  0  0  0
 60136  1  0  0  0
 61137  1  0  0  0
 61138  1  0  0  0
 61139  1  0  0  0
 62140  1  0  0  0
 62141  1  0  0  0
 62142  1  0  0  0
 63 65  1  0  0  0
 63143  1  0  0  0
 63144  1  0  0  0
 63145  1  0  0  0
 64146  1  0  0  0
 65147  1  0  0  0
 68 85  1  0  0  0
 71 73  2  0  0  0
 71 75  1  0  0  0
 71148  1  0  0  0
 72 74  2  0  0  0
 72 86  1  0  0  0
 72149  1  0  0  0
 73 74  1  0  0  0
 73 81  1  0  0  0
 74 82  1  0  0  0
 75 83  1  0  0  0
 75 86  2  0  0  0
 76 77  1  0  0  0
 76 78  1  0  0  0
 76150  1  0  0  0
 76151  1  0  0  0
 77 79  1  0  0  0
 77152  1  0  0  0
 77153  1  0  0  0
 78 80  1  0  0  0
 78154  1  0  0  0
 78155  1  0  0  0
 79 81  1  0  0  0
 79156  1  0  0  0
 79157  1  0  0  0
 80 81  1  0  0  0
 80158  1  0  0  0
 80159  1  0  0  0
 81160  1  0  0  0
 82 87  1  0  0  0
 82161  1  0  0  0
 82162  1  0  0  0
 83 88  1  0  0  0
 83163  1  0  0  0
 83164  1  0  0  0
 84 85  1  0  0  0
 84 88  1  0  0  0
 84165  1  0  0  0
 84166  1  0  0  0
 85167  1  0  0  0
 85168  1  0  0  0
 87169  1  0  0  0
 88170  1  0  0  0
 88171  1  0  0  0
M  CHG  1  88   1
M  ISO  4   1 100  68 101  85 101  87 100
M  END
> <chiral flag>
0

> <version>
0

> <s_m_source_file>
/data/baiqing/PycharmProjects/Reinvent-master-3.2/result/LINK_invent/BTK/process_docking_weight1_custom_sum_contain_oxygen_bond_distance_aromatic_linkinvent_7_9_3/rearranged_h_0126.sdf

> <i_m_source_file_index>
10

> <r_mmod_Potential_Energy-OPLS-2005>
-391.177520751953

> <r_mmod_Stretch_Energy-OPLS-2005>
39.7243690490723

> <r_mmod_Bend_Energy-OPLS-2005>
115.871932983398

> <r_mmod_Torsional_Energy-OPLS-2005>
214.147079467773

> <r_mmod_Improper_Torsional_Energy-OPLS-2005>
3.50160956382751

> <r_mmod_Van_der_Waal_Energy-OPLS-2005>
158.35026550293

> <r_mmod_Electrostatic_Energy-OPLS-2005>
-497.076782226562

> <r_mmod_Solvation_Energy-OPLS-2005>
-441.468505859375

> <b_mmod_Minimization_Converged-OPLS-2005>
0

> <r_mmod_RMS_Derivative-OPLS-2005>
3.12616777420044

$$$$
10
                    3D
 Structure written by MMmdl.
177186  0  0  1  0            999 V2000
  -31.0184  -13.7114   21.0720 C   0  0  0  0  0  0
  -31.1345  -12.7543   18.7569 C   0  0  0  0  0  0
  -30.0407  -13.1293   17.7028 C   0  0  0  0  0  0
  -28.8175  -13.9402   18.3608 C   0  0  0  0  0  0
  -28.2511  -14.0870   20.0099 C   0  0  2  0  0  0
  -29.3325  -12.7277   19.9420 C   0  0  0  0  0  0
  -24.8126  -14.2513   20.9154 C   0  0  0  0  0  0
  -23.8456  -13.2739   21.0078 C   0  0  0  0  0  0
  -24.3846  -11.9928   21.0243 C   0  0  0  0  0  0
  -23.8459  -10.5795   21.0867 C   0  0  0  0  0  0
  -24.3393   -9.5424   21.9320 C   0  0  0  0  0  0
  -23.6567   -8.2966   22.0580 C   0  0  0  0  0  0
  -22.4564   -8.0606   21.3471 C   0  0  0  0  0  0
  -22.0016   -9.0620   20.4707 C   0  0  0  0  0  0
  -22.6906  -10.2767   20.3296 C   0  0  0  0  0  0
  -21.7124   -6.0821   22.5259 C   0  0  0  0  0  0
  -21.4267   -6.5695   23.8220 C   0  0  0  0  0  0
  -21.3765   -5.6827   24.9187 C   0  0  0  0  0  0
  -21.6032   -4.3084   24.7233 C   0  0  0  0  0  0
  -21.8738   -3.8122   23.4381 C   0  0  0  0  0  0
  -21.9225   -4.6953   22.3415 C   0  0  0  0  0  0
  -22.4344  -13.5693   21.1901 C   0  0  0  0  0  0
  -22.1586   -4.2054   21.1002 F   0  0  0  0  0  0
  -21.5535   -3.4619   25.7783 F   0  0  0  0  0  0
  -30.6395  -12.9731   20.0772 N   0  0  0  0  0  0
  -26.0900  -13.7552   20.8639 N   0  0  0  0  0  0
  -25.5621  -12.3733   21.3112 N   0  0  0  0  0  0
  -21.7818  -12.8150   22.0607 N   0  0  0  0  0  0
  -24.5730  -15.5719   20.8986 N   0  0  0  0  0  0
  -31.8094  -14.6397   20.8531 O   0  0  0  0  0  0
  -21.7114   -6.8945   21.4186 O   0  0  0  0  0  0
  -21.9466  -14.5563   20.6468 O   0  0  0  0  0  0
  -24.6918  -31.7968   23.1554 C   0  0  0  0  0  0
  -25.9482  -32.4418   23.8066 C   0  0  1  0  0  0
  -26.9303  -26.5598   20.1888 C   0  0  0  0  0  0
  -25.6058  -33.8269   24.1950 N   0  0  0  0  0  0
  -23.4998  -30.4248   21.5195 C   0  0  2  0  0  0
  -24.8847  -28.7698   20.0907 C   0  0  0  0  0  0
  -22.7731  -29.4327   22.4735 C   0  0  0  0  0  0
  -18.0330  -28.1410   22.8459 C   0  0  0  0  0  0
  -24.1499  -36.7152   23.2649 C   0  0  0  0  0  0
  -26.0825  -30.4752   21.4249 C   0  0  0  0  0  0
  -26.0849  -29.0358   20.7599 C   0  0  0  0  0  0
  -27.1183  -27.9574   20.7709 C   0  0  0  0  0  0
  -25.7521  -26.5478   19.4296 C   0  0  0  0  0  0
  -24.7721  -27.5668   19.3885 C   0  0  0  0  0  0
  -23.7248  -29.7656   20.1372 C   0  0  0  0  0  0
  -25.4148  -36.2886   24.0279 C   0  0  1  0  0  0
  -20.5965  -28.3759   23.1161 C   0  0  2  0  0  0
  -20.6791  -26.9421   22.5398 C   0  0  0  0  0  0
  -19.5767  -26.6370   21.5210 C   0  0  0  0  0  0
  -18.1959  -26.7944   22.1622 C   0  0  0  0  0  0
  -19.1599  -28.8904   23.2795 C   0  0  0  0  0  0
  -18.9501  -30.1491   23.8833 C   0  0  0  0  0  0
  -17.6494  -30.6599   24.0540 C   0  0  0  0  0  0
  -25.9135  -34.9270   23.4946 C   0  0  0  0  0  0
  -16.5382  -29.9085   23.6345 C   0  0  0  0  0  0
  -16.7304  -28.6503   23.0366 C   0  0  0  0  0  0
  -26.4630  -31.6498   25.0725 C   0  0  0  0  0  0
  -25.3704  -31.3831   26.1357 C   0  0  0  0  0  0
  -27.0548  -30.2836   24.6656 C   0  0  0  0  0  0
  -27.6077  -32.4372   25.7542 C   0  0  0  0  0  0
  -27.5577  -37.1734   24.8468 C   0  0  0  0  0  0
  -21.4385  -29.3035   22.3495 N   0  0  0  0  0  0
  -26.4271  -37.3655   23.9422 N   0  0  0  0  0  0
  -24.7874  -30.9355   22.0826 N   0  0  0  0  0  0
  -23.4222  -28.7856   23.2983 O   0  0  0  0  0  0
  -27.6995  -25.2057   20.1843 O   0  0  0  0  0  0
  -26.5772  -34.8854   22.4566 O   0  0  0  0  0  0
  -23.5939  -32.1099   23.6528 O   0  0  0  0  0  0
  -26.3769  -14.5465   18.6802 C   0  0  0  0  0  0
  -27.3317  -15.9363   21.5453 C   0  0  0  0  0  0
  -26.9539  -12.3899   19.3297 C   0  0  0  0  0  0
  -27.6930  -14.3748   22.5034 C   0  0  0  0  0  0
  -24.8567  -21.1595   18.6906 C   0  0  0  0  0  0
  -26.8957  -16.3094   19.7850 C   0  0  1  0  0  0
  -27.8840  -12.6089   21.7921 C   0  0  1  0  0  0
  -25.7799  -20.0168   18.3197 C   0  0  2  0  0  0
  -27.0220  -21.7141   19.5321 C   0  0  1  0  0  0
  -25.2141  -17.4587   17.3943 C   0  0  0  0  0  0
  -23.3410  -19.0894   17.5640 C   0  0  0  0  0  0
  -27.3087  -18.2632   19.5021 C   0  0  0  0  0  0
  -29.3469  -12.1630   22.5057 C   0  0  0  0  0  0
  -27.3350  -23.4474   20.4261 C   0  0  0  0  0  0
  -24.8947  -18.9507   17.5098 C   0  0  0  0  0  0
  -26.6538  -19.9197   19.5592 N   0  0  0  0  0  0
  -30.6204  -13.0874   22.2452 N   0  0  0  0  0  0
  -25.7062  -22.2327   19.1005 N   0  3  0  0  0  0
  -32.0387  -13.3513   18.5870 H   0  0  0  0  0  0
  -31.4391  -11.7090   18.6549 H   0  0  0  0  0  0
  -29.6607  -12.2245   17.2201 H   0  0  0  0  0  0
  -30.4935  -13.6957   16.8857 H   0  0  0  0  0  0
  -28.1581  -13.7669   17.5138 H   0  0  0  0  0  0
  -29.1737  -14.9698   18.2080 H   0  0  0  0  0  0
  -28.8636  -14.8960   20.3769 H   0  0  0  0  0  0
  -29.1896  -11.8704   19.2852 H   0  0  0  0  0  0
  -29.2197  -11.7202   20.3383 H   0  0  0  0  0  0
  -25.2176   -9.7160   22.5430 H   0  0  0  0  0  0
  -24.0620   -7.5291   22.7030 H   0  0  0  0  0  0
  -21.0862   -8.9026   19.9128 H   0  0  0  0  0  0
  -22.2803  -11.0300   19.6688 H   0  0  0  0  0  0
  -21.2388   -7.6226   23.9757 H   0  0  0  0  0  0
  -21.1661   -6.0540   25.9085 H   0  0  0  0  0  0
  -22.0349   -2.7565   23.2989 H   0  0  0  0  0  0
  -22.2372  -12.0663   22.5594 H   0  0  0  0  0  0
  -20.8050  -12.9997   22.2597 H   0  0  0  0  0  0
  -23.6275  -15.9511   20.8958 H   0  0  0  0  0  0
  -25.3051  -16.2631   20.8382 H   0  0  0  0  0  0
  -26.7536  -32.4793   23.0734 H   0  0  0  0  0  0
  -25.0152  -33.9277   25.0066 H   0  0  0  0  0  0
  -22.8245  -31.2711   21.3600 H   0  0  0  0  0  0
  -23.3788  -35.9462   23.3242 H   0  0  0  0  0  0
  -24.3572  -36.8889   22.2083 H   0  0  0  0  0  0
  -23.7228  -37.6294   23.6769 H   0  0  0  0  0  0
  -26.3108  -31.1883   20.6326 H   0  0  0  0  0  0
  -26.9360  -30.5161   22.0892 H   0  0  0  0  0  0
  -28.0302  -28.1454   21.3160 H   0  0  0  0  0  0
  -25.5180  -25.6528   18.8772 H   0  0  0  0  0  0
  -23.8747  -27.3841   18.8111 H   0  0  0  0  0  0
  -23.9348  -30.5419   19.3982 H   0  0  0  0  0  0
  -22.8100  -29.2782   19.7953 H   0  0  0  0  0  0
  -25.1354  -36.1659   25.0767 H   0  0  0  0  0  0
  -21.0033  -28.3358   24.1287 H   0  0  0  0  0  0
  -20.5663  -26.2368   23.3647 H   0  0  0  0  0  0
  -21.6655  -26.7379   22.1205 H   0  0  0  0  0  0
  -19.6925  -25.6266   21.1272 H   0  0  0  0  0  0
  -19.6710  -27.3147   20.6715 H   0  0  0  0  0  0
  -17.4215  -26.6671   21.4029 H   0  0  0  0  0  0
  -18.0352  -26.0100   22.9036 H   0  0  0  0  0  0
  -19.7977  -30.7321   24.2185 H   0  0  0  0  0  0
  -17.5046  -31.6270   24.5161 H   0  0  0  0  0  0
  -15.5380  -30.2970   23.7706 H   0  0  0  0  0  0
  -15.8700  -28.0795   22.7137 H   0  0  0  0  0  0
  -24.5890  -30.7157   25.7678 H   0  0  0  0  0  0
  -24.8890  -32.3052   26.4625 H   0  0  0  0  0  0
  -25.7896  -30.9099   27.0257 H   0  0  0  0  0  0
  -26.3229  -29.6425   24.1711 H   0  0  0  0  0  0
  -27.4008  -29.7309   25.5410 H   0  0  0  0  0  0
  -27.9222  -30.3944   24.0147 H   0  0  0  0  0  0
  -27.2598  -33.3727   26.1952 H   0  0  0  0  0  0
  -28.3970  -32.6867   25.0425 H   0  0  0  0  0  0
  -28.0673  -31.8631   26.5602 H   0  0  0  0  0  0
  -28.2542  -38.0080   24.7533 H   0  0  0  0  0  0
  -28.1116  -36.2597   24.6263 H   0  0  0  0  0  0
  -27.2286  -37.1337   25.8865 H   0  0  0  0  0  0
  -20.9666  -29.8759   21.6640 H   0  0  0  0  0  0
  -26.0097  -38.2705   24.1443 H   0  0  0  0  0  0
  -25.2894  -14.5424   18.5944 H   0  0  0  0  0  0
  -26.4760  -14.7661   17.6148 H   0  0  0  0  0  0
  -28.2346  -16.5256   21.6981 H   0  0  0  0  0  0
  -26.6572  -16.5284   22.1704 H   0  0  0  0  0  0
  -27.4716  -11.9095   18.5115 H   0  0  0  0  0  0
  -26.1167  -11.7059   19.1851 H   0  0  0  0  0  0
  -26.8333  -14.2738   23.1677 H   0  0  0  0  0  0
  -28.4288  -14.6548   23.2803 H   0  0  0  0  0  0
  -24.1977  -20.8978   19.5288 H   0  0  0  0  0  0
  -24.2332  -21.5311   17.8826 H   0  0  0  0  0  0
  -25.9428  -16.7849   19.7287 H   0  0  0  0  0  0
  -28.5828  -13.3705   21.9827 H   0  0  0  0  0  0
  -26.4791  -20.3598   17.5514 H   0  0  0  0  0  0
  -27.7234  -21.8103   18.6995 H   0  0  0  0  0  0
  -24.6900  -16.8706   18.1514 H   0  0  0  0  0  0
  -26.2758  -17.2280   17.3714 H   0  0  0  0  0  0
  -24.7928  -17.0711   16.4676 H   0  0  0  0  0  0
  -22.9847  -19.9980   17.0726 H   0  0  0  0  0  0
  -22.9418  -19.0931   18.5780 H   0  0  0  0  0  0
  -22.8382  -18.2935   17.0165 H   0  0  0  0  0  0
  -27.8848  -18.2795   18.5745 H   0  0  0  0  0  0
  -28.1125  -18.3985   20.2241 H   0  0  0  0  0  0
  -29.2082  -12.1759   23.5913 H   0  0  0  0  0  0
  -29.5664  -11.1179   22.2865 H   0  0  0  0  0  0
  -28.2317  -23.1949   21.0059 H   0  0  0  0  0  0
  -26.5522  -23.4621   21.1983 H   0  0  0  0  0  0
  -25.0905  -19.2884   16.4878 H   0  0  0  0  0  0
  -31.1129  -13.3762   23.0842 H   0  0  0  0  0  0
  -25.2614  -22.6746   19.8890 H   0  0  0  0  0  0
  -25.7718  -22.9316   18.3783 H   0  0  0  0  0  0
  1 25  1  0  0  0
  1 30  2  0  0  0
  1 87  1  0  0  0
  2  3  1  0  0  0
  2 25  1  0  0  0
  2 89  1  0  0  0
  2 90  1  0  0  0
  3  4  1  0  0  0
  3 91  1  0  0  0
  3 92  1  0  0  0
  4  5  1  0  0  0
  4 93  1  0  0  0
  4 94  1  0  0  0
  5  6  1  0  0  0
  5 26  1  0  0  0
  5 95  1  0  0  0
  6 25  1  0  0  0
  6 96  1  0  0  0
  6 97  1  0  0  0
  7  8  2  0  0  0
  7 26  1  0  0  0
  7 29  1  0  0  0
  8  9  1  0  0  0
  8 22  1  0  0  0
  9 10  1  0  0  0
  9 27  2  0  0  0
 10 11  2  0  0  0
 10 15  1  0  0  0
 11 12  1  0  0  0
 11 98  1  0  0  0
 12 13  2  0  0  0
 12 99  1  0  0  0
 13 14  1  0  0  0
 13 31  1  0  0  0
 14 15  2  0  0  0
 14100  1  0  0  0
 15101  1  0  0  0
 16 17  2  0  0  0
 16 21  1  0  0  0
 16 31  1  0  0  0
 17 18  1  0  0  0
 17102  1  0  0  0
 18 19  2  0  0  0
 18103  1  0  0  0
 19 20  1  0  0  0
 19 24  1  0  0  0
 20 21  2  0  0  0
 20104  1  0  0  0
 21 23  1  0  0  0
 22 28  1  0  0  0
 22 32  2  0  0  0
 26 27  1  0  0  0
 28105  1  0  0  0
 28106  1  0  0  0
 29107  1  0  0  0
 29108  1  0  0  0
 33 34  1  0  0  0
 33 66  1  0  0  0
 33 70  2  0  0  0
 34 36  1  0  0  0
 34 59  1  0  0  0
 34109  1  0  0  0
 35 44  2  0  0  0
 35 45  1  0  0  0
 35 68  1  0  0  0
 36 56  1  0  0  0
 36110  1  0  0  0
 37 39  1  0  0  0
 37 47  1  0  0  0
 37 66  1  0  0  0
 37111  1  0  0  0
 38 43  2  0  0  0
 38 46  1  0  0  0
 38 47  1  0  0  0
 39 64  1  0  0  0
 39 67  2  0  0  0
 40 52  1  0  0  0
 40 53  2  0  0  0
 40 58  1  0  0  0
 41112  1  0  0  0
 41113  1  0  0  0
 41114  1  0  0  0
 41 48  1  0  0  0
 42 43  1  0  0  0
 42 66  1  0  0  0
 42115  1  0  0  0
 42116  1  0  0  0
 43 44  1  0  0  0
 44117  1  0  0  0
 45 46  2  0  0  0
 45118  1  0  0  0
 46119  1  0  0  0
 47120  1  0  0  0
 47121  1  0  0  0
 48 56  1  0  0  0
 48 65  1  0  0  0
 48122  1  0  0  0
 49 50  1  0  0  0
 49 53  1  0  0  0
 49 64  1  0  0  0
 49123  1  0  0  0
 50 51  1  0  0  0
 50124  1  0  0  0
 50125  1  0  0  0
 51 52  1  0  0  0
 51126  1  0  0  0
 51127  1  0  0  0
 52128  1  0  0  0
 52129  1  0  0  0
 53 54  1  0  0  0
 54 55  2  0  0  0
 54130  1  0  0  0
 55 57  1  0  0  0
 55131  1  0  0  0
 56 69  2  0  0  0
 57 58  2  0  0  0
 57132  1  0  0  0
 58133  1  0  0  0
 59 60  1  0  0  0
 59 61  1  0  0  0
 59 62  1  0  0  0
 60134  1  0  0  0
 60135  1  0  0  0
 60136  1  0  0  0
 61137  1  0  0  0
 61138  1  0  0  0
 61139  1  0  0  0
 62140  1  0  0  0
 62141  1  0  0  0
 62142  1  0  0  0
 63 65  1  0  0  0
 63143  1  0  0  0
 63144  1  0  0  0
 63145  1  0  0  0
 64146  1  0  0  0
 65147  1  0  0  0
 68 84  1  0  0  0
 71 73  1  0  0  0
 71 76  1  0  0  0
 71148  1  0  0  0
 71149  1  0  0  0
 72 74  1  0  0  0
 72 76  1  0  0  0
 72150  1  0  0  0
 72151  1  0  0  0
 73 77  1  0  0  0
 73152  1  0  0  0
 73153  1  0  0  0
 74 77  1  0  0  0
 74154  1  0  0  0
 74155  1  0  0  0
 75 88  1  0  0  0
 75156  1  0  0  0
 75157  1  0  0  0
 75 78  1  0  0  0
 76 82  1  0  0  0
 76158  1  0  0  0
 77 83  1  0  0  0
 77159  1  0  0  0
 78 85  1  0  0  0
 78 86  1  0  0  0
 78160  1  0  0  0
 79 84  1  0  0  0
 79 86  1  0  0  0
 79 88  1  0  0  0
 79161  1  0  0  0
 80162  1  0  0  0
 80163  1  0  0  0
 80164  1  0  0  0
 80 85  1  0  0  0
 81 85  1  0  0  0
 81165  1  0  0  0
 81166  1  0  0  0
 81167  1  0  0  0
 82 86  1  0  0  0
 82168  1  0  0  0
 82169  1  0  0  0
 83 87  1  0  0  0
 83170  1  0  0  0
 83171  1  0  0  0
 84172  1  0  0  0
 84173  1  0  0  0
 85174  1  0  0  0
 87175  1  0  0  0
 88176  1  0  0  0
 88177  1  0  0  0
M  CHG  1  88   1
M  ISO  4   1 100  68 101  84 101  87 100
M  END
> <chiral flag>
0

> <version>
0

> <s_m_source_file>
/data/baiqing/PycharmProjects/Reinvent-master-3.2/result/LINK_invent/BTK/process_docking_weight1_custom_sum_contain_oxygen_bond_distance_aromatic_linkinvent_7_9_3/rearranged_h_0126.sdf

> <i_m_source_file_index>
11

> <r_mmod_Potential_Energy-OPLS-2005>
11678.359375

> <r_mmod_Stretch_Energy-OPLS-2005>
5614.67236328125

> <r_mmod_Bend_Energy-OPLS-2005>
1984.32495117188

> <r_mmod_Torsional_Energy-OPLS-2005>
528.192626953125

> <r_mmod_Improper_Torsional_Energy-OPLS-2005>
13.9499521255493

> <r_mmod_Van_der_Waal_Energy-OPLS-2005>
2247.37646484375

> <r_mmod_Electrostatic_Energy-OPLS-2005>
-251.25016784668

> <r_mmod_Solvation_Energy-OPLS-2005>
-446.383178710938

> <b_mmod_Minimization_Converged-OPLS-2005>
0

> <r_mmod_RMS_Derivative-OPLS-2005>
20.9835758209229

$$$$
11
                    3D
 Structure written by MMmdl.
160169  0  0  1  0            999 V2000
  -30.6895  -14.5503   20.5738 C   0  0  0  0  0  0
  -30.4133  -12.3893   19.4148 C   0  0  0  0  0  0
  -29.4724  -12.5446   18.2041 C   0  0  0  0  0  0
  -28.0033  -12.3763   18.6450 C   0  0  0  0  0  0
  -27.6471  -13.2178   19.8974 C   0  0  2  0  0  0
  -28.7011  -12.9972   21.0043 C   0  0  0  0  0  0
  -25.2431  -13.8105   20.5918 C   0  0  0  0  0  0
  -24.1745  -13.0320   20.9267 C   0  0  0  0  0  0
  -24.6379  -11.6821   20.8825 C   0  0  0  0  0  0
  -23.9038  -10.4230   21.0402 C   0  0  0  0  0  0
  -24.3603   -9.4162   21.9178 C   0  0  0  0  0  0
  -23.6297   -8.2200   22.0747 C   0  0  0  0  0  0
  -22.4273   -8.0263   21.3560 C   0  0  0  0  0  0
  -21.9892   -9.0194   20.4638 C   0  0  0  0  0  0
  -22.7204  -10.2072   20.3035 C   0  0  0  0  0  0
  -21.6839   -6.0744   22.5274 C   0  0  0  0  0  0
  -21.4032   -6.5669   23.8207 C   0  0  0  0  0  0
  -21.3646   -5.6816   24.9162 C   0  0  0  0  0  0
  -21.6007   -4.3077   24.7203 C   0  0  0  0  0  0
  -21.8831   -3.8171   23.4339 C   0  0  0  0  0  0
  -21.9209   -4.6981   22.3396 C   0  0  0  0  0  0
  -22.7765  -13.5074   21.1898 C   0  0  0  0  0  0
  -22.1683   -4.2196   21.0961 F   0  0  0  0  0  0
  -21.5599   -3.4547   25.7708 F   0  0  0  0  0  0
  -29.9937  -13.3828   20.4264 N   0  0  0  0  0  0
  -26.2941  -12.9357   20.3616 N   0  0  0  0  0  0
  -25.9325  -11.6478   20.5942 N   0  0  0  0  0  0
  -22.0419  -12.8056   22.0443 N   0  0  0  0  0  0
  -25.3909  -15.1784   20.4491 N   0  0  0  0  0  0
  -31.8467  -14.6441   20.1620 O   0  0  0  0  0  0
  -21.6614   -6.8886   21.4258 O   0  0  0  0  0  0
  -22.3435  -14.5365   20.6709 O   0  0  0  0  0  0
  -24.6362  -31.8705   23.2194 C   0  0  0  0  0  0
  -25.9237  -32.4827   23.8536 C   0  0  1  0  0  0
  -27.1970  -27.3653   20.1546 C   0  0  0  0  0  0
  -25.6097  -33.8649   24.2474 N   0  0  0  0  0  0
  -23.4411  -30.5055   21.5675 C   0  0  2  0  0  0
  -24.8706  -28.9895   20.1001 C   0  0  0  0  0  0
  -22.7774  -29.4680   22.5090 C   0  0  0  0  0  0
  -17.9727  -28.1240   22.8788 C   0  0  0  0  0  0
  -24.1506  -36.7309   23.2608 C   0  0  0  0  0  0
  -25.9779  -30.8321   21.3803 C   0  0  0  0  0  0
  -26.0452  -29.4634   20.7107 C   0  0  0  0  0  0
  -27.2170  -28.6564   20.7376 C   0  0  0  0  0  0
  -26.0148  -26.9533   19.4892 C   0  0  0  0  0  0
  -24.8585  -27.7388   19.4753 C   0  0  0  0  0  0
  -23.6399  -29.8652   20.1629 C   0  0  0  0  0  0
  -25.4131  -36.3130   24.0331 C   0  0  1  0  0  0
  -20.4600  -28.4460   22.7429 C   0  0  2  0  0  0
  -20.6824  -26.9353   22.5744 C   0  0  0  0  0  0
  -19.5384  -26.3975   21.6809 C   0  0  0  0  0  0
  -18.1176  -26.7558   22.2007 C   0  0  0  0  0  0
  -19.1059  -28.8884   23.2390 C   0  0  0  0  0  0
  -18.9463  -30.1407   23.8570 C   0  0  0  0  0  0
  -17.6614  -30.6593   24.0901 C   0  0  0  0  0  0
  -25.9113  -34.9432   23.5189 C   0  0  0  0  0  0
  -16.5308  -29.9107   23.7024 C   0  0  0  0  0  0
  -16.6889  -28.6423   23.1174 C   0  0  0  0  0  0
  -26.4531  -31.6552   25.0864 C   0  0  0  0  0  0
  -25.3713  -31.3579   26.1515 C   0  0  0  0  0  0
  -27.0353  -30.2974   24.6244 C   0  0  0  0  0  0
  -27.6071  -32.4231   25.7719 C   0  0  0  0  0  0
  -27.5609  -37.1826   24.8468 C   0  0  0  0  0  0
  -21.4503  -29.4379   22.4041 N   0  0  0  0  0  0
  -26.4324  -37.3800   23.9414 N   0  0  0  0  0  0
  -24.7070  -31.0849   22.1134 N   0  0  0  0  0  0
  -23.4274  -28.7296   23.2536 O   0  0  0  0  0  0
  -28.2358  -26.4534   20.3433 O   0  0  0  0  0  0
  -26.5480  -34.8893   22.4644 O   0  0  0  0  0  0
  -23.5548  -32.1419   23.7599 O   0  0  0  0  0  0
  -26.6457  -18.8951   19.9730 C   0  0  0  0  0  0
  -27.3825  -17.7043   20.1280 C   0  0  0  0  0  0
  -28.8188  -18.8348   21.7264 C   0  0  0  0  0  0
  -26.9698  -20.0451   20.7132 C   0  0  0  0  0  0
  -28.1670  -20.0797   21.4685 C   0  0  0  0  0  0
  -28.3901  -17.6220   21.1190 C   0  0  0  0  0  0
  -26.0240  -21.2476   20.7135 C   0  0  0  0  0  0
  -28.7041  -21.4521   21.9678 C   0  0  0  0  0  0
  -26.5439  -22.4126   21.5792 C   0  0  0  0  0  0
  -28.9050  -16.2338   21.5837 C   0  0  0  0  0  0
  -28.5989  -23.9694   21.3138 C   0  0  0  0  0  0
  -27.7723  -25.0623   20.5235 C   0  0  0  0  0  0
  -30.0893  -15.7413   20.8595 N   0  0  0  0  0  0
  -27.9845  -22.5757   21.2794 N   0  3  1  0  0  0
  -31.4527  -12.4967   19.0976 H   0  0  0  0  0  0
  -30.3508  -11.3783   19.8218 H   0  0  0  0  0  0
  -29.7177  -11.8113   17.4374 H   0  0  0  0  0  0
  -29.6081  -13.5300   17.7528 H   0  0  0  0  0  0
  -27.8513  -11.3211   18.8722 H   0  0  0  0  0  0
  -27.3155  -12.6111   17.8349 H   0  0  0  0  0  0
  -27.6901  -14.2646   19.5910 H   0  0  0  0  0  0
  -28.7238  -11.9372   21.2593 H   0  0  0  0  0  0
  -28.4765  -13.4780   21.9555 H   0  0  0  0  0  0
  -25.2760   -9.5669   22.4725 H   0  0  0  0  0  0
  -24.0013   -7.4617   22.7498 H   0  0  0  0  0  0
  -21.0790   -8.8684   19.8986 H   0  0  0  0  0  0
  -22.3662  -10.9598   19.6130 H   0  0  0  0  0  0
  -21.2053   -7.6184   23.9723 H   0  0  0  0  0  0
  -21.1437   -6.0542   25.9058 H   0  0  0  0  0  0
  -22.0631   -2.7650   23.2794 H   0  0  0  0  0  0
  -22.4044  -11.9710   22.4858 H   0  0  0  0  0  0
  -21.1081  -13.1171   22.2727 H   0  0  0  0  0  0
  -24.6087  -15.8178   20.5392 H   0  0  0  0  0  0
  -26.2427  -15.6338   20.1608 H   0  0  0  0  0  0
  -26.7334  -32.5469   23.1349 H   0  0  0  0  0  0
  -25.0495  -33.9810   25.0782 H   0  0  0  0  0  0
  -22.7344  -31.3351   21.4375 H   0  0  0  0  0  0
  -23.3781  -35.9640   23.3297 H   0  0  0  0  0  0
  -24.3645  -36.8895   22.2026 H   0  0  0  0  0  0
  -23.7223  -37.6502   23.6629 H   0  0  0  0  0  0
  -26.1121  -31.6132   20.6299 H   0  0  0  0  0  0
  -26.8569  -30.8795   22.0111 H   0  0  0  0  0  0
  -28.0967  -28.9720   21.2947 H   0  0  0  0  0  0
  -25.9273  -25.9783   19.0332 H   0  0  0  0  0  0
  -23.9639  -27.3757   18.9803 H   0  0  0  0  0  0
  -23.7506  -30.6555   19.4155 H   0  0  0  0  0  0
  -22.7646  -29.2951   19.8373 H   0  0  0  0  0  0
  -25.1323  -36.2030   25.0816 H   0  0  0  0  0  0
  -20.1602  -28.6404   21.7126 H   0  0  0  0  0  0
  -20.6571  -26.4355   23.5489 H   0  0  0  0  0  0
  -21.6617  -26.7316   22.1343 H   0  0  0  0  0  0
  -19.6355  -25.3165   21.5698 H   0  0  0  0  0  0
  -19.6566  -26.8083   20.6819 H   0  0  0  0  0  0
  -17.4097  -26.7223   21.3622 H   0  0  0  0  0  0
  -17.7531  -25.9962   22.8975 H   0  0  0  0  0  0
  -19.8245  -30.7320   24.0950 H   0  0  0  0  0  0
  -17.5598  -31.6491   24.5230 H   0  0  0  0  0  0
  -15.5402  -30.2991   23.8717 H   0  0  0  0  0  0
  -15.8174  -28.0641   22.8399 H   0  0  0  0  0  0
  -24.5949  -30.6928   25.7734 H   0  0  0  0  0  0
  -24.8884  -32.2687   26.5044 H   0  0  0  0  0  0
  -25.8009  -30.8611   27.0211 H   0  0  0  0  0  0
  -26.2877  -29.6731   24.1353 H   0  0  0  0  0  0
  -27.4126  -29.7269   25.4740 H   0  0  0  0  0  0
  -27.8718  -30.4261   23.9381 H   0  0  0  0  0  0
  -27.2660  -33.3481   26.2377 H   0  0  0  0  0  0
  -28.3911  -32.6793   25.0600 H   0  0  0  0  0  0
  -28.0686  -31.8266   26.5589 H   0  0  0  0  0  0
  -28.2630  -38.0108   24.7557 H   0  0  0  0  0  0
  -28.1084  -36.2649   24.6298 H   0  0  0  0  0  0
  -27.2333  -37.1487   25.8856 H   0  0  0  0  0  0
  -21.0706  -30.1781   21.8336 H   0  0  0  0  0  0
  -26.0217  -38.2907   24.1326 H   0  0  0  0  0  0
  -25.7899  -18.9073   19.3048 H   0  0  0  0  0  0
  -27.1121  -16.8393   19.5445 H   0  0  0  0  0  0
  -29.6404  -18.7928   22.4369 H   0  0  0  0  0  0
  -25.0520  -20.9281   21.0791 H   0  0  0  0  0  0
  -25.8406  -21.5857   19.6944 H   0  0  0  0  0  0
  -29.7656  -21.5131   21.7426 H   0  0  0  0  0  0
  -28.6030  -21.5251   23.0539 H   0  0  0  0  0  0
  -26.4033  -22.1994   22.6487 H   0  0  0  0  0  0
  -25.9205  -23.2838   21.4097 H   0  0  0  0  0  0
  -28.0732  -15.5308   21.5444 H   0  0  0  0  0  0
  -29.1602  -16.3288   22.6453 H   0  0  0  0  0  0
  -28.7294  -24.2737   22.3515 H   0  0  0  0  0  0
  -29.5899  -23.8817   20.8556 H   0  0  0  0  0  0
  -26.8463  -25.1471   21.0822 H   0  0  0  0  0  0
  -27.5289  -24.6508   19.5447 H   0  0  0  0  0  0
  -30.7524  -16.4896   20.7357 H   0  0  0  0  0  0
  -28.0506  -22.3033   20.3094 H   0  0  0  0  0  0
  1 25  1  0  0  0
  1 30  2  0  0  0
  1 83  1  0  0  0
  2  3  1  0  0  0
  2 25  1  0  0  0
  2 85  1  0  0  0
  2 86  1  0  0  0
  3  4  1  0  0  0
  3 87  1  0  0  0
  3 88  1  0  0  0
  4  5  1  0  0  0
  4 89  1  0  0  0
  4 90  1  0  0  0
  5  6  1  0  0  0
  5 26  1  0  0  0
  5 91  1  0  0  0
  6 25  1  0  0  0
  6 92  1  0  0  0
  6 93  1  0  0  0
  7  8  2  0  0  0
  7 26  1  0  0  0
  7 29  1  0  0  0
  8  9  1  0  0  0
  8 22  1  0  0  0
  9 10  1  0  0  0
  9 27  2  0  0  0
 10 11  2  0  0  0
 10 15  1  0  0  0
 11 12  1  0  0  0
 11 94  1  0  0  0
 12 13  2  0  0  0
 12 95  1  0  0  0
 13 14  1  0  0  0
 13 31  1  0  0  0
 14 15  2  0  0  0
 14 96  1  0  0  0
 15 97  1  0  0  0
 16 17  2  0  0  0
 16 21  1  0  0  0
 16 31  1  0  0  0
 17 18  1  0  0  0
 17 98  1  0  0  0
 18 19  2  0  0  0
 18 99  1  0  0  0
 19 20  1  0  0  0
 19 24  1  0  0  0
 20 21  2  0  0  0
 20100  1  0  0  0
 21 23  1  0  0  0
 22 28  1  0  0  0
 22 32  2  0  0  0
 26 27  1  0  0  0
 28101  1  0  0  0
 28102  1  0  0  0
 29103  1  0  0  0
 29104  1  0  0  0
 33 34  1  0  0  0
 33 66  1  0  0  0
 33 70  2  0  0  0
 34 36  1  0  0  0
 34 59  1  0  0  0
 34105  1  0  0  0
 35 44  2  0  0  0
 35 45  1  0  0  0
 35 68  1  0  0  0
 36 56  1  0  0  0
 36106  1  0  0  0
 37 39  1  0  0  0
 37 47  1  0  0  0
 37 66  1  0  0  0
 37107  1  0  0  0
 38 43  2  0  0  0
 38 46  1  0  0  0
 38 47  1  0  0  0
 39 64  1  0  0  0
 39 67  2  0  0  0
 40 52  1  0  0  0
 40 53  2  0  0  0
 40 58  1  0  0  0
 41108  1  0  0  0
 41109  1  0  0  0
 41110  1  0  0  0
 41 48  1  0  0  0
 42 43  1  0  0  0
 42 66  1  0  0  0
 42111  1  0  0  0
 42112  1  0  0  0
 43 44  1  0  0  0
 44113  1  0  0  0
 45 46  2  0  0  0
 45114  1  0  0  0
 46115  1  0  0  0
 47116  1  0  0  0
 47117  1  0  0  0
 48 56  1  0  0  0
 48 65  1  0  0  0
 48118  1  0  0  0
 49 50  1  0  0  0
 49 53  1  0  0  0
 49 64  1  0  0  0
 49119  1  0  0  0
 50 51  1  0  0  0
 50120  1  0  0  0
 50121  1  0  0  0
 51 52  1  0  0  0
 51122  1  0  0  0
 51123  1  0  0  0
 52124  1  0  0  0
 52125  1  0  0  0
 53 54  1  0  0  0
 54 55  2  0  0  0
 54126  1  0  0  0
 55 57  1  0  0  0
 55127  1  0  0  0
 56 69  2  0  0  0
 57 58  2  0  0  0
 57128  1  0  0  0
 58129  1  0  0  0
 59 60  1  0  0  0
 59 61  1  0  0  0
 59 62  1  0  0  0
 60130  1  0  0  0
 60131  1  0  0  0
 60132  1  0  0  0
 61133  1  0  0  0
 61134  1  0  0  0
 61135  1  0  0  0
 62136  1  0  0  0
 62137  1  0  0  0
 62138  1  0  0  0
 63 65  1  0  0  0
 63139  1  0  0  0
 63140  1  0  0  0
 63141  1  0  0  0
 64142  1  0  0  0
 65143  1  0  0  0
 68 82  1  0  0  0
 71 72  2  0  0  0
 71 74  1  0  0  0
 71144  1  0  0  0
 72 76  1  0  0  0
 72145  1  0  0  0
 73 75  1  0  0  0
 73 76  2  0  0  0
 73146  1  0  0  0
 74 75  2  0  0  0
 74 77  1  0  0  0
 75 78  1  0  0  0
 76 80  1  0  0  0
 77 79  1  0  0  0
 77147  1  0  0  0
 77148  1  0  0  0
 78 84  1  0  0  0
 78149  1  0  0  0
 78150  1  0  0  0
 79 84  1  0  0  0
 79151  1  0  0  0
 79152  1  0  0  0
 80 83  1  0  0  0
 80153  1  0  0  0
 80154  1  0  0  0
 81 82  1  0  0  0
 81155  1  0  0  0
 81156  1  0  0  0
 81 84  1  0  0  0
 82157  1  0  0  0
 82158  1  0  0  0
 83159  1  0  0  0
 84160  1  0  0  0
M  CHG  1  84   1
M  ISO  4   1 100  68 101  82 101  83 100
M  END
> <chiral flag>
0

> <version>
0

> <s_m_source_file>
/data/baiqing/PycharmProjects/Reinvent-master-3.2/result/LINK_invent/BTK/process_docking_weight1_custom_sum_contain_oxygen_bond_distance_aromatic_linkinvent_7_9_3/rearranged_h_0126.sdf

> <i_m_source_file_index>
12

> <r_mmod_Potential_Energy-OPLS-2005>
166.032089233398

> <r_mmod_Stretch_Energy-OPLS-2005>
60.762378692627

> <r_mmod_Bend_Energy-OPLS-2005>
270.878265380859

> <r_mmod_Torsional_Energy-OPLS-2005>
309.359619140625

> <r_mmod_Improper_Torsional_Energy-OPLS-2005>
11.4070329666138

> <r_mmod_Van_der_Waal_Energy-OPLS-2005>
171.034286499023

> <r_mmod_Electrostatic_Energy-OPLS-2005>
-296.742950439453

> <r_mmod_Solvation_Energy-OPLS-2005>
-436.422241210938

> <b_mmod_Minimization_Converged-OPLS-2005>
0

> <r_mmod_RMS_Derivative-OPLS-2005>
16.3186378479004

$$$$
12
                    3D
 Structure written by MMmdl.
159168  0  0  1  0            999 V2000
  -30.7518  -14.5007   20.5476 C   0  0  0  0  0  0
  -30.4080  -12.3175   19.4450 C   0  0  0  0  0  0
  -29.4939  -12.4968   18.2178 C   0  0  0  0  0  0
  -28.0172  -12.3586   18.6292 C   0  0  0  0  0  0
  -27.6567  -13.2213   19.8691 C   0  0  2  0  0  0
  -28.7026  -13.0687   20.9996 C   0  0  0  0  0  0
  -25.2564  -13.8198   20.5701 C   0  0  0  0  0  0
  -24.1835  -13.0452   20.9194 C   0  0  0  0  0  0
  -24.6411  -11.6923   20.8750 C   0  0  0  0  0  0
  -23.9080  -10.4300   21.0412 C   0  0  0  0  0  0
  -24.3626   -9.4209   21.9186 C   0  0  0  0  0  0
  -23.6299   -8.2246   22.0752 C   0  0  0  0  0  0
  -22.4282   -8.0287   21.3545 C   0  0  0  0  0  0
  -21.9922   -9.0260   20.4642 C   0  0  0  0  0  0
  -22.7254  -10.2139   20.3054 C   0  0  0  0  0  0
  -21.6854   -6.0739   22.5278 C   0  0  0  0  0  0
  -21.4015   -6.5643   23.8213 C   0  0  0  0  0  0
  -21.3660   -5.6797   24.9177 C   0  0  0  0  0  0
  -21.6043   -4.3059   24.7228 C   0  0  0  0  0  0
  -21.8820   -3.8149   23.4350 C   0  0  0  0  0  0
  -21.9192   -4.6966   22.3403 C   0  0  0  0  0  0
  -22.7850  -13.5230   21.1853 C   0  0  0  0  0  0
  -22.1658   -4.2154   21.0980 F   0  0  0  0  0  0
  -21.5630   -3.4540   25.7738 F   0  0  0  0  0  0
  -30.0313  -13.3461   20.4327 N   0  0  0  0  0  0
  -26.3011  -12.9395   20.3369 N   0  0  0  0  0  0
  -25.9346  -11.6544   20.5791 N   0  0  0  0  0  0
  -22.0496  -12.8208   22.0401 N   0  0  0  0  0  0
  -25.4267  -15.1917   20.4087 N   0  0  0  0  0  0
  -31.8888  -14.5799   20.0747 O   0  0  0  0  0  0
  -21.6646   -6.8884   21.4242 O   0  0  0  0  0  0
  -22.3533  -14.5539   20.6707 O   0  0  0  0  0  0
  -24.6162  -31.8673   23.2103 C   0  0  0  0  0  0
  -25.9052  -32.4821   23.8398 C   0  0  1  0  0  0
  -27.2301  -27.4079   20.0950 C   0  0  0  0  0  0
  -25.5899  -33.8617   24.2317 N   0  0  0  0  0  0
  -23.4061  -30.4928   21.5514 C   0  0  2  0  0  0
  -24.8530  -28.9657   20.1073 C   0  0  0  0  0  0
  -22.7425  -29.4657   22.4978 C   0  0  0  0  0  0
  -18.0263  -28.1370   22.8479 C   0  0  0  0  0  0
  -24.1490  -36.7320   23.2637 C   0  0  0  0  0  0
  -25.9394  -30.8245   21.3712 C   0  0  0  0  0  0
  -26.0160  -29.4611   20.7104 C   0  0  0  0  0  0
  -27.2069  -28.6908   20.7010 C   0  0  0  0  0  0
  -26.0501  -26.9554   19.4579 C   0  0  0  0  0  0
  -24.8675  -27.7133   19.4760 C   0  0  0  0  0  0
  -23.6149  -29.8312   20.1640 C   0  0  0  0  0  0
  -25.4113  -36.3114   24.0327 C   0  0  1  0  0  0
  -20.5863  -28.3668   23.1307 C   0  0  2  0  0  0
  -20.6757  -26.9405   22.5413 C   0  0  0  0  0  0
  -19.5736  -26.6382   21.5207 C   0  0  0  0  0  0
  -18.1912  -26.7913   22.1617 C   0  0  0  0  0  0
  -19.1522  -28.8838   23.2882 C   0  0  0  0  0  0
  -18.9453  -30.1432   23.8905 C   0  0  0  0  0  0
  -17.6460  -30.6582   24.0564 C   0  0  0  0  0  0
  -25.9042  -34.9476   23.5124 C   0  0  0  0  0  0
  -16.5346  -29.9085   23.6324 C   0  0  0  0  0  0
  -16.7257  -28.6502   23.0350 C   0  0  0  0  0  0
  -26.4466  -31.6608   25.0737 C   0  0  0  0  0  0
  -25.3720  -31.3711   26.1478 C   0  0  0  0  0  0
  -27.0311  -30.3046   24.6134 C   0  0  0  0  0  0
  -27.6042  -32.4328   25.7498 C   0  0  0  0  0  0
  -27.5581  -37.1807   24.8458 C   0  0  0  0  0  0
  -21.4149  -29.3041   22.3726 N   0  0  0  0  0  0
  -26.4299  -37.3800   23.9407 N   0  0  0  0  0  0
  -24.6722  -31.0752   22.1026 N   0  0  0  0  0  0
  -23.4195  -28.8187   23.3025 O   0  0  0  0  0  0
  -28.3787  -26.6257   20.1559 O   0  0  0  0  0  0
  -26.5622  -34.8936   22.4690 O   0  0  0  0  0  0
  -23.5350  -32.1450   23.7490 O   0  0  0  0  0  0
  -31.6000  -19.5465   21.4345 C   0  0  0  0  0  0
  -29.7355  -18.0266   21.1537 C   0  0  0  0  0  0
  -32.4318  -18.4193   21.4464 C   0  0  0  0  0  0
  -30.2122  -19.3619   21.2911 C   0  0  0  0  0  0
  -30.6386  -16.9273   21.1678 C   0  0  0  0  0  0
  -27.6265  -23.1039   21.1494 C   0  0  0  0  0  0
  -27.2882  -24.5925   21.1356 C   0  0  0  0  0  0
  -29.5277  -24.3499   20.2470 C   0  0  0  0  0  0
  -29.1579  -23.0758   21.0763 C   0  0  2  0  0  0
  -28.2262  -25.1833   20.0665 C   0  0  2  0  0  0
  -29.2714  -20.5732   21.3756 C   0  0  0  0  0  0
  -31.9635  -17.1610   21.3329 N   0  0  0  0  0  0
  -30.1115  -15.5933   21.0361 N   0  0  0  0  0  0
  -29.7209  -21.7694   20.6058 N   0  3  0  0  0  0
  -31.4560  -12.3727   19.1460 H   0  0  0  0  0  0
  -30.2805  -11.3234   19.8760 H   0  0  0  0  0  0
  -29.7385  -11.7579   17.4534 H   0  0  0  0  0  0
  -29.6643  -13.4750   17.7645 H   0  0  0  0  0  0
  -27.8332  -11.3054   18.8441 H   0  0  0  0  0  0
  -27.3675  -12.6136   17.7914 H   0  0  0  0  0  0
  -27.6825  -14.2598   19.5370 H   0  0  0  0  0  0
  -28.6826  -12.0569   21.4071 H   0  0  0  0  0  0
  -28.4698  -13.7305   21.8346 H   0  0  0  0  0  0
  -25.2773   -9.5684   22.4764 H   0  0  0  0  0  0
  -24.0006   -7.4640   22.7475 H   0  0  0  0  0  0
  -21.0857   -8.8790   19.8946 H   0  0  0  0  0  0
  -22.3723  -10.9682   19.6162 H   0  0  0  0  0  0
  -21.2009   -7.6153   23.9718 H   0  0  0  0  0  0
  -21.1480   -6.0527   25.9080 H   0  0  0  0  0  0
  -22.0598   -2.7612   23.2850 H   0  0  0  0  0  0
  -22.4112  -11.9859   22.4770 H   0  0  0  0  0  0
  -21.1110  -13.1228   22.2613 H   0  0  0  0  0  0
  -24.6578  -15.8455   20.5081 H   0  0  0  0  0  0
  -26.2741  -15.6288   20.0694 H   0  0  0  0  0  0
  -26.7131  -32.5536   23.1175 H   0  0  0  0  0  0
  -25.0033  -33.9773   25.0447 H   0  0  0  0  0  0
  -22.6957  -31.3107   21.4142 H   0  0  0  0  0  0
  -23.3750  -35.9658   23.3313 H   0  0  0  0  0  0
  -24.3589  -36.8925   22.2052 H   0  0  0  0  0  0
  -23.7241  -37.6512   23.6668 H   0  0  0  0  0  0
  -26.0608  -31.5967   20.6096 H   0  0  0  0  0  0
  -26.8243  -30.8717   21.9948 H   0  0  0  0  0  0
  -28.1003  -29.0637   21.1827 H   0  0  0  0  0  0
  -26.0134  -26.0074   18.9437 H   0  0  0  0  0  0
  -23.9785  -27.3313   18.9929 H   0  0  0  0  0  0
  -23.7227  -30.6115   19.4082 H   0  0  0  0  0  0
  -22.7392  -29.2500   19.8667 H   0  0  0  0  0  0
  -25.1283  -36.1989   25.0820 H   0  0  0  0  0  0
  -20.9931  -28.3247   24.1437 H   0  0  0  0  0  0
  -20.5675  -26.2279   23.3604 H   0  0  0  0  0  0
  -21.6624  -26.7452   22.1202 H   0  0  0  0  0  0
  -19.6916  -25.6303   21.1230 H   0  0  0  0  0  0
  -19.6681  -27.3203   20.6746 H   0  0  0  0  0  0
  -17.4181  -26.6658   21.4019 H   0  0  0  0  0  0
  -18.0307  -26.0048   22.9015 H   0  0  0  0  0  0
  -19.7942  -30.7217   24.2303 H   0  0  0  0  0  0
  -17.5033  -31.6272   24.5151 H   0  0  0  0  0  0
  -15.5352  -30.3002   23.7646 H   0  0  0  0  0  0
  -15.8648  -28.0829   22.7070 H   0  0  0  0  0  0
  -24.5893  -30.7064   25.7798 H   0  0  0  0  0  0
  -24.8913  -32.2869   26.4940 H   0  0  0  0  0  0
  -25.8057  -30.8862   27.0238 H   0  0  0  0  0  0
  -26.2870  -29.6791   24.1188 H   0  0  0  0  0  0
  -27.4059  -29.7292   25.4608 H   0  0  0  0  0  0
  -27.8722  -30.4341   23.9314 H   0  0  0  0  0  0
  -27.2660  -33.3628   26.2091 H   0  0  0  0  0  0
  -28.3846  -32.6886   25.0315 H   0  0  0  0  0  0
  -28.0729  -31.8445   26.5398 H   0  0  0  0  0  0
  -28.2582  -38.0119   24.7522 H   0  0  0  0  0  0
  -28.1086  -36.2642   24.6269 H   0  0  0  0  0  0
  -27.2303  -37.1435   25.8860 H   0  0  0  0  0  0
  -20.9329  -29.8794   21.6961 H   0  0  0  0  0  0
  -26.0187  -38.2877   24.1415 H   0  0  0  0  0  0
  -32.0422  -20.5237   21.5678 H   0  0  0  0  0  0
  -28.6733  -17.8489   21.0530 H   0  0  0  0  0  0
  -33.4998  -18.5266   21.5653 H   0  0  0  0  0  0
  -27.1885  -22.6241   20.2716 H   0  0  0  0  0  0
  -27.2356  -22.6019   22.0348 H   0  0  0  0  0  0
  -27.5107  -25.0316   22.1098 H   0  0  0  0  0  0
  -26.2316  -24.7586   20.9350 H   0  0  0  0  0  0
  -29.9602  -24.1063   19.2763 H   0  0  0  0  0  0
  -30.2738  -24.9323   20.7884 H   0  0  0  0  0  0
  -29.5357  -23.2383   22.0880 H   0  0  0  0  0  0
  -27.8478  -24.9276   19.0760 H   0  0  0  0  0  0
  -29.1912  -20.8336   22.4324 H   0  0  0  0  0  0
  -28.2697  -20.2915   21.0480 H   0  0  0  0  0  0
  -29.1413  -15.4668   21.2731 H   0  0  0  0  0  0
  -30.7234  -21.8069   20.6901 H   0  0  0  0  0  0
  -29.5094  -21.6129   19.6342 H   0  0  0  0  0  0
  1 25  1  0  0  0
  1 30  2  0  0  0
  1 83  1  0  0  0
  2  3  1  0  0  0
  2 25  1  0  0  0
  2 85  1  0  0  0
  2 86  1  0  0  0
  3  4  1  0  0  0
  3 87  1  0  0  0
  3 88  1  0  0  0
  4  5  1  0  0  0
  4 89  1  0  0  0
  4 90  1  0  0  0
  5  6  1  0  0  0
  5 26  1  0  0  0
  5 91  1  0  0  0
  6 25  1  0  0  0
  6 92  1  0  0  0
  6 93  1  0  0  0
  7  8  2  0  0  0
  7 26  1  0  0  0
  7 29  1  0  0  0
  8  9  1  0  0  0
  8 22  1  0  0  0
  9 10  1  0  0  0
  9 27  2  0  0  0
 10 11  2  0  0  0
 10 15  1  0  0  0
 11 12  1  0  0  0
 11 94  1  0  0  0
 12 13  2  0  0  0
 12 95  1  0  0  0
 13 14  1  0  0  0
 13 31  1  0  0  0
 14 15  2  0  0  0
 14 96  1  0  0  0
 15 97  1  0  0  0
 16 17  2  0  0  0
 16 21  1  0  0  0
 16 31  1  0  0  0
 17 18  1  0  0  0
 17 98  1  0  0  0
 18 19  2  0  0  0
 18 99  1  0  0  0
 19 20  1  0  0  0
 19 24  1  0  0  0
 20 21  2  0  0  0
 20100  1  0  0  0
 21 23  1  0  0  0
 22 28  1  0  0  0
 22 32  2  0  0  0
 26 27  1  0  0  0
 28101  1  0  0  0
 28102  1  0  0  0
 29103  1  0  0  0
 29104  1  0  0  0
 33 34  1  0  0  0
 33 66  1  0  0  0
 33 70  2  0  0  0
 34 36  1  0  0  0
 34 59  1  0  0  0
 34105  1  0  0  0
 35 44  2  0  0  0
 35 45  1  0  0  0
 35 68  1  0  0  0
 36 56  1  0  0  0
 36106  1  0  0  0
 37 39  1  0  0  0
 37 47  1  0  0  0
 37 66  1  0  0  0
 37107  1  0  0  0
 38 43  2  0  0  0
 38 46  1  0  0  0
 38 47  1  0  0  0
 39 64  1  0  0  0
 39 67  2  0  0  0
 40 52  1  0  0  0
 40 53  2  0  0  0
 40 58  1  0  0  0
 41108  1  0  0  0
 41109  1  0  0  0
 41110  1  0  0  0
 41 48  1  0  0  0
 42 43  1  0  0  0
 42 66  1  0  0  0
 42111  1  0  0  0
 42112  1  0  0  0
 43 44  1  0  0  0
 44113  1  0  0  0
 45 46  2  0  0  0
 45114  1  0  0  0
 46115  1  0  0  0
 47116  1  0  0  0
 47117  1  0  0  0
 48 56  1  0  0  0
 48 65  1  0  0  0
 48118  1  0  0  0
 49 50  1  0  0  0
 49 53  1  0  0  0
 49 64  1  0  0  0
 49119  1  0  0  0
 50 51  1  0  0  0
 50120  1  0  0  0
 50121  1  0  0  0
 51 52  1  0  0  0
 51122  1  0  0  0
 51123  1  0  0  0
 52124  1  0  0  0
 52125  1  0  0  0
 53 54  1  0  0  0
 54 55  2  0  0  0
 54126  1  0  0  0
 55 57  1  0  0  0
 55127  1  0  0  0
 56 69  2  0  0  0
 57 58  2  0  0  0
 57128  1  0  0  0
 58129  1  0  0  0
 59 60  1  0  0  0
 59 61  1  0  0  0
 59 62  1  0  0  0
 60130  1  0  0  0
 60131  1  0  0  0
 60132  1  0  0  0
 61133  1  0  0  0
 61134  1  0  0  0
 61135  1  0  0  0
 62136  1  0  0  0
 62137  1  0  0  0
 62138  1  0  0  0
 63 65  1  0  0  0
 63139  1  0  0  0
 63140  1  0  0  0
 63141  1  0  0  0
 64142  1  0  0  0
 65143  1  0  0  0
 68 80  1  0  0  0
 71 73  2  0  0  0
 71 74  1  0  0  0
 71144  1  0  0  0
 72 74  2  0  0  0
 72 75  1  0  0  0
 72145  1  0  0  0
 73 82  1  0  0  0
 73146  1  0  0  0
 74 81  1  0  0  0
 75 82  2  0  0  0
 75 83  1  0  0  0
 76 77  1  0  0  0
 76 79  1  0  0  0
 76147  1  0  0  0
 76148  1  0  0  0
 77 80  1  0  0  0
 77149  1  0  0  0
 77150  1  0  0  0
 78 79  1  0  0  0
 78 80  1  0  0  0
 78151  1  0  0  0
 78152  1  0  0  0
 79 84  1  0  0  0
 79153  1  0  0  0
 80154  1  0  0  0
 81 84  1  0  0  0
 81155  1  0  0  0
 81156  1  0  0  0
 83157  1  0  0  0
 84158  1  0  0  0
 84159  1  0  0  0
M  CHG  1  84   1
M  ISO  4   1 100  68 101  80 101  83 100
M  END
> <chiral flag>
0

> <version>
0

> <s_m_source_file>
/data/baiqing/PycharmProjects/Reinvent-master-3.2/result/LINK_invent/BTK/process_docking_weight1_custom_sum_contain_oxygen_bond_distance_aromatic_linkinvent_7_9_3/rearranged_h_0126.sdf

> <i_m_source_file_index>
13

> <r_mmod_Potential_Energy-OPLS-2005>
-365.100189208984

> <r_mmod_Stretch_Energy-OPLS-2005>
45.809211730957

> <r_mmod_Bend_Energy-OPLS-2005>
134.830093383789

> <r_mmod_Torsional_Energy-OPLS-2005>
249.352874755859

> <r_mmod_Improper_Torsional_Energy-OPLS-2005>
3.93719077110291

> <r_mmod_Van_der_Waal_Energy-OPLS-2005>
159.713729858398

> <r_mmod_Electrostatic_Energy-OPLS-2005>
-454.805297851562

> <r_mmod_Solvation_Energy-OPLS-2005>
-525.815002441406

> <b_mmod_Minimization_Converged-OPLS-2005>
0

> <r_mmod_RMS_Derivative-OPLS-2005>
1.54318201541901

$$$$
13
                    3D
 Structure written by MMmdl.
168177  0  0  1  0            999 V2000
  -30.7189  -14.4481   20.5764 C   0  0  0  0  0  0
  -30.4175  -12.2953   19.4088 C   0  0  0  0  0  0
  -29.4901  -12.5028   18.1948 C   0  0  0  0  0  0
  -28.0106  -12.3695   18.6087 C   0  0  0  0  0  0
  -27.6617  -13.2056   19.8702 C   0  0  2  0  0  0
  -28.7047  -12.9803   20.9872 C   0  0  0  0  0  0
  -25.2595  -13.8151   20.5647 C   0  0  0  0  0  0
  -24.1848  -13.0439   20.9172 C   0  0  0  0  0  0
  -24.6394  -11.6903   20.8722 C   0  0  0  0  0  0
  -23.9058  -10.4290   21.0394 C   0  0  0  0  0  0
  -24.3617   -9.4207   21.9170 C   0  0  0  0  0  0
  -23.6298   -8.2245   22.0748 C   0  0  0  0  0  0
  -22.4275   -8.0282   21.3549 C   0  0  0  0  0  0
  -21.9907   -9.0249   20.4642 C   0  0  0  0  0  0
  -22.7232  -10.2128   20.3043 C   0  0  0  0  0  0
  -21.6849   -6.0738   22.5279 C   0  0  0  0  0  0
  -21.4021   -6.5641   23.8218 C   0  0  0  0  0  0
  -21.3658   -5.6791   24.9174 C   0  0  0  0  0  0
  -21.6039   -4.3056   24.7221 C   0  0  0  0  0  0
  -21.8822   -3.8148   23.4344 C   0  0  0  0  0  0
  -21.9202   -4.6965   22.3399 C   0  0  0  0  0  0
  -22.7877  -13.5246   21.1843 C   0  0  0  0  0  0
  -22.1665   -4.2152   21.0981 F   0  0  0  0  0  0
  -21.5624   -3.4538   25.7733 F   0  0  0  0  0  0
  -30.0343  -13.2811   20.4295 N   0  0  0  0  0  0
  -26.3029  -12.9320   20.3335 N   0  0  0  0  0  0
  -25.9321  -11.6480   20.5737 N   0  0  0  0  0  0
  -22.0526  -12.8228   22.0400 N   0  0  0  0  0  0
  -25.4319  -15.1858   20.4005 N   0  0  0  0  0  0
  -31.8364  -14.6329   20.0903 O   0  0  0  0  0  0
  -21.6646   -6.8877   21.4242 O   0  0  0  0  0  0
  -22.3563  -14.5555   20.6695 O   0  0  0  0  0  0
  -24.6152  -31.8668   23.2082 C   0  0  0  0  0  0
  -25.9038  -32.4822   23.8379 C   0  0  1  0  0  0
  -27.2420  -27.4294   20.0871 C   0  0  0  0  0  0
  -25.5890  -33.8618   24.2328 N   0  0  0  0  0  0
  -23.4018  -30.4906   21.5478 C   0  0  2  0  0  0
  -24.8456  -28.9512   20.1162 C   0  0  0  0  0  0
  -22.7404  -29.4648   22.4970 C   0  0  0  0  0  0
  -18.0265  -28.1389   22.8487 C   0  0  0  0  0  0
  -24.1477  -36.7304   23.2646 C   0  0  0  0  0  0
  -25.9313  -30.8297   21.3585 C   0  0  0  0  0  0
  -26.0064  -29.4628   20.7083 C   0  0  0  0  0  0
  -27.2027  -28.7110   20.6878 C   0  0  0  0  0  0
  -26.0555  -26.9246   19.5050 C   0  0  0  0  0  0
  -24.8662  -27.6814   19.5147 C   0  0  0  0  0  0
  -23.6089  -29.8211   20.1626 C   0  0  0  0  0  0
  -25.4101  -36.3116   24.0350 C   0  0  1  0  0  0
  -20.5851  -28.3653   23.1330 C   0  0  2  0  0  0
  -20.6764  -26.9396   22.5419 C   0  0  0  0  0  0
  -19.5747  -26.6382   21.5217 C   0  0  0  0  0  0
  -18.1916  -26.7941   22.1607 C   0  0  0  0  0  0
  -19.1514  -28.8842   23.2911 C   0  0  0  0  0  0
  -18.9452  -30.1459   23.8904 C   0  0  0  0  0  0
  -17.6460  -30.6599   24.0567 C   0  0  0  0  0  0
  -25.9036  -34.9478   23.5136 C   0  0  0  0  0  0
  -16.5349  -29.9106   23.6329 C   0  0  0  0  0  0
  -16.7254  -28.6522   23.0344 C   0  0  0  0  0  0
  -26.4456  -31.6612   25.0709 C   0  0  0  0  0  0
  -25.3730  -31.3722   26.1472 C   0  0  0  0  0  0
  -27.0284  -30.3053   24.6075 C   0  0  0  0  0  0
  -27.6041  -32.4323   25.7465 C   0  0  0  0  0  0
  -27.5582  -37.1812   24.8476 C   0  0  0  0  0  0
  -21.4124  -29.3021   22.3733 N   0  0  0  0  0  0
  -26.4288  -37.3804   23.9427 N   0  0  0  0  0  0
  -24.6674  -31.0782   22.0958 N   0  0  0  0  0  0
  -23.4186  -28.8194   23.3004 O   0  0  0  0  0  0
  -28.4526  -26.7604   20.0622 O   0  0  0  0  0  0
  -26.5608  -34.8938   22.4708 O   0  0  0  0  0  0
  -23.5343  -32.1407   23.7482 O   0  0  0  0  0  0
  -29.6009  -22.4384   20.3865 C   0  0  0  0  0  0
  -29.9167  -21.0699   20.5661 C   0  0  0  0  0  0
  -28.1357  -22.3447   22.3176 C   0  0  0  0  0  0
  -28.7202  -23.0993   21.2774 C   0  0  0  0  0  0
  -28.4499  -20.9811   22.5090 C   0  0  0  0  0  0
  -29.3710  -20.3357   21.6453 C   0  0  0  0  0  0
  -25.4758  -17.5517   23.6235 C   0  0  0  0  0  0
  -25.4277  -19.0588   23.8960 C   0  0  0  0  0  0
  -26.9991  -17.6901   23.5642 C   0  0  0  0  0  0
  -26.7955  -19.1737   23.2029 C   0  0  0  0  0  0
  -27.7996  -20.2324   23.6712 C   0  0  0  0  0  0
  -28.4472  -24.6115   21.2343 C   0  0  0  0  0  0
  -29.8789  -17.9620   20.9522 C   0  0  0  0  0  0
  -30.6230  -16.7446   21.5649 C   0  0  0  0  0  0
  -28.5344  -25.3370   19.8725 C   0  0  0  0  0  0
  -29.7723  -19.0223   21.9496 N   0  0  0  0  0  0
  -30.0633  -15.4360   21.2057 N   0  0  0  0  0  0
  -31.4632  -12.3833   19.1071 H   0  0  0  0  0  0
  -30.3085  -11.2837   19.8026 H   0  0  0  0  0  0
  -29.7257  -11.7791   17.4128 H   0  0  0  0  0  0
  -29.6632  -13.4898   17.7612 H   0  0  0  0  0  0
  -27.8152  -11.3133   18.7969 H   0  0  0  0  0  0
  -27.3619  -12.6517   17.7786 H   0  0  0  0  0  0
  -27.7088  -14.2538   19.5768 H   0  0  0  0  0  0
  -28.6758  -11.9429   21.3228 H   0  0  0  0  0  0
  -28.4658  -13.5756   21.8694 H   0  0  0  0  0  0
  -25.2765   -9.5688   22.4730 H   0  0  0  0  0  0
  -24.0012   -7.4639   22.7464 H   0  0  0  0  0  0
  -21.0844   -8.8759   19.8946 H   0  0  0  0  0  0
  -22.3692  -10.9660   19.6145 H   0  0  0  0  0  0
  -21.2012   -7.6152   23.9718 H   0  0  0  0  0  0
  -21.1474   -6.0523   25.9078 H   0  0  0  0  0  0
  -22.0603   -2.7611   23.2841 H   0  0  0  0  0  0
  -22.4157  -11.9891   22.4779 H   0  0  0  0  0  0
  -21.1129  -13.1225   22.2579 H   0  0  0  0  0  0
  -24.6636  -15.8389   20.4971 H   0  0  0  0  0  0
  -26.2844  -15.6216   20.0734 H   0  0  0  0  0  0
  -26.7105  -32.5507   23.1134 H   0  0  0  0  0  0
  -25.0047  -33.9784   25.0472 H   0  0  0  0  0  0
  -22.6927  -31.3083   21.4080 H   0  0  0  0  0  0
  -23.3749  -35.9628   23.3319 H   0  0  0  0  0  0
  -24.3569  -36.8905   22.2062 H   0  0  0  0  0  0
  -23.7233  -37.6517   23.6635 H   0  0  0  0  0  0
  -26.0529  -31.5919   20.5885 H   0  0  0  0  0  0
  -26.8199  -30.8802   21.9766 H   0  0  0  0  0  0
  -28.1017  -29.1138   21.1333 H   0  0  0  0  0  0
  -26.0198  -25.9630   19.0185 H   0  0  0  0  0  0
  -23.9717  -27.2794   19.0567 H   0  0  0  0  0  0
  -23.7160  -30.5947   19.4012 H   0  0  0  0  0  0
  -22.7321  -29.2419   19.8684 H   0  0  0  0  0  0
  -25.1282  -36.1979   25.0848 H   0  0  0  0  0  0
  -20.9940  -28.3205   24.1447 H   0  0  0  0  0  0
  -20.5677  -26.2244   23.3583 H   0  0  0  0  0  0
  -21.6640  -26.7453   22.1214 H   0  0  0  0  0  0
  -19.6905  -25.6297   21.1233 H   0  0  0  0  0  0
  -19.6721  -27.3208   20.6770 H   0  0  0  0  0  0
  -17.4199  -26.6681   21.4004 H   0  0  0  0  0  0
  -18.0314  -26.0104   22.9019 H   0  0  0  0  0  0
  -19.7936  -30.7275   24.2255 H   0  0  0  0  0  0
  -17.5026  -31.6283   24.5174 H   0  0  0  0  0  0
  -15.5355  -30.3027   23.7676 H   0  0  0  0  0  0
  -15.8632  -28.0874   22.7042 H   0  0  0  0  0  0
  -24.5885  -30.7081   25.7827 H   0  0  0  0  0  0
  -24.8931  -32.2872   26.4936 H   0  0  0  0  0  0
  -25.8086  -30.8884   27.0219 H   0  0  0  0  0  0
  -26.2815  -29.6821   24.1129 H   0  0  0  0  0  0
  -27.4090  -29.7284   25.4519 H   0  0  0  0  0  0
  -27.8627  -30.4406   23.9192 H   0  0  0  0  0  0
  -27.2672  -33.3618   26.2058 H   0  0  0  0  0  0
  -28.3822  -32.6890   25.0272 H   0  0  0  0  0  0
  -28.0713  -31.8428   26.5367 H   0  0  0  0  0  0
  -28.2619  -38.0093   24.7529 H   0  0  0  0  0  0
  -28.1057  -36.2631   24.6277 H   0  0  0  0  0  0
  -27.2301  -37.1460   25.8880 H   0  0  0  0  0  0
  -20.9263  -29.8729   21.6961 H   0  0  0  0  0  0
  -26.0170  -38.2878   24.1429 H   0  0  0  0  0  0
  -30.0815  -22.9746   19.5800 H   0  0  0  0  0  0
  -30.6301  -20.6102   19.8983 H   0  0  0  0  0  0
  -27.4625  -22.8341   23.0091 H   0  0  0  0  0  0
  -25.0399  -17.2806   22.6587 H   0  0  0  0  0  0
  -25.0983  -16.9219   24.4305 H   0  0  0  0  0  0
  -25.4691  -19.2935   24.9609 H   0  0  0  0  0  0
  -24.6146  -19.5895   23.3979 H   0  0  0  0  0  0
  -27.4816  -17.0867   22.7939 H   0  0  0  0  0  0
  -27.4709  -17.5433   24.5380 H   0  0  0  0  0  0
  -26.6157  -19.2551   22.1288 H   0  0  0  0  0  0
  -27.3078  -20.9488   24.3279 H   0  0  0  0  0  0
  -28.5815  -19.7823   24.2842 H   0  0  0  0  0  0
  -29.1640  -25.0778   21.9104 H   0  0  0  0  0  0
  -27.4633  -24.8086   21.6637 H   0  0  0  0  0  0
  -28.8688  -17.6819   20.6467 H   0  0  0  0  0  0
  -30.3959  -18.3085   20.0568 H   0  0  0  0  0  0
  -30.5732  -16.7830   22.6542 H   0  0  0  0  0  0
  -31.6858  -16.8134   21.3276 H   0  0  0  0  0  0
  -27.8237  -24.9378   19.1519 H   0  0  0  0  0  0
  -29.5178  -25.1625   19.4360 H   0  0  0  0  0  0
  -29.3690  -18.6863   22.8187 H   0  0  0  0  0  0
  -29.1363  -15.2204   21.5396 H   0  0  0  0  0  0
  1 25  1  0  0  0
  1 30  2  0  0  0
  1 87  1  0  0  0
  2  3  1  0  0  0
  2 25  1  0  0  0
  2 88  1  0  0  0
  2 89  1  0  0  0
  3  4  1  0  0  0
  3 90  1  0  0  0
  3 91  1  0  0  0
  4  5  1  0  0  0
  4 92  1  0  0  0
  4 93  1  0  0  0
  5  6  1  0  0  0
  5 26  1  0  0  0
  5 94  1  0  0  0
  6 25  1  0  0  0
  6 95  1  0  0  0
  6 96  1  0  0  0
  7  8  2  0  0  0
  7 26  1  0  0  0
  7 29  1  0  0  0
  8  9  1  0  0  0
  8 22  1  0  0  0
  9 10  1  0  0  0
  9 27  2  0  0  0
 10 11  2  0  0  0
 10 15  1  0  0  0
 11 12  1  0  0  0
 11 97  1  0  0  0
 12 13  2  0  0  0
 12 98  1  0  0  0
 13 14  1  0  0  0
 13 31  1  0  0  0
 14 15  2  0  0  0
 14 99  1  0  0  0
 15100  1  0  0  0
 16 17  2  0  0  0
 16 21  1  0  0  0
 16 31  1  0  0  0
 17 18  1  0  0  0
 17101  1  0  0  0
 18 19  2  0  0  0
 18102  1  0  0  0
 19 20  1  0  0  0
 19 24  1  0  0  0
 20 21  2  0  0  0
 20103  1  0  0  0
 21 23  1  0  0  0
 22 28  1  0  0  0
 22 32  2  0  0  0
 26 27  1  0  0  0
 28104  1  0  0  0
 28105  1  0  0  0
 29106  1  0  0  0
 29107  1  0  0  0
 33 34  1  0  0  0
 33 66  1  0  0  0
 33 70  2  0  0  0
 34 36  1  0  0  0
 34 59  1  0  0  0
 34108  1  0  0  0
 35 44  2  0  0  0
 35 45  1  0  0  0
 35 68  1  0  0  0
 36 56  1  0  0  0
 36109  1  0  0  0
 37 39  1  0  0  0
 37 47  1  0  0  0
 37 66  1  0  0  0
 37110  1  0  0  0
 38 43  2  0  0  0
 38 46  1  0  0  0
 38 47  1  0  0  0
 39 64  1  0  0  0
 39 67  2  0  0  0
 40 52  1  0  0  0
 40 53  2  0  0  0
 40 58  1  0  0  0
 41111  1  0  0  0
 41112  1  0  0  0
 41113  1  0  0  0
 41 48  1  0  0  0
 42 43  1  0  0  0
 42 66  1  0  0  0
 42114  1  0  0  0
 42115  1  0  0  0
 43 44  1  0  0  0
 44116  1  0  0  0
 45 46  2  0  0  0
 45117  1  0  0  0
 46118  1  0  0  0
 47119  1  0  0  0
 47120  1  0  0  0
 48 56  1  0  0  0
 48 65  1  0  0  0
 48121  1  0  0  0
 49 50  1  0  0  0
 49 53  1  0  0  0
 49 64  1  0  0  0
 49122  1  0  0  0
 50 51  1  0  0  0
 50123  1  0  0  0
 50124  1  0  0  0
 51 52  1  0  0  0
 51125  1  0  0  0
 51126  1  0  0  0
 52127  1  0  0  0
 52128  1  0  0  0
 53 54  1  0  0  0
 54 55  2  0  0  0
 54129  1  0  0  0
 55 57  1  0  0  0
 55130  1  0  0  0
 56 69  2  0  0  0
 57 58  2  0  0  0
 57131  1  0  0  0
 58132  1  0  0  0
 59 60  1  0  0  0
 59 61  1  0  0  0
 59 62  1  0  0  0
 60133  1  0  0  0
 60134  1  0  0  0
 60135  1  0  0  0
 61136  1  0  0  0
 61137  1  0  0  0
 61138  1  0  0  0
 62139  1  0  0  0
 62140  1  0  0  0
 62141  1  0  0  0
 63 65  1  0  0  0
 63142  1  0  0  0
 63143  1  0  0  0
 63144  1  0  0  0
 64145  1  0  0  0
 65146  1  0  0  0
 68 85  1  0  0  0
 71 72  2  0  0  0
 71 74  1  0  0  0
 71147  1  0  0  0
 72 76  1  0  0  0
 72148  1  0  0  0
 73 74  2  0  0  0
 73 75  1  0  0  0
 73149  1  0  0  0
 74 82  1  0  0  0
 75 76  2  0  0  0
 75 81  1  0  0  0
 76 86  1  0  0  0
 77 78  1  0  0  0
 77 79  1  0  0  0
 77150  1  0  0  0
 77151  1  0  0  0
 78 80  1  0  0  0
 78152  1  0  0  0
 78153  1  0  0  0
 79 80  1  0  0  0
 79154  1  0  0  0
 79155  1  0  0  0
 80 81  1  0  0  0
 80156  1  0  0  0
 81157  1  0  0  0
 81158  1  0  0  0
 82 85  1  0  0  0
 82159  1  0  0  0
 82160  1  0  0  0
 83 84  1  0  0  0
 83 86  1  0  0  0
 83161  1  0  0  0
 83162  1  0  0  0
 84 87  1  0  0  0
 84163  1  0  0  0
 84164  1  0  0  0
 85165  1  0  0  0
 85166  1  0  0  0
 86167  1  0  0  0
 87168  1  0  0  0
M  ISO  4   1 100  68 101  85 101  87 100
M  END
> <chiral flag>
0

> <version>
0

> <s_m_source_file>
/data/baiqing/PycharmProjects/Reinvent-master-3.2/result/LINK_invent/BTK/process_docking_weight1_custom_sum_contain_oxygen_bond_distance_aromatic_linkinvent_7_9_3/rearranged_h_0126.sdf

> <i_m_source_file_index>
14

> <r_mmod_Potential_Energy-OPLS-2005>
-67.9805679321289

> <r_mmod_Stretch_Energy-OPLS-2005>
38.1525917053223

> <r_mmod_Bend_Energy-OPLS-2005>
134.882110595703

> <r_mmod_Torsional_Energy-OPLS-2005>
220.690307617188

> <r_mmod_Improper_Torsional_Energy-OPLS-2005>
6.61768054962158

> <r_mmod_Van_der_Waal_Energy-OPLS-2005>
146.788864135742

> <r_mmod_Electrostatic_Energy-OPLS-2005>
-419.465087890625

> <r_mmod_Solvation_Energy-OPLS-2005>
-207.164352416992

> <b_mmod_Minimization_Converged-OPLS-2005>
0

> <r_mmod_RMS_Derivative-OPLS-2005>
2.48608207702637

$$$$
14
                    3D
 Structure written by MMmdl.
153161  0  0  1  0            999 V2000
  -30.6927  -14.5926   20.5167 C   0  0  0  0  0  0
  -30.4204  -12.3716   19.4493 C   0  0  0  0  0  0
  -29.4949  -12.4924   18.2215 C   0  0  0  0  0  0
  -28.0222  -12.3343   18.6424 C   0  0  0  0  0  0
  -27.6498  -13.2203   19.8607 C   0  0  2  0  0  0
  -28.6958  -13.1011   20.9917 C   0  0  0  0  0  0
  -25.2540  -13.8184   20.5691 C   0  0  0  0  0  0
  -24.1810  -13.0446   20.9197 C   0  0  0  0  0  0
  -24.6382  -11.6914   20.8752 C   0  0  0  0  0  0
  -23.9056  -10.4294   21.0411 C   0  0  0  0  0  0
  -24.3607   -9.4208   21.9188 C   0  0  0  0  0  0
  -23.6286   -8.2241   22.0753 C   0  0  0  0  0  0
  -22.4269   -8.0276   21.3541 C   0  0  0  0  0  0
  -21.9905   -9.0248   20.4642 C   0  0  0  0  0  0
  -22.7230  -10.2132   20.3056 C   0  0  0  0  0  0
  -21.6858   -6.0729   22.5274 C   0  0  0  0  0  0
  -21.4012   -6.5637   23.8206 C   0  0  0  0  0  0
  -21.3660   -5.6792   24.9169 C   0  0  0  0  0  0
  -21.6046   -4.3052   24.7222 C   0  0  0  0  0  0
  -21.8820   -3.8140   23.4346 C   0  0  0  0  0  0
  -21.9192   -4.6956   22.3399 C   0  0  0  0  0  0
  -22.7832  -13.5235   21.1863 C   0  0  0  0  0  0
  -22.1664   -4.2143   21.0978 F   0  0  0  0  0  0
  -21.5631   -3.4535   25.7736 F   0  0  0  0  0  0
  -30.0113  -13.4107   20.4150 N   0  0  0  0  0  0
  -26.2972  -12.9372   20.3341 N   0  0  0  0  0  0
  -25.9316  -11.6524   20.5786 N   0  0  0  0  0  0
  -22.0481  -12.8214   22.0413 N   0  0  0  0  0  0
  -25.4265  -15.1901   20.4083 N   0  0  0  0  0  0
  -31.8624  -14.6878   20.1398 O   0  0  0  0  0  0
  -21.6641   -6.8870   21.4235 O   0  0  0  0  0  0
  -22.3518  -14.5547   20.6725 O   0  0  0  0  0  0
  -24.6245  -31.8644   23.2091 C   0  0  0  0  0  0
  -25.9106  -32.4811   23.8396 C   0  0  1  0  0  0
  -27.2078  -27.3293   20.1008 C   0  0  0  0  0  0
  -25.5945  -33.8612   24.2316 N   0  0  0  0  0  0
  -23.4166  -30.4945   21.5520 C   0  0  2  0  0  0
  -24.8597  -28.9689   20.1070 C   0  0  0  0  0  0
  -22.7475  -29.4649   22.4943 C   0  0  0  0  0  0
  -18.0290  -28.1382   22.8488 C   0  0  0  0  0  0
  -24.1489  -36.7294   23.2639 C   0  0  0  0  0  0
  -25.9612  -30.7963   21.3840 C   0  0  0  0  0  0
  -26.0316  -29.4282   20.7218 C   0  0  0  0  0  0
  -27.2073  -28.6173   20.7196 C   0  0  0  0  0  0
  -26.0113  -26.9488   19.4365 C   0  0  0  0  0  0
  -24.8517  -27.7331   19.4568 C   0  0  0  0  0  0
  -23.6291  -29.8462   20.1623 C   0  0  0  0  0  0
  -25.4112  -36.3098   24.0332 C   0  0  1  0  0  0
  -20.5892  -28.3679   23.1287 C   0  0  2  0  0  0
  -20.6783  -26.9404   22.5403 C   0  0  0  0  0  0
  -19.5757  -26.6383   21.5210 C   0  0  0  0  0  0
  -18.1934  -26.7928   22.1620 C   0  0  0  0  0  0
  -19.1541  -28.8846   23.2888 C   0  0  0  0  0  0
  -18.9470  -30.1453   23.8899 C   0  0  0  0  0  0
  -17.6468  -30.6588   24.0562 C   0  0  0  0  0  0
  -25.9047  -34.9470   23.5110 C   0  0  0  0  0  0
  -16.5355  -29.9083   23.6337 C   0  0  0  0  0  0
  -16.7277  -28.6501   23.0353 C   0  0  0  0  0  0
  -26.4498  -31.6608   25.0748 C   0  0  0  0  0  0
  -25.3733  -31.3730   26.1474 C   0  0  0  0  0  0
  -27.0343  -30.3039   24.6181 C   0  0  0  0  0  0
  -27.6065  -32.4334   25.7515 C   0  0  0  0  0  0
  -27.5578  -37.1805   24.8468 C   0  0  0  0  0  0
  -21.4189  -29.3043   22.3689 N   0  0  0  0  0  0
  -26.4290  -37.3789   23.9413 N   0  0  0  0  0  0
  -24.6862  -31.0671   22.1049 N   0  0  0  0  0  0
  -23.4209  -28.8162   23.2990 O   0  0  0  0  0  0
  -28.2955  -26.4350   20.1758 O   0  0  0  0  0  0
  -26.5602  -34.8927   22.4669 O   0  0  0  0  0  0
  -23.5408  -32.1442   23.7416 O   0  0  0  0  0  0
  -29.5279  -22.0292   21.7444 C   0  0  0  0  0  0
  -29.6612  -21.5725   19.3802 C   0  0  0  0  0  0
  -29.0322  -23.3395   21.4751 C   0  0  0  0  0  0
  -29.1702  -22.8792   19.1125 C   0  0  0  0  0  0
  -29.8348  -21.1089   20.7048 C   0  0  0  0  0  0
  -28.8310  -23.7908   20.1473 C   0  0  0  0  0  0
  -30.4827  -19.7204   21.0047 C   0  0  0  0  0  0
  -27.9720  -25.0443   19.7978 C   0  0  0  0  0  0
  -29.7105  -18.3652   20.7379 C   0  0  0  0  0  0
  -30.5971  -17.0843   21.0288 C   0  0  0  0  0  0
  -30.0019  -15.7131   20.8808 N   0  0  0  0  0  0
  -31.4638  -12.4687   19.1437 H   0  0  0  0  0  0
  -30.3331  -11.3823   19.9020 H   0  0  0  0  0  0
  -29.7525  -11.7363   17.4783 H   0  0  0  0  0  0
  -29.6400  -13.4602   17.7392 H   0  0  0  0  0  0
  -27.8653  -11.2841   18.8912 H   0  0  0  0  0  0
  -27.3606  -12.5482   17.8024 H   0  0  0  0  0  0
  -27.6650  -14.2511   19.5061 H   0  0  0  0  0  0
  -28.6990  -12.0938   21.4105 H   0  0  0  0  0  0
  -28.4524  -13.7709   21.8177 H   0  0  0  0  0  0
  -25.2748   -9.5689   22.4770 H   0  0  0  0  0  0
  -23.9995   -7.4633   22.7473 H   0  0  0  0  0  0
  -21.0840   -8.8760   19.8948 H   0  0  0  0  0  0
  -22.3683  -10.9667   19.6167 H   0  0  0  0  0  0
  -21.2003   -7.6145   23.9707 H   0  0  0  0  0  0
  -21.1485   -6.0522   25.9072 H   0  0  0  0  0  0
  -22.0599   -2.7601   23.2847 H   0  0  0  0  0  0
  -22.4097  -11.9857   22.4765 H   0  0  0  0  0  0
  -21.1104  -13.1236   22.2645 H   0  0  0  0  0  0
  -24.6605  -15.8471   20.5084 H   0  0  0  0  0  0
  -26.2780  -15.6242   20.0742 H   0  0  0  0  0  0
  -26.7168  -32.5477   23.1139 H   0  0  0  0  0  0
  -25.0131  -33.9784   25.0487 H   0  0  0  0  0  0
  -22.7090  -31.3152   21.4174 H   0  0  0  0  0  0
  -23.3767  -35.9615   23.3302 H   0  0  0  0  0  0
  -24.3577  -36.8901   22.2052 H   0  0  0  0  0  0
  -23.7226  -37.6491   23.6652 H   0  0  0  0  0  0
  -26.0947  -31.5627   20.6192 H   0  0  0  0  0  0
  -26.8417  -30.8404   22.0125 H   0  0  0  0  0  0
  -28.0988  -28.9578   21.2280 H   0  0  0  0  0  0
  -25.9097  -26.0229   18.8929 H   0  0  0  0  0  0
  -23.9587  -27.3827   18.9573 H   0  0  0  0  0  0
  -23.7468  -30.6311   19.4142 H   0  0  0  0  0  0
  -22.7487  -29.2787   19.8545 H   0  0  0  0  0  0
  -25.1287  -36.1956   25.0824 H   0  0  0  0  0  0
  -20.9985  -28.3243   24.1403 H   0  0  0  0  0  0
  -20.5699  -26.2279   23.3597 H   0  0  0  0  0  0
  -21.6645  -26.7447   22.1179 H   0  0  0  0  0  0
  -19.6923  -25.6299   21.1229 H   0  0  0  0  0  0
  -19.6697  -27.3206   20.6748 H   0  0  0  0  0  0
  -17.4205  -26.6688   21.4023 H   0  0  0  0  0  0
  -18.0328  -26.0065   22.9006 H   0  0  0  0  0  0
  -19.7945  -30.7274   24.2261 H   0  0  0  0  0  0
  -17.5024  -31.6269   24.5161 H   0  0  0  0  0  0
  -15.5363  -30.2989   23.7674 H   0  0  0  0  0  0
  -15.8669  -28.0830   22.7065 H   0  0  0  0  0  0
  -24.5932  -30.7052   25.7804 H   0  0  0  0  0  0
  -24.8901  -32.2890   26.4885 H   0  0  0  0  0  0
  -25.8064  -30.8930   27.0258 H   0  0  0  0  0  0
  -26.2916  -29.6795   24.1204 H   0  0  0  0  0  0
  -27.4066  -29.7280   25.4664 H   0  0  0  0  0  0
  -27.8775  -30.4348   23.9393 H   0  0  0  0  0  0
  -27.2694  -33.3654   26.2063 H   0  0  0  0  0  0
  -28.3899  -32.6851   25.0354 H   0  0  0  0  0  0
  -28.0707  -31.8468   26.5454 H   0  0  0  0  0  0
  -28.2593  -38.0105   24.7514 H   0  0  0  0  0  0
  -28.1072  -36.2633   24.6290 H   0  0  0  0  0  0
  -27.2291  -37.1439   25.8870 H   0  0  0  0  0  0
  -20.9354  -29.8791   21.6931 H   0  0  0  0  0  0
  -26.0173  -38.2862   24.1430 H   0  0  0  0  0  0
  -29.6696  -21.7321   22.7744 H   0  0  0  0  0  0
  -29.9030  -20.9201   18.5519 H   0  0  0  0  0  0
  -28.7544  -23.9794   22.3014 H   0  0  0  0  0  0
  -28.9999  -23.1604   18.0830 H   0  0  0  0  0  0
  -30.7985  -19.7257   22.0488 H   0  0  0  0  0  0
  -31.4114  -19.6907   20.4337 H   0  0  0  0  0  0
  -27.0185  -24.7752   20.2555 H   0  0  0  0  0  0
  -27.8254  -25.0311   18.7164 H   0  0  0  0  0  0
  -29.3767  -18.3427   19.7001 H   0  0  0  0  0  0
  -28.8097  -18.3391   21.3522 H   0  0  0  0  0  0
  -30.9689  -17.1505   22.0521 H   0  0  0  0  0  0
  -31.4829  -17.1569   20.3953 H   0  0  0  0  0  0
  -29.0304  -15.5923   21.1273 H   0  0  0  0  0  0
  1 25  1  0  0  0
  1 30  2  0  0  0
  1 81  1  0  0  0
  2  3  1  0  0  0
  2 25  1  0  0  0
  2 82  1  0  0  0
  2 83  1  0  0  0
  3  4  1  0  0  0
  3 84  1  0  0  0
  3 85  1  0  0  0
  4  5  1  0  0  0
  4 86  1  0  0  0
  4 87  1  0  0  0
  5  6  1  0  0  0
  5 26  1  0  0  0
  5 88  1  0  0  0
  6 25  1  0  0  0
  6 89  1  0  0  0
  6 90  1  0  0  0
  7  8  2  0  0  0
  7 26  1  0  0  0
  7 29  1  0  0  0
  8  9  1  0  0  0
  8 22  1  0  0  0
  9 10  1  0  0  0
  9 27  2  0  0  0
 10 11  2  0  0  0
 10 15  1  0  0  0
 11 12  1  0  0  0
 11 91  1  0  0  0
 12 13  2  0  0  0
 12 92  1  0  0  0
 13 14  1  0  0  0
 13 31  1  0  0  0
 14 15  2  0  0  0
 14 93  1  0  0  0
 15 94  1  0  0  0
 16 17  2  0  0  0
 16 21  1  0  0  0
 16 31  1  0  0  0
 17 18  1  0  0  0
 17 95  1  0  0  0
 18 19  2  0  0  0
 18 96  1  0  0  0
 19 20  1  0  0  0
 19 24  1  0  0  0
 20 21  2  0  0  0
 20 97  1  0  0  0
 21 23  1  0  0  0
 22 28  1  0  0  0
 22 32  2  0  0  0
 26 27  1  0  0  0
 28 98  1  0  0  0
 28 99  1  0  0  0
 29100  1  0  0  0
 29101  1  0  0  0
 33 34  1  0  0  0
 33 66  1  0  0  0
 33 70  2  0  0  0
 34 36  1  0  0  0
 34 59  1  0  0  0
 34102  1  0  0  0
 35 44  2  0  0  0
 35 45  1  0  0  0
 35 68  1  0  0  0
 36 56  1  0  0  0
 36103  1  0  0  0
 37 39  1  0  0  0
 37 47  1  0  0  0
 37 66  1  0  0  0
 37104  1  0  0  0
 38 43  2  0  0  0
 38 46  1  0  0  0
 38 47  1  0  0  0
 39 64  1  0  0  0
 39 67  2  0  0  0
 40 52  1  0  0  0
 40 53  2  0  0  0
 40 58  1  0  0  0
 41105  1  0  0  0
 41106  1  0  0  0
 41107  1  0  0  0
 41 48  1  0  0  0
 42 43  1  0  0  0
 42 66  1  0  0  0
 42108  1  0  0  0
 42109  1  0  0  0
 43 44  1  0  0  0
 44110  1  0  0  0
 45 46  2  0  0  0
 45111  1  0  0  0
 46112  1  0  0  0
 47113  1  0  0  0
 47114  1  0  0  0
 48 56  1  0  0  0
 48 65  1  0  0  0
 48115  1  0  0  0
 49 50  1  0  0  0
 49 53  1  0  0  0
 49 64  1  0  0  0
 49116  1  0  0  0
 50 51  1  0  0  0
 50117  1  0  0  0
 50118  1  0  0  0
 51 52  1  0  0  0
 51119  1  0  0  0
 51120  1  0  0  0
 52121  1  0  0  0
 52122  1  0  0  0
 53 54  1  0  0  0
 54 55  2  0  0  0
 54123  1  0  0  0
 55 57  1  0  0  0
 55124  1  0  0  0
 56 69  2  0  0  0
 57 58  2  0  0  0
 57125  1  0  0  0
 58126  1  0  0  0
 59 60  1  0  0  0
 59 61  1  0  0  0
 59 62  1  0  0  0
 60127  1  0  0  0
 60128  1  0  0  0
 60129  1  0  0  0
 61130  1  0  0  0
 61131  1  0  0  0
 61132  1  0  0  0
 62133  1  0  0  0
 62134  1  0  0  0
 62135  1  0  0  0
 63 65  1  0  0  0
 63136  1  0  0  0
 63137  1  0  0  0
 63138  1  0  0  0
 64139  1  0  0  0
 65140  1  0  0  0
 68 78  1  0  0  0
 71 73  2  0  0  0
 71 75  1  0  0  0
 71141  1  0  0  0
 72 74  1  0  0  0
 72 75  2  0  0  0
 72142  1  0  0  0
 73 76  1  0  0  0
 73143  1  0  0  0
 74 76  2  0  0  0
 74144  1  0  0  0
 75 77  1  0  0  0
 76 78  1  0  0  0
 77 79  1  0  0  0
 77145  1  0  0  0
 77146  1  0  0  0
 78147  1  0  0  0
 78148  1  0  0  0
 79 80  1  0  0  0
 79149  1  0  0  0
 79150  1  0  0  0
 80 81  1  0  0  0
 80151  1  0  0  0
 80152  1  0  0  0
 81153  1  0  0  0
M  ISO  4   1 100  68 101  78 101  81 100
M  END
> <chiral flag>
0

> <version>
0

> <s_m_source_file>
/data/baiqing/PycharmProjects/Reinvent-master-3.2/result/LINK_invent/BTK/process_docking_weight1_custom_sum_contain_oxygen_bond_distance_aromatic_linkinvent_7_9_3/rearranged_h_0126.sdf

> <i_m_source_file_index>
15

> <r_mmod_Potential_Energy-OPLS-2005>
63.0422859191895

> <r_mmod_Stretch_Energy-OPLS-2005>
67.8930206298828

> <r_mmod_Bend_Energy-OPLS-2005>
135.938980102539

> <r_mmod_Torsional_Energy-OPLS-2005>
210.295028686523

> <r_mmod_Improper_Torsional_Energy-OPLS-2005>
6.55991172790527

> <r_mmod_Van_der_Waal_Energy-OPLS-2005>
158.263381958008

> <r_mmod_Electrostatic_Energy-OPLS-2005>
-355.768798828125

> <r_mmod_Solvation_Energy-OPLS-2005>
-207.294143676758

> <b_mmod_Minimization_Converged-OPLS-2005>
0

> <r_mmod_RMS_Derivative-OPLS-2005>
1.07381772994995

$$$$
15
                    3D
 Structure written by MMmdl.
186194  0  0  1  0            999 V2000
  -30.6013  -14.7040   20.4767 C   0  0  0  0  0  0
  -30.4363  -12.4295   19.4568 C   0  0  0  0  0  0
  -29.5045  -12.4958   18.2262 C   0  0  0  0  0  0
  -28.0303  -12.3261   18.6426 C   0  0  0  0  0  0
  -27.6432  -13.2170   19.8518 C   0  0  2  0  0  0
  -28.6889  -13.1197   20.9837 C   0  0  0  0  0  0
  -25.2514  -13.8148   20.5679 C   0  0  0  0  0  0
  -24.1790  -13.0420   20.9191 C   0  0  0  0  0  0
  -24.6382  -11.6897   20.8773 C   0  0  0  0  0  0
  -23.9069  -10.4290   21.0444 C   0  0  0  0  0  0
  -24.3626   -9.4194   21.9213 C   0  0  0  0  0  0
  -23.6294   -8.2236   22.0776 C   0  0  0  0  0  0
  -22.4275   -8.0291   21.3562 C   0  0  0  0  0  0
  -21.9920   -9.0265   20.4658 C   0  0  0  0  0  0
  -22.7254  -10.2140   20.3074 C   0  0  0  0  0  0
  -21.6849   -6.0749   22.5285 C   0  0  0  0  0  0
  -21.4010   -6.5653   23.8214 C   0  0  0  0  0  0
  -21.3644   -5.6807   24.9183 C   0  0  0  0  0  0
  -21.6035   -4.3070   24.7225 C   0  0  0  0  0  0
  -21.8826   -3.8155   23.4351 C   0  0  0  0  0  0
  -21.9190   -4.6976   22.3406 C   0  0  0  0  0  0
  -22.7823  -13.5221   21.1848 C   0  0  0  0  0  0
  -22.1672   -4.2163   21.0994 F   0  0  0  0  0  0
  -21.5611   -3.4552   25.7740 F   0  0  0  0  0  0
  -29.9912  -13.4759   20.4027 N   0  0  0  0  0  0
  -26.2937  -12.9334   20.3287 N   0  0  0  0  0  0
  -25.9314  -11.6494   20.5780 N   0  0  0  0  0  0
  -22.0469  -12.8207   22.0408 N   0  0  0  0  0  0
  -25.4203  -15.1858   20.4033 N   0  0  0  0  0  0
  -31.7872  -14.8372   20.1601 O   0  0  0  0  0  0
  -21.6636   -6.8899   21.4250 O   0  0  0  0  0  0
  -22.3526  -14.5528   20.6698 O   0  0  0  0  0  0
  -24.6253  -31.8570   23.1969 C   0  0  0  0  0  0
  -25.9098  -32.4760   23.8309 C   0  0  1  0  0  0
  -27.2305  -27.2942   20.1166 C   0  0  0  0  0  0
  -25.5892  -33.8559   24.2243 N   0  0  0  0  0  0
  -23.4201  -30.4768   21.5407 C   0  0  2  0  0  0
  -24.8674  -28.9211   20.1089 C   0  0  0  0  0  0
  -22.7452  -29.4616   22.4930 C   0  0  0  0  0  0
  -18.0279  -28.1378   22.8516 C   0  0  0  0  0  0
  -24.1501  -36.7290   23.2638 C   0  0  0  0  0  0
  -25.9602  -30.7785   21.3703 C   0  0  0  0  0  0
  -26.0330  -29.4002   20.7187 C   0  0  0  0  0  0
  -27.2107  -28.5940   20.7181 C   0  0  0  0  0  0
  -26.0400  -26.8668   19.4883 C   0  0  0  0  0  0
  -24.8742  -27.6610   19.4865 C   0  0  0  0  0  0
  -23.6342  -29.8020   20.1579 C   0  0  0  0  0  0
  -25.4122  -36.3076   24.0329 C   0  0  1  0  0  0
  -20.5878  -28.3698   23.1307 C   0  0  2  0  0  0
  -20.6770  -26.9425   22.5429 C   0  0  0  0  0  0
  -19.5747  -26.6403   21.5223 C   0  0  0  0  0  0
  -18.1927  -26.7937   22.1636 C   0  0  0  0  0  0
  -19.1532  -28.8844   23.2915 C   0  0  0  0  0  0
  -18.9453  -30.1438   23.8934 C   0  0  0  0  0  0
  -17.6455  -30.6586   24.0578 C   0  0  0  0  0  0
  -25.9054  -34.9446   23.5099 C   0  0  0  0  0  0
  -16.5345  -29.9095   23.6323 C   0  0  0  0  0  0
  -16.7265  -28.6502   23.0367 C   0  0  0  0  0  0
  -26.4486  -31.6548   25.0676 C   0  0  0  0  0  0
  -25.3713  -31.3646   26.1383 C   0  0  0  0  0  0
  -27.0318  -30.2970   24.6117 C   0  0  0  0  0  0
  -27.6059  -32.4246   25.7449 C   0  0  0  0  0  0
  -27.5586  -37.1784   24.8463 C   0  0  0  0  0  0
  -21.4161  -29.3054   22.3682 N   0  0  0  0  0  0
  -26.4294  -37.3776   23.9414 N   0  0  0  0  0  0
  -24.6873  -31.0562   22.0928 N   0  0  0  0  0  0
  -23.4158  -28.8181   23.3038 O   0  0  0  0  0  0
  -28.3697  -26.4712   20.1994 O   0  0  0  0  0  0
  -26.5661  -34.8934   22.4689 O   0  0  0  0  0  0
  -23.5423  -32.1370   23.7300 O   0  0  0  0  0  0
  -34.7542  -19.7830   21.5949 C   0  0  0  0  0  0
  -27.8818  -18.2593   20.0469 C   0  0  0  0  0  0
  -29.4121  -18.4468   20.1147 C   0  0  2  0  0  0
  -28.9842  -20.9394   19.6293 C   0  0  1  0  0  0
  -27.4695  -20.6384   19.3922 C   0  0  1  0  0  0
  -35.3438  -19.7803   22.9982 C   0  0  0  0  0  0
  -24.4902  -21.7783   19.0312 C   0  0  0  0  0  0
  -25.0576  -22.0647   16.5906 C   0  0  0  0  0  0
  -29.3553  -22.5302   19.7187 C   0  0  0  0  0  0
  -30.1422  -17.2637   20.9540 C   0  0  0  0  0  0
  -26.9048  -21.4838   18.2140 C   0  0  0  0  0  0
  -28.4665  -23.7365   20.3234 C   0  0  0  0  0  0
  -32.0140  -20.0956   19.8016 C   0  0  0  0  0  0
  -30.9818  -20.2020   20.9473 C   0  0  0  0  0  0
  -33.2557  -20.9832   20.0072 C   0  0  0  0  0  0
  -28.5184  -25.1453   19.5376 C   0  0  0  0  0  0
  -25.4034  -21.3109   17.8850 C   0  0  0  0  0  0
  -29.6018  -19.8942   20.5520 N   0  0  0  0  0  0
  -33.9075  -20.7742   21.2972 N   0  0  0  0  0  0
  -29.7952  -15.7960   20.7294 N   0  0  0  0  0  0
  -27.2717  -19.1985   19.0801 N   0  3  0  0  0  0
  -35.0625  -18.8999   20.7947 O   0  0  0  0  0  0
  -31.4745  -12.5637   19.1487 H   0  0  0  0  0  0
  -30.3876  -11.4452   19.9269 H   0  0  0  0  0  0
  -29.7758  -11.7264   17.5018 H   0  0  0  0  0  0
  -29.6322  -13.4531   17.7176 H   0  0  0  0  0  0
  -27.8800  -11.2752   18.8958 H   0  0  0  0  0  0
  -27.3723  -12.5295   17.7968 H   0  0  0  0  0  0
  -27.6446  -14.2425   19.4844 H   0  0  0  0  0  0
  -28.7183  -12.1098   21.3969 H   0  0  0  0  0  0
  -28.4291  -13.7780   21.8140 H   0  0  0  0  0  0
  -25.2790   -9.5645   22.4768 H   0  0  0  0  0  0
  -24.0001   -7.4623   22.7494 H   0  0  0  0  0  0
  -21.0862   -8.8791   19.8945 H   0  0  0  0  0  0
  -22.3746  -10.9689   19.6171 H   0  0  0  0  0  0
  -21.2007   -7.6164   23.9723 H   0  0  0  0  0  0
  -21.1458   -6.0548   25.9093 H   0  0  0  0  0  0
  -22.0612   -2.7613   23.2858 H   0  0  0  0  0  0
  -22.4123  -11.9888   22.4785 H   0  0  0  0  0  0
  -21.1083  -13.1218   22.2618 H   0  0  0  0  0  0
  -24.6366  -15.8276   20.4640 H   0  0  0  0  0  0
  -26.2445  -15.5972   19.9943 H   0  0  0  0  0  0
  -26.7162  -32.5452   23.1052 H   0  0  0  0  0  0
  -24.9914  -33.9696   25.0299 H   0  0  0  0  0  0
  -22.7149  -31.2975   21.3932 H   0  0  0  0  0  0
  -23.3772  -35.9607   23.3270 H   0  0  0  0  0  0
  -24.3563  -36.8948   22.2049 H   0  0  0  0  0  0
  -23.7260  -37.6479   23.6696 H   0  0  0  0  0  0
  -26.0868  -31.5343   20.5937 H   0  0  0  0  0  0
  -26.8424  -30.8363   21.9962 H   0  0  0  0  0  0
  -28.1034  -28.9537   21.2110 H   0  0  0  0  0  0
  -25.9776  -25.8984   19.0171 H   0  0  0  0  0  0
  -23.9788  -27.2872   19.0081 H   0  0  0  0  0  0
  -23.7447  -30.5719   19.3930 H   0  0  0  0  0  0
  -22.7558  -29.2236   19.8656 H   0  0  0  0  0  0
  -25.1305  -36.1911   25.0825 H   0  0  0  0  0  0
  -20.9957  -28.3306   24.1440 H   0  0  0  0  0  0
  -20.5664  -26.2322   23.3627 H   0  0  0  0  0  0
  -21.6648  -26.7454   22.1245 H   0  0  0  0  0  0
  -19.6913  -25.6326   21.1234 H   0  0  0  0  0  0
  -19.6688  -27.3229   20.6765 H   0  0  0  0  0  0
  -17.4201  -26.6689   21.4037 H   0  0  0  0  0  0
  -18.0320  -26.0070   22.9021 H   0  0  0  0  0  0
  -19.7923  -30.7241   24.2336 H   0  0  0  0  0  0
  -17.5016  -31.6275   24.5167 H   0  0  0  0  0  0
  -15.5350  -30.3013   23.7612 H   0  0  0  0  0  0
  -15.8672  -28.0816   22.7075 H   0  0  0  0  0  0
  -24.5942  -30.6942   25.7689 H   0  0  0  0  0  0
  -24.8829  -32.2785   26.4767 H   0  0  0  0  0  0
  -25.8027  -30.8849   27.0176 H   0  0  0  0  0  0
  -26.2866  -29.6710   24.1183 H   0  0  0  0  0  0
  -27.4063  -29.7227   25.4601 H   0  0  0  0  0  0
  -27.8732  -30.4241   23.9295 H   0  0  0  0  0  0
  -27.2689  -33.3559   26.2004 H   0  0  0  0  0  0
  -28.3874  -32.6738   25.0264 H   0  0  0  0  0  0
  -28.0711  -31.8359   26.5368 H   0  0  0  0  0  0
  -28.2581  -38.0103   24.7539 H   0  0  0  0  0  0
  -28.1115  -36.2633   24.6265 H   0  0  0  0  0  0
  -27.2298  -37.1386   25.8863 H   0  0  0  0  0  0
  -20.9304  -29.8771   21.6911 H   0  0  0  0  0  0
  -26.0179  -38.2854   24.1429 H   0  0  0  0  0  0
  -27.4287  -18.3812   21.0318 H   0  0  0  0  0  0
  -27.6503  -17.2457   19.7166 H   0  0  0  0  0  0
  -29.8028  -18.3613   19.0996 H   0  0  0  0  0  0
  -29.4417  -20.6747   18.6744 H   0  0  0  0  0  0
  -26.9252  -20.8761   20.3068 H   0  0  0  0  0  0
  -35.0936  -20.6907   23.5447 H   0  0  0  0  0  0
  -36.4301  -19.7042   22.9522 H   0  0  0  0  0  0
  -34.9633  -18.9293   23.5634 H   0  0  0  0  0  0
  -23.4391  -21.6706   18.7599 H   0  0  0  0  0  0
  -24.6596  -22.8281   19.2751 H   0  0  0  0  0  0
  -24.6434  -21.1953   19.9389 H   0  0  0  0  0  0
  -24.0181  -21.9059   16.3037 H   0  0  0  0  0  0
  -25.6779  -21.7304   15.7579 H   0  0  0  0  0  0
  -25.2087  -23.1397   16.7019 H   0  0  0  0  0  0
  -29.4536  -22.8077   18.6688 H   0  0  0  0  0  0
  -30.3760  -22.6714   20.0695 H   0  0  0  0  0  0
  -29.9553  -17.4462   22.0120 H   0  0  0  0  0  0
  -31.2210  -17.3646   20.8370 H   0  0  0  0  0  0
  -27.4924  -21.2649   17.3205 H   0  0  0  0  0  0
  -27.0659  -22.5438   18.3897 H   0  0  0  0  0  0
  -28.7972  -23.9040   21.3482 H   0  0  0  0  0  0
  -27.4243  -23.4311   20.4164 H   0  0  0  0  0  0
  -31.5767  -20.3767   18.8450 H   0  0  0  0  0  0
  -32.3266  -19.0578   19.6808 H   0  0  0  0  0  0
  -31.0094  -21.1955   21.3947 H   0  0  0  0  0  0
  -31.2840  -19.5487   21.7660 H   0  0  0  0  0  0
  -32.9573  -22.0309   19.9480 H   0  0  0  0  0  0
  -33.9657  -20.8248   19.1932 H   0  0  0  0  0  0
  -27.8970  -25.0815   18.6463 H   0  0  0  0  0  0
  -29.5244  -25.2064   19.1215 H   0  0  0  0  0  0
  -25.1974  -20.2567   17.6959 H   0  0  0  0  0  0
  -33.7309  -21.4659   22.0143 H   0  0  0  0  0  0
  -28.8369  -15.5461   20.9231 H   0  0  0  0  0  0
  -26.2844  -19.0093   19.0331 H   0  0  0  0  0  0
  -27.6680  -19.0082   18.1746 H   0  0  0  0  0  0
  1 25  1  0  0  0
  1 30  2  0  0  0
  1 90  1  0  0  0
  2  3  1  0  0  0
  2 25  1  0  0  0
  2 93  1  0  0  0
  2 94  1  0  0  0
  3  4  1  0  0  0
  3 95  1  0  0  0
  3 96  1  0  0  0
  4  5  1  0  0  0
  4 97  1  0  0  0
  4 98  1  0  0  0
  5  6  1  0  0  0
  5 26  1  0  0  0
  5 99  1  0  0  0
  6 25  1  0  0  0
  6100  1  0  0  0
  6101  1  0  0  0
  7  8  2  0  0  0
  7 26  1  0  0  0
  7 29  1  0  0  0
  8  9  1  0  0  0
  8 22  1  0  0  0
  9 10  1  0  0  0
  9 27  2  0  0  0
 10 11  2  0  0  0
 10 15  1  0  0  0
 11 12  1  0  0  0
 11102  1  0  0  0
 12 13  2  0  0  0
 12103  1  0  0  0
 13 14  1  0  0  0
 13 31  1  0  0  0
 14 15  2  0  0  0
 14104  1  0  0  0
 15105  1  0  0  0
 16 17  2  0  0  0
 16 21  1  0  0  0
 16 31  1  0  0  0
 17 18  1  0  0  0
 17106  1  0  0  0
 18 19  2  0  0  0
 18107  1  0  0  0
 19 20  1  0  0  0
 19 24  1  0  0  0
 20 21  2  0  0  0
 20108  1  0  0  0
 21 23  1  0  0  0
 22 28  1  0  0  0
 22 32  2  0  0  0
 26 27  1  0  0  0
 28109  1  0  0  0
 28110  1  0  0  0
 29111  1  0  0  0
 29112  1  0  0  0
 33 34  1  0  0  0
 33 66  1  0  0  0
 33 70  2  0  0  0
 34 36  1  0  0  0
 34 59  1  0  0  0
 34113  1  0  0  0
 35 44  2  0  0  0
 35 45  1  0  0  0
 35 68  1  0  0  0
 36 56  1  0  0  0
 36114  1  0  0  0
 37 39  1  0  0  0
 37 47  1  0  0  0
 37 66  1  0  0  0
 37115  1  0  0  0
 38 43  2  0  0  0
 38 46  1  0  0  0
 38 47  1  0  0  0
 39 64  1  0  0  0
 39 67  2  0  0  0
 40 52  1  0  0  0
 40 53  2  0  0  0
 40 58  1  0  0  0
 41116  1  0  0  0
 41117  1  0  0  0
 41118  1  0  0  0
 41 48  1  0  0  0
 42 43  1  0  0  0
 42 66  1  0  0  0
 42119  1  0  0  0
 42120  1  0  0  0
 43 44  1  0  0  0
 44121  1  0  0  0
 45 46  2  0  0  0
 45122  1  0  0  0
 46123  1  0  0  0
 47124  1  0  0  0
 47125  1  0  0  0
 48 56  1  0  0  0
 48 65  1  0  0  0
 48126  1  0  0  0
 49 50  1  0  0  0
 49 53  1  0  0  0
 49 64  1  0  0  0
 49127  1  0  0  0
 50 51  1  0  0  0
 50128  1  0  0  0
 50129  1  0  0  0
 51 52  1  0  0  0
 51130  1  0  0  0
 51131  1  0  0  0
 52132  1  0  0  0
 52133  1  0  0  0
 53 54  1  0  0  0
 54 55  2  0  0  0
 54134  1  0  0  0
 55 57  1  0  0  0
 55135  1  0  0  0
 56 69  2  0  0  0
 57 58  2  0  0  0
 57136  1  0  0  0
 58137  1  0  0  0
 59 60  1  0  0  0
 59 61  1  0  0  0
 59 62  1  0  0  0
 60138  1  0  0  0
 60139  1  0  0  0
 60140  1  0  0  0
 61141  1  0  0  0
 61142  1  0  0  0
 61143  1  0  0  0
 62144  1  0  0  0
 62145  1  0  0  0
 62146  1  0  0  0
 63 65  1  0  0  0
 63147  1  0  0  0
 63148  1  0  0  0
 63149  1  0  0  0
 64150  1  0  0  0
 65151  1  0  0  0
 68 86  1  0  0  0
 71 76  1  0  0  0
 71 89  1  0  0  0
 71 92  2  0  0  0
 72 73  1  0  0  0
 72 91  1  0  0  0
 72152  1  0  0  0
 72153  1  0  0  0
 73 80  1  0  0  0
 73 88  1  0  0  0
 73154  1  0  0  0
 74 75  1  0  0  0
 74 79  1  0  0  0
 74 88  1  0  0  0
 74155  1  0  0  0
 75 81  1  0  0  0
 75 91  1  0  0  0
 75156  1  0  0  0
 76157  1  0  0  0
 76158  1  0  0  0
 76159  1  0  0  0
 77160  1  0  0  0
 77161  1  0  0  0
 77162  1  0  0  0
 77 87  1  0  0  0
 78 87  1  0  0  0
 78163  1  0  0  0
 78164  1  0  0  0
 78165  1  0  0  0
 79 82  1  0  0  0
 79166  1  0  0  0
 79167  1  0  0  0
 80 90  1  0  0  0
 80168  1  0  0  0
 80169  1  0  0  0
 81 87  1  0  0  0
 81170  1  0  0  0
 81171  1  0  0  0
 82 86  1  0  0  0
 82172  1  0  0  0
 82173  1  0  0  0
 83 84  1  0  0  0
 83 85  1  0  0  0
 83174  1  0  0  0
 83175  1  0  0  0
 84 88  1  0  0  0
 84176  1  0  0  0
 84177  1  0  0  0
 85 89  1  0  0  0
 85178  1  0  0  0
 85179  1  0  0  0
 86180  1  0  0  0
 86181  1  0  0  0
 87182  1  0  0  0
 89183  1  0  0  0
 90184  1  0  0  0
 91185  1  0  0  0
 91186  1  0  0  0
M  CHG  1  91   1
M  ISO  4   1 100  68 101  86 101  90 100
M  END
> <chiral flag>
0

> <version>
0

> <s_m_source_file>
/data/baiqing/PycharmProjects/Reinvent-master-3.2/result/LINK_invent/BTK/process_docking_weight1_custom_sum_contain_oxygen_bond_distance_aromatic_linkinvent_7_9_3/rearranged_h_0126.sdf

> <i_m_source_file_index>
16

> <r_mmod_Potential_Energy-OPLS-2005>
-32.8415641784668

> <r_mmod_Stretch_Energy-OPLS-2005>
122.730758666992

> <r_mmod_Bend_Energy-OPLS-2005>
226.09733581543

> <r_mmod_Torsional_Energy-OPLS-2005>
261.741912841797

> <r_mmod_Improper_Torsional_Energy-OPLS-2005>
4.79646968841553

> <r_mmod_Van_der_Waal_Energy-OPLS-2005>
123.31672668457

> <r_mmod_Electrostatic_Energy-OPLS-2005>
-326.711975097656

> <r_mmod_Solvation_Energy-OPLS-2005>
-510.812164306641

> <b_mmod_Minimization_Converged-OPLS-2005>
0

> <r_mmod_RMS_Derivative-OPLS-2005>
2.31021070480347

$$$$
16
                    3D
 Structure written by MMmdl.
163172  0  0  1  0            999 V2000
  -30.6974  -14.4967   20.5501 C   0  0  0  0  0  0
  -30.4267  -12.3161   19.4256 C   0  0  0  0  0  0
  -29.4964  -12.4879   18.2062 C   0  0  0  0  0  0
  -28.0184  -12.3497   18.6225 C   0  0  0  0  0  0
  -27.6613  -13.2043   19.8677 C   0  0  2  0  0  0
  -28.7054  -13.0073   20.9903 C   0  0  0  0  0  0
  -25.2618  -13.8154   20.5693 C   0  0  0  0  0  0
  -24.1862  -13.0434   20.9182 C   0  0  0  0  0  0
  -24.6390  -11.6893   20.8730 C   0  0  0  0  0  0
  -23.9048  -10.4288   21.0410 C   0  0  0  0  0  0
  -24.3608   -9.4204   21.9189 C   0  0  0  0  0  0
  -23.6288   -8.2235   22.0753 C   0  0  0  0  0  0
  -22.4277   -8.0269   21.3533 C   0  0  0  0  0  0
  -21.9900   -9.0248   20.4640 C   0  0  0  0  0  0
  -22.7217  -10.2132   20.3052 C   0  0  0  0  0  0
  -21.6842   -6.0739   22.5279 C   0  0  0  0  0  0
  -21.4006   -6.5646   23.8213 C   0  0  0  0  0  0
  -21.3651   -5.6796   24.9175 C   0  0  0  0  0  0
  -21.6032   -4.3055   24.7218 C   0  0  0  0  0  0
  -21.8818   -3.8146   23.4335 C   0  0  0  0  0  0
  -21.9194   -4.6967   22.3397 C   0  0  0  0  0  0
  -22.7889  -13.5243   21.1846 C   0  0  0  0  0  0
  -22.1671   -4.2167   21.0970 F   0  0  0  0  0  0
  -21.5615   -3.4531   25.7721 F   0  0  0  0  0  0
  -30.0318  -13.3149   20.4315 N   0  0  0  0  0  0
  -26.3029  -12.9313   20.3333 N   0  0  0  0  0  0
  -25.9317  -11.6478   20.5767 N   0  0  0  0  0  0
  -22.0508  -12.8256   22.0392 N   0  0  0  0  0  0
  -25.4369  -15.1873   20.4117 N   0  0  0  0  0  0
  -31.8333  -14.6685   20.0985 O   0  0  0  0  0  0
  -21.6622   -6.8875   21.4240 O   0  0  0  0  0  0
  -22.3588  -14.5558   20.6693 O   0  0  0  0  0  0
  -24.6211  -31.8670   23.2156 C   0  0  0  0  0  0
  -25.9099  -32.4822   23.8429 C   0  0  1  0  0  0
  -27.2156  -27.3900   20.0852 C   0  0  0  0  0  0
  -25.5955  -33.8617   24.2358 N   0  0  0  0  0  0
  -23.4087  -30.4995   21.5554 C   0  0  2  0  0  0
  -24.8515  -28.9729   20.1115 C   0  0  0  0  0  0
  -22.7432  -29.4678   22.4955 C   0  0  0  0  0  0
  -18.0278  -28.1417   22.8455 C   0  0  0  0  0  0
  -24.1488  -36.7302   23.2632 C   0  0  0  0  0  0
  -25.9465  -30.8183   21.3782 C   0  0  0  0  0  0
  -26.0190  -29.4549   20.7140 C   0  0  0  0  0  0
  -27.2055  -28.6724   20.6973 C   0  0  0  0  0  0
  -26.0243  -26.9556   19.4519 C   0  0  0  0  0  0
  -24.8527  -27.7254   19.4764 C   0  0  0  0  0  0
  -23.6208  -29.8498   20.1653 C   0  0  0  0  0  0
  -25.4109  -36.3107   24.0339 C   0  0  1  0  0  0
  -20.5890  -28.3640   23.1254 C   0  0  2  0  0  0
  -20.6770  -26.9405   22.5268 C   0  0  0  0  0  0
  -19.5692  -26.6384   21.5122 C   0  0  0  0  0  0
  -18.1891  -26.7976   22.1567 C   0  0  0  0  0  0
  -19.1549  -28.8819   23.2904 C   0  0  0  0  0  0
  -18.9496  -30.1352   23.9050 C   0  0  0  0  0  0
  -17.6515  -30.6522   24.0750 C   0  0  0  0  0  0
  -25.9033  -34.9473   23.5136 C   0  0  0  0  0  0
  -16.5389  -29.9114   23.6382 C   0  0  0  0  0  0
  -16.7275  -28.6572   23.0311 C   0  0  0  0  0  0
  -26.4501  -31.6614   25.0774 C   0  0  0  0  0  0
  -25.3755  -31.3728   26.1519 C   0  0  0  0  0  0
  -27.0336  -30.3050   24.6186 C   0  0  0  0  0  0
  -27.6091  -32.4317   25.7531 C   0  0  0  0  0  0
  -27.5580  -37.1816   24.8464 C   0  0  0  0  0  0
  -21.4155  -29.3038   22.3674 N   0  0  0  0  0  0
  -26.4292  -37.3793   23.9405 N   0  0  0  0  0  0
  -24.6772  -31.0748   22.1073 N   0  0  0  0  0  0
  -23.4193  -28.8205   23.2992 O   0  0  0  0  0  0
  -28.3476  -26.5756   20.1296 O   0  0  0  0  0  0
  -26.5563  -34.8926   22.4679 O   0  0  0  0  0  0
  -23.5400  -32.1448   23.7532 O   0  0  0  0  0  0
  -30.0908  -19.3503   20.3337 C   0  0  0  0  0  0
  -28.7645  -17.5693   19.3224 C   0  0  0  0  0  0
  -28.5178  -19.8740   18.5508 C   0  0  0  0  0  0
  -29.7405  -17.9691   20.2624 C   0  0  0  0  0  0
  -29.4861  -20.3178   19.4795 C   0  0  0  0  0  0
  -28.1574  -18.5151   18.4756 C   0  0  0  0  0  0
  -27.0855  -23.2899   21.6776 C   0  0  0  0  0  0
  -27.4080  -24.7904   21.5424 C   0  0  0  0  0  0
  -27.7166  -22.4150   20.5769 C   0  0  0  0  0  0
  -29.3937  -24.2273   20.0883 C   0  0  0  0  0  0
  -28.1231  -25.1317   20.2182 C   0  0  2  0  0  0
  -30.4258  -16.9336   21.1803 C   0  0  0  0  0  0
  -29.8986  -21.8112   19.4707 C   0  0  0  0  0  0
  -29.9867  -15.5250   21.0591 N   0  0  0  0  0  0
  -29.1510  -22.7542   20.3720 N   0  3  2  0  0  0
  -27.2261  -18.1159   17.5769 F   0  0  0  0  0  0
  -31.4698  -12.4147   19.1198 H   0  0  0  0  0  0
  -30.3338  -11.3124   19.8417 H   0  0  0  0  0  0
  -29.7351  -11.7453   17.4434 H   0  0  0  0  0  0
  -29.6638  -13.4612   17.7423 H   0  0  0  0  0  0
  -27.8336  -11.2959   18.8388 H   0  0  0  0  0  0
  -27.3678  -12.6086   17.7860 H   0  0  0  0  0  0
  -27.6999  -14.2473   19.5562 H   0  0  0  0  0  0
  -28.6908  -11.9744   21.3418 H   0  0  0  0  0  0
  -28.4634  -13.6200   21.8598 H   0  0  0  0  0  0
  -25.2757   -9.5686   22.4772 H   0  0  0  0  0  0
  -23.9985   -7.4629   22.7481 H   0  0  0  0  0  0
  -21.0823   -8.8761   19.8972 H   0  0  0  0  0  0
  -22.3659  -10.9679   19.6166 H   0  0  0  0  0  0
  -21.2002   -7.6153   23.9717 H   0  0  0  0  0  0
  -21.1477   -6.0524   25.9079 H   0  0  0  0  0  0
  -22.0614   -2.7608   23.2827 H   0  0  0  0  0  0
  -22.4085  -11.9899   22.4789 H   0  0  0  0  0  0
  -21.1144  -13.1340   22.2597 H   0  0  0  0  0  0
  -24.6723  -15.8446   20.5208 H   0  0  0  0  0  0
  -26.2840  -15.6251   20.0749 H   0  0  0  0  0  0
  -26.7173  -32.5520   23.1188 H   0  0  0  0  0  0
  -25.0195  -33.9774   25.0566 H   0  0  0  0  0  0
  -22.7003  -31.3191   21.4218 H   0  0  0  0  0  0
  -23.3758  -35.9628   23.3307 H   0  0  0  0  0  0
  -24.3584  -36.8899   22.2042 H   0  0  0  0  0  0
  -23.7233  -37.6513   23.6628 H   0  0  0  0  0  0
  -26.0704  -31.5889   20.6160 H   0  0  0  0  0  0
  -26.8298  -30.8594   22.0038 H   0  0  0  0  0  0
  -28.1020  -29.0355   21.1813 H   0  0  0  0  0  0
  -25.9480  -26.0192   18.9234 H   0  0  0  0  0  0
  -23.9580  -27.3560   18.9945 H   0  0  0  0  0  0
  -23.7437  -30.6366   19.4187 H   0  0  0  0  0  0
  -22.7406  -29.2836   19.8562 H   0  0  0  0  0  0
  -25.1283  -36.1979   25.0830 H   0  0  0  0  0  0
  -21.0036  -28.3123   24.1355 H   0  0  0  0  0  0
  -20.5804  -26.2192   23.3396 H   0  0  0  0  0  0
  -21.6596  -26.7548   22.0928 H   0  0  0  0  0  0
  -19.6786  -25.6287   21.1149 H   0  0  0  0  0  0
  -19.6584  -27.3174   20.6630 H   0  0  0  0  0  0
  -17.4139  -26.6757   21.3983 H   0  0  0  0  0  0
  -18.0290  -26.0128   22.8970 H   0  0  0  0  0  0
  -19.7988  -30.7060   24.2548 H   0  0  0  0  0  0
  -17.5095  -31.6125   24.5532 H   0  0  0  0  0  0
  -15.5402  -30.3034   23.7737 H   0  0  0  0  0  0
  -15.8663  -28.0941   22.6966 H   0  0  0  0  0  0
  -24.5938  -30.7058   25.7863 H   0  0  0  0  0  0
  -24.8932  -32.2879   26.4965 H   0  0  0  0  0  0
  -25.8104  -30.8913   27.0285 H   0  0  0  0  0  0
  -26.2909  -29.6813   24.1197 H   0  0  0  0  0  0
  -27.4045  -29.7289   25.4673 H   0  0  0  0  0  0
  -27.8774  -30.4361   23.9407 H   0  0  0  0  0  0
  -27.2746  -33.3608   26.2151 H   0  0  0  0  0  0
  -28.3890  -32.6875   25.0349 H   0  0  0  0  0  0
  -28.0772  -31.8405   26.5415 H   0  0  0  0  0  0
  -28.2603  -38.0103   24.7498 H   0  0  0  0  0  0
  -28.1067  -36.2640   24.6307 H   0  0  0  0  0  0
  -27.2295  -37.1486   25.8864 H   0  0  0  0  0  0
  -20.9327  -29.8765   21.6885 H   0  0  0  0  0  0
  -26.0192  -38.2873   24.1412 H   0  0  0  0  0  0
  -30.8494  -19.6659   21.0371 H   0  0  0  0  0  0
  -28.4800  -16.5336   19.2260 H   0  0  0  0  0  0
  -28.0510  -20.5728   17.8716 H   0  0  0  0  0  0
  -26.0052  -23.1395   21.6636 H   0  0  0  0  0  0
  -27.4165  -22.9442   22.6586 H   0  0  0  0  0  0
  -28.0461  -25.0958   22.3723 H   0  0  0  0  0  0
  -26.4856  -25.3575   21.6553 H   0  0  0  0  0  0
  -27.1750  -22.5279   19.6370 H   0  0  0  0  0  0
  -27.5936  -21.3732   20.8754 H   0  0  0  0  0  0
  -30.1687  -24.5780   20.7711 H   0  0  0  0  0  0
  -29.8018  -24.3586   19.0865 H   0  0  0  0  0  0
  -27.5024  -24.8209   19.3818 H   0  0  0  0  0  0
  -30.2535  -17.2365   22.2144 H   0  0  0  0  0  0
  -31.5039  -17.0132   21.0325 H   0  0  0  0  0  0
  -29.7974  -22.1633   18.4426 H   0  0  0  0  0  0
  -30.9623  -21.8852   19.7014 H   0  0  0  0  0  0
  -29.0632  -15.3059   21.4003 H   0  0  0  0  0  0
  -29.5646  -22.5901   21.2780 H   0  0  0  0  0  0
  1 25  1  0  0  0
  1 30  2  0  0  0
  1 84  1  0  0  0
  2  3  1  0  0  0
  2 25  1  0  0  0
  2 87  1  0  0  0
  2 88  1  0  0  0
  3  4  1  0  0  0
  3 89  1  0  0  0
  3 90  1  0  0  0
  4  5  1  0  0  0
  4 91  1  0  0  0
  4 92  1  0  0  0
  5  6  1  0  0  0
  5 26  1  0  0  0
  5 93  1  0  0  0
  6 25  1  0  0  0
  6 94  1  0  0  0
  6 95  1  0  0  0
  7  8  2  0  0  0
  7 26  1  0  0  0
  7 29  1  0  0  0
  8  9  1  0  0  0
  8 22  1  0  0  0
  9 10  1  0  0  0
  9 27  2  0  0  0
 10 11  2  0  0  0
 10 15  1  0  0  0
 11 12  1  0  0  0
 11 96  1  0  0  0
 12 13  2  0  0  0
 12 97  1  0  0  0
 13 14  1  0  0  0
 13 31  1  0  0  0
 14 15  2  0  0  0
 14 98  1  0  0  0
 15 99  1  0  0  0
 16 17  2  0  0  0
 16 21  1  0  0  0
 16 31  1  0  0  0
 17 18  1  0  0  0
 17100  1  0  0  0
 18 19  2  0  0  0
 18101  1  0  0  0
 19 20  1  0  0  0
 19 24  1  0  0  0
 20 21  2  0  0  0
 20102  1  0  0  0
 21 23  1  0  0  0
 22 28  1  0  0  0
 22 32  2  0  0  0
 26 27  1  0  0  0
 28103  1  0  0  0
 28104  1  0  0  0
 29105  1  0  0  0
 29106  1  0  0  0
 33 34  1  0  0  0
 33 66  1  0  0  0
 33 70  2  0  0  0
 34 36  1  0  0  0
 34 59  1  0  0  0
 34107  1  0  0  0
 35 44  2  0  0  0
 35 45  1  0  0  0
 35 68  1  0  0  0
 36 56  1  0  0  0
 36108  1  0  0  0
 37 39  1  0  0  0
 37 47  1  0  0  0
 37 66  1  0  0  0
 37109  1  0  0  0
 38 43  2  0  0  0
 38 46  1  0  0  0
 38 47  1  0  0  0
 39 64  1  0  0  0
 39 67  2  0  0  0
 40 52  1  0  0  0
 40 53  2  0  0  0
 40 58  1  0  0  0
 41110  1  0  0  0
 41111  1  0  0  0
 41112  1  0  0  0
 41 48  1  0  0  0
 42 43  1  0  0  0
 42 66  1  0  0  0
 42113  1  0  0  0
 42114  1  0  0  0
 43 44  1  0  0  0
 44115  1  0  0  0
 45 46  2  0  0  0
 45116  1  0  0  0
 46117  1  0  0  0
 47118  1  0  0  0
 47119  1  0  0  0
 48 56  1  0  0  0
 48 65  1  0  0  0
 48120  1  0  0  0
 49 50  1  0  0  0
 49 53  1  0  0  0
 49 64  1  0  0  0
 49121  1  0  0  0
 50 51  1  0  0  0
 50122  1  0  0  0
 50123  1  0  0  0
 51 52  1  0  0  0
 51124  1  0  0  0
 51125  1  0  0  0
 52126  1  0  0  0
 52127  1  0  0  0
 53 54  1  0  0  0
 54 55  2  0  0  0
 54128  1  0  0  0
 55 57  1  0  0  0
 55129  1  0  0  0
 56 69  2  0  0  0
 57 58  2  0  0  0
 57130  1  0  0  0
 58131  1  0  0  0
 59 60  1  0  0  0
 59 61  1  0  0  0
 59 62  1  0  0  0
 60132  1  0  0  0
 60133  1  0  0  0
 60134  1  0  0  0
 61135  1  0  0  0
 61136  1  0  0  0
 61137  1  0  0  0
 62138  1  0  0  0
 62139  1  0  0  0
 62140  1  0  0  0
 63 65  1  0  0  0
 63141  1  0  0  0
 63142  1  0  0  0
 63143  1  0  0  0
 64144  1  0  0  0
 65145  1  0  0  0
 68 81  1  0  0  0
 71 74  2  0  0  0
 71 75  1  0  0  0
 71146  1  0  0  0
 72 74  1  0  0  0
 72 76  2  0  0  0
 72147  1  0  0  0
 73 75  2  0  0  0
 73 76  1  0  0  0
 73148  1  0  0  0
 74 82  1  0  0  0
 75 83  1  0  0  0
 76 86  1  0  0  0
 77 78  1  0  0  0
 77 79  1  0  0  0
 77149  1  0  0  0
 77150  1  0  0  0
 78 81  1  0  0  0
 78151  1  0  0  0
 78152  1  0  0  0
 79 85  1  0  0  0
 79153  1  0  0  0
 79154  1  0  0  0
 80 81  1  0  0  0
 80 85  1  0  0  0
 80155  1  0  0  0
 80156  1  0  0  0
 81157  1  0  0  0
 82 84  1  0  0  0
 82158  1  0  0  0
 82159  1  0  0  0
 83160  1  0  0  0
 83161  1  0  0  0
 83 85  1  0  0  0
 84162  1  0  0  0
 85163  1  0  0  0
M  CHG  1  85   1
M  ISO  4   1 100  68 101  81 101  84 100
M  END
> <chiral flag>
0

> <version>
0

> <s_m_source_file>
/data/baiqing/PycharmProjects/Reinvent-master-3.2/result/LINK_invent/BTK/process_docking_weight1_custom_sum_contain_oxygen_bond_distance_aromatic_linkinvent_7_9_3/rearranged_h_0126.sdf

> <i_m_source_file_index>
17

> <r_mmod_Potential_Energy-OPLS-2005>
-138.011108398438

> <r_mmod_Stretch_Energy-OPLS-2005>
52.9937782287598

> <r_mmod_Bend_Energy-OPLS-2005>
110.504638671875

> <r_mmod_Torsional_Energy-OPLS-2005>
236.737075805664

> <r_mmod_Improper_Torsional_Energy-OPLS-2005>
3.3532178401947

> <r_mmod_Van_der_Waal_Energy-OPLS-2005>
164.857421875

> <r_mmod_Electrostatic_Energy-OPLS-2005>
-292.185272216797

> <r_mmod_Solvation_Energy-OPLS-2005>
-436.060363769531

> <b_mmod_Minimization_Converged-OPLS-2005>
0

> <r_mmod_RMS_Derivative-OPLS-2005>
2.47588777542114

$$$$
17
                    3D
 Structure written by MMmdl.
177187  0  0  1  0            999 V2000
  -30.6272  -14.6856   20.4347 C   0  0  0  0  0  0
  -30.4219  -12.4044   19.4675 C   0  0  0  0  0  0
  -29.5096  -12.4842   18.2258 C   0  0  0  0  0  0
  -28.0306  -12.3305   18.6390 C   0  0  0  0  0  0
  -27.6423  -13.2213   19.8498 C   0  0  2  0  0  0
  -28.6867  -13.1466   20.9834 C   0  0  0  0  0  0
  -25.2523  -13.8170   20.5641 C   0  0  0  0  0  0
  -24.1828  -13.0452   20.9190 C   0  0  0  0  0  0
  -24.6381  -11.6908   20.8740 C   0  0  0  0  0  0
  -23.9036  -10.4302   21.0394 C   0  0  0  0  0  0
  -24.3593   -9.4218   21.9169 C   0  0  0  0  0  0
  -23.6261   -8.2270   22.0760 C   0  0  0  0  0  0
  -22.4239   -8.0299   21.3563 C   0  0  0  0  0  0
  -21.9868   -9.0272   20.4664 C   0  0  0  0  0  0
  -22.7196  -10.2148   20.3056 C   0  0  0  0  0  0
  -21.6845   -6.0734   22.5284 C   0  0  0  0  0  0
  -21.4040   -6.5624   23.8226 C   0  0  0  0  0  0
  -21.3661   -5.6780   24.9185 C   0  0  0  0  0  0
  -21.6040   -4.3045   24.7231 C   0  0  0  0  0  0
  -21.8811   -3.8132   23.4357 C   0  0  0  0  0  0
  -21.9194   -4.6961   22.3414 C   0  0  0  0  0  0
  -22.7854  -13.5249   21.1848 C   0  0  0  0  0  0
  -22.1623   -4.2132   21.0992 F   0  0  0  0  0  0
  -21.5634   -3.4521   25.7737 F   0  0  0  0  0  0
  -29.9899  -13.4708   20.3929 N   0  0  0  0  0  0
  -26.2933  -12.9356   20.3265 N   0  0  0  0  0  0
  -25.9295  -11.6504   20.5734 N   0  0  0  0  0  0
  -22.0458  -12.8327   22.0416 N   0  0  0  0  0  0
  -25.4302  -15.1896   20.4000 N   0  0  0  0  0  0
  -31.8321  -14.7661   20.1741 O   0  0  0  0  0  0
  -21.6630   -6.8881   21.4240 O   0  0  0  0  0  0
  -22.3575  -14.5578   20.6687 O   0  0  0  0  0  0
  -24.6340  -31.8549   23.1999 C   0  0  0  0  0  0
  -25.9210  -32.4728   23.8353 C   0  0  1  0  0  0
  -27.2255  -27.2844   20.1258 C   0  0  0  0  0  0
  -25.6020  -33.8535   24.2260 N   0  0  0  0  0  0
  -23.4251  -30.4738   21.5440 C   0  0  2  0  0  0
  -24.8713  -28.9184   20.1166 C   0  0  0  0  0  0
  -22.7486  -29.4576   22.4940 C   0  0  0  0  0  0
  -18.0286  -28.1329   22.8475 C   0  0  0  0  0  0
  -24.1568  -36.7305   23.2592 C   0  0  0  0  0  0
  -25.9684  -30.7736   21.3772 C   0  0  0  0  0  0
  -26.0380  -29.3929   20.7295 C   0  0  0  0  0  0
  -27.2201  -28.5877   20.7220 C   0  0  0  0  0  0
  -26.0363  -26.8652   19.4991 C   0  0  0  0  0  0
  -24.8721  -27.6595   19.4922 C   0  0  0  0  0  0
  -23.6388  -29.8018   20.1604 C   0  0  0  0  0  0
  -25.4149  -36.3050   24.0311 C   0  0  1  0  0  0
  -20.5887  -28.3646   23.1272 C   0  0  2  0  0  0
  -20.6783  -26.9360   22.5411 C   0  0  0  0  0  0
  -19.5763  -26.6351   21.5199 C   0  0  0  0  0  0
  -18.1935  -26.7874   22.1614 C   0  0  0  0  0  0
  -19.1526  -28.8799   23.2873 C   0  0  0  0  0  0
  -18.9464  -30.1419   23.8876 C   0  0  0  0  0  0
  -17.6462  -30.6539   24.0546 C   0  0  0  0  0  0
  -25.9117  -34.9439   23.5080 C   0  0  0  0  0  0
  -16.5355  -29.9034   23.6327 C   0  0  0  0  0  0
  -16.7274  -28.6448   23.0342 C   0  0  0  0  0  0
  -26.4484  -31.6500   25.0758 C   0  0  0  0  0  0
  -25.3661  -31.3702   26.1447 C   0  0  0  0  0  0
  -27.0252  -30.2887   24.6307 C   0  0  0  0  0  0
  -27.6019  -32.4190   25.7622 C   0  0  0  0  0  0
  -27.5586  -37.1759   24.8507 C   0  0  0  0  0  0
  -21.4193  -29.3012   22.3661 N   0  0  0  0  0  0
  -26.4312  -37.3776   23.9454 N   0  0  0  0  0  0
  -24.6945  -31.0536   22.0960 N   0  0  0  0  0  0
  -23.4220  -28.8139   23.3023 O   0  0  0  0  0  0
  -28.3240  -26.4074   20.0358 O   0  0  0  0  0  0
  -26.5621  -34.8915   22.4609 O   0  0  0  0  0  0
  -23.5496  -32.1371   23.7305 O   0  0  0  0  0  0
  -29.3336  -23.0269   19.9668 C   0  0  0  0  0  0
  -28.0168  -21.6296   21.0450 C   0  0  0  0  0  0
  -29.0859  -21.6065   20.1952 C   0  0  0  0  0  0
  -28.5243  -23.8615   20.7424 C   0  0  0  0  0  0
  -31.5666  -27.7543   22.2394 C   0  0  0  0  0  0
  -30.7538  -28.1656   21.0353 C   0  0  0  0  0  0
  -29.3726  -16.7317   21.3485 C   0  0  0  0  0  0
  -29.7009  -16.4607   18.9461 C   0  0  0  0  0  0
  -29.7303  -18.2767   21.2049 C   0  0  0  0  0  0
  -30.1278  -17.9641   18.8578 C   0  0  0  0  0  0
  -30.1705  -27.2078   22.0518 C   0  0  0  0  0  0
  -26.6854  -22.1555   23.5958 C   0  0  0  0  0  0
  -25.3762  -23.5572   21.9282 C   0  0  0  0  0  0
  -29.8809  -20.3510   19.6296 C   0  0  0  0  0  0
  -29.9508  -25.7430   21.7111 C   0  0  0  0  0  0
  -28.5673  -25.4146   21.1065 C   0  0  1  0  0  0
  -26.7607  -23.2515   22.5154 C   0  0  0  0  0  0
  -27.7362  -22.9404   21.4596 N   0  0  0  0  0  0
  -29.8371  -15.8157   20.2718 N   0  0  0  0  0  0
  -29.4782  -18.8782   19.8551 N   0  3  0  0  0  0
  -31.4668  -12.5126   19.1736 H   0  0  0  0  0  0
  -30.3359  -11.4274   19.9484 H   0  0  0  0  0  0
  -29.7883  -11.7093   17.5092 H   0  0  0  0  0  0
  -29.6530  -13.4399   17.7172 H   0  0  0  0  0  0
  -27.8713  -11.2792   18.8849 H   0  0  0  0  0  0
  -27.3723  -12.5462   17.7959 H   0  0  0  0  0  0
  -27.6394  -14.2413   19.4679 H   0  0  0  0  0  0
  -28.7005  -12.1506   21.4305 H   0  0  0  0  0  0
  -28.4381  -13.8446   21.7872 H   0  0  0  0  0  0
  -25.2733   -9.5711   22.4743 H   0  0  0  0  0  0
  -23.9974   -7.4668   22.7475 H   0  0  0  0  0  0
  -21.0805   -8.8795   19.8970 H   0  0  0  0  0  0
  -22.3646  -10.9687   19.6173 H   0  0  0  0  0  0
  -21.2037   -7.6127   23.9730 H   0  0  0  0  0  0
  -21.1470   -6.0506   25.9098 H   0  0  0  0  0  0
  -22.0584   -2.7588   23.2863 H   0  0  0  0  0  0
  -22.3975  -11.9955   22.4830 H   0  0  0  0  0  0
  -21.1100  -13.1449   22.2575 H   0  0  0  0  0  0
  -24.6663  -15.8495   20.5096 H   0  0  0  0  0  0
  -26.2846  -15.6158   20.0611 H   0  0  0  0  0  0
  -26.7333  -32.5384   23.1151 H   0  0  0  0  0  0
  -25.0259  -33.9657   25.0465 H   0  0  0  0  0  0
  -22.7208  -31.2942   21.3974 H   0  0  0  0  0  0
  -23.3796  -35.9694   23.3159 H   0  0  0  0  0  0
  -24.3716  -36.8970   22.2042 H   0  0  0  0  0  0
  -23.7313  -37.6503   23.6592 H   0  0  0  0  0  0
  -26.0959  -31.5308   20.6028 H   0  0  0  0  0  0
  -26.8506  -30.8273   22.0045 H   0  0  0  0  0  0
  -28.1194  -28.9715   21.1767 H   0  0  0  0  0  0
  -26.0086  -25.8994   19.0139 H   0  0  0  0  0  0
  -23.9784  -27.2912   19.0106 H   0  0  0  0  0  0
  -23.7581  -30.5754   19.4017 H   0  0  0  0  0  0
  -22.7551  -29.2351   19.8565 H   0  0  0  0  0  0
  -25.1251  -36.1873   25.0774 H   0  0  0  0  0  0
  -20.9956  -28.3210   24.1407 H   0  0  0  0  0  0
  -20.5655  -26.2238   23.3611 H   0  0  0  0  0  0
  -21.6661  -26.7382   22.1215 H   0  0  0  0  0  0
  -19.6952  -25.6260   21.1230 H   0  0  0  0  0  0
  -19.6711  -27.3157   20.6718 H   0  0  0  0  0  0
  -17.4218  -26.6606   21.4009 H   0  0  0  0  0  0
  -18.0376  -25.9994   22.8995 H   0  0  0  0  0  0
  -19.7944  -30.7239   24.2222 H   0  0  0  0  0  0
  -17.5015  -31.6209   24.5147 H   0  0  0  0  0  0
  -15.5341  -30.2911   23.7655 H   0  0  0  0  0  0
  -15.8697  -28.0756   22.7030 H   0  0  0  0  0  0
  -24.5897  -30.6919   25.7837 H   0  0  0  0  0  0
  -24.8709  -32.2855   26.4689 H   0  0  0  0  0  0
  -25.7924  -30.9077   27.0371 H   0  0  0  0  0  0
  -26.2885  -29.6731   24.1136 H   0  0  0  0  0  0
  -27.3609  -29.7121   25.4925 H   0  0  0  0  0  0
  -27.8889  -30.4000   23.9758 H   0  0  0  0  0  0
  -27.2646  -33.3488   26.2180 H   0  0  0  0  0  0
  -28.3895  -32.6726   25.0554 H   0  0  0  0  0  0
  -28.0606  -31.8293   26.5565 H   0  0  0  0  0  0
  -28.2615  -38.0027   24.7525 H   0  0  0  0  0  0
  -28.1040  -36.2565   24.6302 H   0  0  0  0  0  0
  -27.2350  -37.1390   25.8931 H   0  0  0  0  0  0
  -20.9380  -29.8705   21.6828 H   0  0  0  0  0  0
  -26.0155  -38.2839   24.1447 H   0  0  0  0  0  0
  -30.1304  -23.4092   19.3401 H   0  0  0  0  0  0
  -27.4762  -20.7941   21.4674 H   0  0  0  0  0  0
  -31.7141  -28.4884   23.0291 H   0  0  0  0  0  0
  -32.4136  -27.0970   22.0570 H   0  0  0  0  0  0
  -30.3713  -29.1840   21.0134 H   0  0  0  0  0  0
  -31.0369  -27.7629   20.0642 H   0  0  0  0  0  0
  -28.2866  -16.6388   21.3861 H   0  0  0  0  0  0
  -29.7186  -16.3701   22.3186 H   0  0  0  0  0  0
  -30.2606  -15.8939   18.1983 H   0  0  0  0  0  0
  -28.6579  -16.3749   18.6453 H   0  0  0  0  0  0
  -30.7850  -18.4122   21.4551 H   0  0  0  0  0  0
  -29.1754  -18.8474   21.9490 H   0  0  0  0  0  0
  -29.9217  -18.3193   17.8463 H   0  0  0  0  0  0
  -31.2133  -18.0138   18.9759 H   0  0  0  0  0  0
  -29.4158  -27.6155   22.7243 H   0  0  0  0  0  0
  -26.1323  -22.5044   24.4680 H   0  0  0  0  0  0
  -27.6814  -21.8785   23.9386 H   0  0  0  0  0  0
  -26.1869  -21.2545   23.2389 H   0  0  0  0  0  0
  -24.9619  -22.6959   21.4053 H   0  0  0  0  0  0
  -25.4198  -24.3883   21.2231 H   0  0  0  0  0  0
  -24.6730  -23.8333   22.7123 H   0  0  0  0  0  0
  -30.9306  -20.4627   19.9021 H   0  0  0  0  0  0
  -29.8702  -20.5062   18.5505 H   0  0  0  0  0  0
  -30.1116  -25.1462   22.6127 H   0  0  0  0  0  0
  -30.7268  -25.4429   21.0052 H   0  0  0  0  0  0
  -27.8304  -25.6493   21.8728 H   0  0  0  0  0  0
  -27.1030  -24.1297   23.0546 H   0  0  0  0  0  0
  -28.4869  -18.8403   19.6832 H   0  0  0  0  0  0
  1 25  1  0  0  0
  1 30  2  0  0  0
  1 89  1  0  0  0
  2  3  1  0  0  0
  2 25  1  0  0  0
  2 91  1  0  0  0
  2 92  1  0  0  0
  3  4  1  0  0  0
  3 93  1  0  0  0
  3 94  1  0  0  0
  4  5  1  0  0  0
  4 95  1  0  0  0
  4 96  1  0  0  0
  5  6  1  0  0  0
  5 26  1  0  0  0
  5 97  1  0  0  0
  6 25  1  0  0  0
  6 98  1  0  0  0
  6 99  1  0  0  0
  7  8  2  0  0  0
  7 26  1  0  0  0
  7 29  1  0  0  0
  8  9  1  0  0  0
  8 22  1  0  0  0
  9 10  1  0  0  0
  9 27  2  0  0  0
 10 11  2  0  0  0
 10 15  1  0  0  0
 11 12  1  0  0  0
 11100  1  0  0  0
 12 13  2  0  0  0
 12101  1  0  0  0
 13 14  1  0  0  0
 13 31  1  0  0  0
 14 15  2  0  0  0
 14102  1  0  0  0
 15103  1  0  0  0
 16 17  2  0  0  0
 16 21  1  0  0  0
 16 31  1  0  0  0
 17 18  1  0  0  0
 17104  1  0  0  0
 18 19  2  0  0  0
 18105  1  0  0  0
 19 20  1  0  0  0
 19 24  1  0  0  0
 20 21  2  0  0  0
 20106  1  0  0  0
 21 23  1  0  0  0
 22 28  1  0  0  0
 22 32  2  0  0  0
 26 27  1  0  0  0
 28107  1  0  0  0
 28108  1  0  0  0
 29109  1  0  0  0
 29110  1  0  0  0
 33 34  1  0  0  0
 33 66  1  0  0  0
 33 70  2  0  0  0
 34 36  1  0  0  0
 34 59  1  0  0  0
 34111  1  0  0  0
 35 44  2  0  0  0
 35 45  1  0  0  0
 35 68  1  0  0  0
 36 56  1  0  0  0
 36112  1  0  0  0
 37 39  1  0  0  0
 37 47  1  0  0  0
 37 66  1  0  0  0
 37113  1  0  0  0
 38 43  2  0  0  0
 38 46  1  0  0  0
 38 47  1  0  0  0
 39 64  1  0  0  0
 39 67  2  0  0  0
 40 52  1  0  0  0
 40 53  2  0  0  0
 40 58  1  0  0  0
 41114  1  0  0  0
 41115  1  0  0  0
 41116  1  0  0  0
 41 48  1  0  0  0
 42 43  1  0  0  0
 42 66  1  0  0  0
 42117  1  0  0  0
 42118  1  0  0  0
 43 44  1  0  0  0
 44119  1  0  0  0
 45 46  2  0  0  0
 45120  1  0  0  0
 46121  1  0  0  0
 47122  1  0  0  0
 47123  1  0  0  0
 48 56  1  0  0  0
 48 65  1  0  0  0
 48124  1  0  0  0
 49 50  1  0  0  0
 49 53  1  0  0  0
 49 64  1  0  0  0
 49125  1  0  0  0
 50 51  1  0  0  0
 50126  1  0  0  0
 50127  1  0  0  0
 51 52  1  0  0  0
 51128  1  0  0  0
 51129  1  0  0  0
 52130  1  0  0  0
 52131  1  0  0  0
 53 54  1  0  0  0
 54 55  2  0  0  0
 54132  1  0  0  0
 55 57  1  0  0  0
 55133  1  0  0  0
 56 69  2  0  0  0
 57 58  2  0  0  0
 57134  1  0  0  0
 58135  1  0  0  0
 59 60  1  0  0  0
 59 61  1  0  0  0
 59 62  1  0  0  0
 60136  1  0  0  0
 60137  1  0  0  0
 60138  1  0  0  0
 61139  1  0  0  0
 61140  1  0  0  0
 61141  1  0  0  0
 62142  1  0  0  0
 62143  1  0  0  0
 62144  1  0  0  0
 63 65  1  0  0  0
 63145  1  0  0  0
 63146  1  0  0  0
 63147  1  0  0  0
 64148  1  0  0  0
 65149  1  0  0  0
 68 86  1  0  0  0
 71 73  1  0  0  0
 71 74  2  0  0  0
 71150  1  0  0  0
 72 73  2  0  0  0
 72 88  1  0  0  0
 72151  1  0  0  0
 73 84  1  0  0  0
 74 86  1  0  0  0
 74 88  1  0  0  0
 75 76  1  0  0  0
 75 81  1  0  0  0
 75152  1  0  0  0
 75153  1  0  0  0
 76 81  1  0  0  0
 76154  1  0  0  0
 76155  1  0  0  0
 77 79  1  0  0  0
 77 89  1  0  0  0
 77156  1  0  0  0
 77157  1  0  0  0
 78 80  1  0  0  0
 78 89  1  0  0  0
 78158  1  0  0  0
 78159  1  0  0  0
 79 90  1  0  0  0
 79160  1  0  0  0
 79161  1  0  0  0
 80 90  1  0  0  0
 80162  1  0  0  0
 80163  1  0  0  0
 81 85  1  0  0  0
 81164  1  0  0  0
 82165  1  0  0  0
 82166  1  0  0  0
 82167  1  0  0  0
 82 87  1  0  0  0
 83 87  1  0  0  0
 83168  1  0  0  0
 83169  1  0  0  0
 83170  1  0  0  0
 84171  1  0  0  0
 84172  1  0  0  0
 84 90  1  0  0  0
 85173  1  0  0  0
 85174  1  0  0  0
 85 86  1  0  0  0
 86175  1  0  0  0
 87 88  1  0  0  0
 87176  1  0  0  0
 90177  1  0  0  0
M  CHG  1  90   1
M  ISO  4   1 100  68 101  86 101  89 100
M  END
> <chiral flag>
0

> <version>
0

> <s_m_source_file>
/data/baiqing/PycharmProjects/Reinvent-master-3.2/result/LINK_invent/BTK/process_docking_weight1_custom_sum_contain_oxygen_bond_distance_aromatic_linkinvent_7_9_3/rearranged_h_0126.sdf

> <i_m_source_file_index>
18

> <r_mmod_Potential_Energy-OPLS-2005>
327.372314453125

> <r_mmod_Stretch_Energy-OPLS-2005>
104.409729003906

> <r_mmod_Bend_Energy-OPLS-2005>
183.481231689453

> <r_mmod_Torsional_Energy-OPLS-2005>
506.511505126953

> <r_mmod_Improper_Torsional_Energy-OPLS-2005>
18.0759239196777

> <r_mmod_Van_der_Waal_Energy-OPLS-2005>
100.117042541504

> <r_mmod_Electrostatic_Energy-OPLS-2005>
-227.297607421875

> <r_mmod_Solvation_Energy-OPLS-2005>
-425.17431640625

> <b_mmod_Minimization_Converged-OPLS-2005>
0

> <r_mmod_RMS_Derivative-OPLS-2005>
5.55903673171997

$$$$
18
                    3D
 Structure written by MMmdl.
161169  0  0  1  0            999 V2000
  -30.7588  -14.3968   20.6666 C   0  0  0  0  0  0
  -30.4199  -12.3050   19.4029 C   0  0  0  0  0  0
  -29.4884  -12.5110   18.1950 C   0  0  0  0  0  0
  -28.0134  -12.3612   18.6146 C   0  0  0  0  0  0
  -27.6623  -13.2019   19.8698 C   0  0  2  0  0  0
  -28.6994  -12.9791   20.9929 C   0  0  0  0  0  0
  -25.2607  -13.8155   20.5707 C   0  0  0  0  0  0
  -24.1841  -13.0434   20.9191 C   0  0  0  0  0  0
  -24.6369  -11.6907   20.8686 C   0  0  0  0  0  0
  -23.9050  -10.4291   21.0386 C   0  0  0  0  0  0
  -24.3618   -9.4231   21.9180 C   0  0  0  0  0  0
  -23.6311   -8.2250   22.0747 C   0  0  0  0  0  0
  -22.4300   -8.0269   21.3521 C   0  0  0  0  0  0
  -21.9915   -9.0249   20.4643 C   0  0  0  0  0  0
  -22.7214  -10.2143   20.3058 C   0  0  0  0  0  0
  -21.6862   -6.0755   22.5280 C   0  0  0  0  0  0
  -21.4021   -6.5659   23.8220 C   0  0  0  0  0  0
  -21.3631   -5.6803   24.9169 C   0  0  0  0  0  0
  -21.6040   -4.3064   24.7227 C   0  0  0  0  0  0
  -21.8825   -3.8171   23.4337 C   0  0  0  0  0  0
  -21.9206   -4.6984   22.3404 C   0  0  0  0  0  0
  -22.7873  -13.5269   21.1869 C   0  0  0  0  0  0
  -22.1678   -4.2171   21.0984 F   0  0  0  0  0  0
  -21.5617   -3.4537   25.7732 F   0  0  0  0  0  0
  -30.0412  -13.2657   20.4501 N   0  0  0  0  0  0
  -26.3011  -12.9310   20.3334 N   0  0  0  0  0  0
  -25.9295  -11.6479   20.5730 N   0  0  0  0  0  0
  -22.0524  -12.8238   22.0406 N   0  0  0  0  0  0
  -25.4426  -15.1867   20.4156 N   0  0  0  0  0  0
  -31.8127  -14.6559   20.0756 O   0  0  0  0  0  0
  -21.6646   -6.8870   21.4233 O   0  0  0  0  0  0
  -22.3560  -14.5575   20.6709 O   0  0  0  0  0  0
  -24.6134  -31.8728   23.2165 C   0  0  0  0  0  0
  -25.9047  -32.4848   23.8435 C   0  0  1  0  0  0
  -27.2027  -27.4288   20.1107 C   0  0  0  0  0  0
  -25.5884  -33.8646   24.2358 N   0  0  0  0  0  0
  -23.3957  -30.5089   21.5566 C   0  0  2  0  0  0
  -24.8334  -28.9802   20.1117 C   0  0  0  0  0  0
  -22.7391  -29.4744   22.5007 C   0  0  0  0  0  0
  -18.0315  -28.1362   22.8583 C   0  0  0  0  0  0
  -24.1505  -36.7327   23.2640 C   0  0  0  0  0  0
  -25.9290  -30.8440   21.3682 C   0  0  0  0  0  0
  -25.9956  -29.4797   20.7118 C   0  0  0  0  0  0
  -27.1817  -28.7126   20.7035 C   0  0  0  0  0  0
  -26.0155  -26.9453   19.5091 C   0  0  0  0  0  0
  -24.8379  -27.7164   19.5020 C   0  0  0  0  0  0
  -23.5987  -29.8486   20.1670 C   0  0  0  0  0  0
  -25.4116  -36.3107   24.0334 C   0  0  1  0  0  0
  -20.5891  -28.3693   23.1342 C   0  0  2  0  0  0
  -20.6861  -26.9469   22.5388 C   0  0  0  0  0  0
  -19.5781  -26.6492   21.5244 C   0  0  0  0  0  0
  -18.2024  -26.7883   22.1791 C   0  0  0  0  0  0
  -19.1546  -28.8857   23.2955 C   0  0  0  0  0  0
  -18.9461  -30.1498   23.8878 C   0  0  0  0  0  0
  -17.6453  -30.6618   24.0512 C   0  0  0  0  0  0
  -25.9028  -34.9478   23.5124 C   0  0  0  0  0  0
  -16.5356  -29.9086   23.6329 C   0  0  0  0  0  0
  -16.7296  -28.6482   23.0395 C   0  0  0  0  0  0
  -26.4472  -31.6604   25.0752 C   0  0  0  0  0  0
  -25.3758  -31.3728   26.1512 C   0  0  0  0  0  0
  -27.0291  -30.3047   24.6113 C   0  0  0  0  0  0
  -27.6038  -32.4343   25.7503 C   0  0  0  0  0  0
  -27.5588  -37.1823   24.8448 C   0  0  0  0  0  0
  -21.4112  -29.3100   22.3747 N   0  0  0  0  0  0
  -26.4302  -37.3787   23.9382 N   0  0  0  0  0  0
  -24.6645  -31.0869   22.1052 N   0  0  0  0  0  0
  -23.4225  -28.8274   23.3000 O   0  0  0  0  0  0
  -28.3863  -26.7167   20.1343 O   0  0  0  0  0  0
  -26.5608  -34.8906   22.4704 O   0  0  0  0  0  0
  -23.5320  -32.1464   23.7557 O   0  0  0  0  0  0
  -29.6775  -23.2767   19.7821 C   0  0  0  0  0  0
  -29.7643  -24.7969   19.5898 C   0  0  0  0  0  0
  -27.9924  -24.4275   21.1135 C   0  0  0  0  0  0
  -28.4897  -23.0139   20.7274 C   0  0  1  0  0  0
  -28.3660  -25.2990   19.9008 C   0  0  1  0  0  0
  -31.0245  -16.3426   22.1911 C   0  0  0  0  0  0
  -28.7156  -20.7593   21.6453 C   0  0  0  0  0  0
  -30.9711  -17.6676   21.3938 C   0  0  0  0  0  0
  -30.0358  -19.9583   21.7306 C   0  0  0  0  0  0
  -30.2714  -15.2344   21.5905 N   0  0  0  0  0  0
  -28.8991  -22.1978   21.8778 N   0  0  0  0  0  0
  -29.7898  -18.4953   21.7273 N   0  3  0  0  0  0
  -31.4571  -12.4194   19.0892 H   0  0  0  0  0  0
  -30.3402  -11.2880   19.7859 H   0  0  0  0  0  0
  -29.7240  -11.7907   17.4098 H   0  0  0  0  0  0
  -29.6562  -13.4998   17.7662 H   0  0  0  0  0  0
  -27.8280  -11.3035   18.8153 H   0  0  0  0  0  0
  -27.3613  -12.6364   17.7844 H   0  0  0  0  0  0
  -27.7162  -14.2518   19.5768 H   0  0  0  0  0  0
  -28.6642  -11.9470   21.3479 H   0  0  0  0  0  0
  -28.4430  -13.5964   21.8522 H   0  0  0  0  0  0
  -25.2777   -9.5730   22.4732 H   0  0  0  0  0  0
  -24.0040   -7.4667   22.7485 H   0  0  0  0  0  0
  -21.0841   -8.8775   19.8972 H   0  0  0  0  0  0
  -22.3675  -10.9685   19.6162 H   0  0  0  0  0  0
  -21.2005   -7.6165   23.9712 H   0  0  0  0  0  0
  -21.1446   -6.0537   25.9066 H   0  0  0  0  0  0
  -22.0625   -2.7632   23.2848 H   0  0  0  0  0  0
  -22.4143  -11.9865   22.4747 H   0  0  0  0  0  0
  -21.1144  -13.1252   22.2636 H   0  0  0  0  0  0
  -24.6905  -15.8586   20.5286 H   0  0  0  0  0  0
  -26.3022  -15.6084   20.0858 H   0  0  0  0  0  0
  -26.7138  -32.5561   23.1209 H   0  0  0  0  0  0
  -24.9978  -33.9835   25.0456 H   0  0  0  0  0  0
  -22.6847  -31.3279   21.4224 H   0  0  0  0  0  0
  -23.3746  -35.9681   23.3301 H   0  0  0  0  0  0
  -24.3591  -36.8952   22.2050 H   0  0  0  0  0  0
  -23.7292  -37.6544   23.6670 H   0  0  0  0  0  0
  -26.0383  -31.6174   20.6067 H   0  0  0  0  0  0
  -26.8201  -30.8897   21.9860 H   0  0  0  0  0  0
  -28.0807  -29.0880   21.1695 H   0  0  0  0  0  0
  -25.9600  -25.9788   19.0323 H   0  0  0  0  0  0
  -23.9363  -27.3350   19.0389 H   0  0  0  0  0  0
  -23.7025  -30.6280   19.4106 H   0  0  0  0  0  0
  -22.7209  -29.2687   19.8719 H   0  0  0  0  0  0
  -25.1306  -36.1960   25.0834 H   0  0  0  0  0  0
  -20.9982  -28.3257   24.1457 H   0  0  0  0  0  0
  -21.6715  -26.7646   22.1083 H   0  0  0  0  0  0
  -20.5919  -26.2288   23.3539 H   0  0  0  0  0  0
  -19.7028  -25.6478   21.1175 H   0  0  0  0  0  0
  -19.6638  -27.3399   20.6829 H   0  0  0  0  0  0
  -17.4226  -26.6459   21.4310 H   0  0  0  0  0  0
  -18.0609  -26.0049   22.9273 H   0  0  0  0  0  0
  -19.7913  -30.7374   24.2225 H   0  0  0  0  0  0
  -17.4984  -31.6337   24.5007 H   0  0  0  0  0  0
  -15.5350  -30.2979   23.7575 H   0  0  0  0  0  0
  -15.8738  -28.0766   22.7100 H   0  0  0  0  0  0
  -24.5918  -30.7076   25.7904 H   0  0  0  0  0  0
  -24.8957  -32.2878   26.4970 H   0  0  0  0  0  0
  -25.8108  -30.8922   27.0269 H   0  0  0  0  0  0
  -26.2856  -29.6871   24.1077 H   0  0  0  0  0  0
  -27.3957  -29.7211   25.4558 H   0  0  0  0  0  0
  -27.8715  -30.4375   23.9333 H   0  0  0  0  0  0
  -27.2645  -33.3631   26.2084 H   0  0  0  0  0  0
  -28.3819  -32.6928   25.0327 H   0  0  0  0  0  0
  -28.0729  -31.8484   26.5404 H   0  0  0  0  0  0
  -28.2594  -38.0137   24.7473 H   0  0  0  0  0  0
  -28.1091  -36.2644   24.6283 H   0  0  0  0  0  0
  -27.2283  -37.1488   25.8852 H   0  0  0  0  0  0
  -20.9200  -29.8944   21.7107 H   0  0  0  0  0  0
  -26.0174  -38.2864   24.1371 H   0  0  0  0  0  0
  -30.6181  -22.8871   20.1627 H   0  0  0  0  0  0
  -29.4887  -22.7968   18.8195 H   0  0  0  0  0  0
  -30.0837  -25.0618   18.5822 H   0  0  0  0  0  0
  -30.4669  -25.2274   20.3061 H   0  0  0  0  0  0
  -28.5001  -24.8072   22.0040 H   0  0  0  0  0  0
  -26.9241  -24.4523   21.3203 H   0  0  0  0  0  0
  -27.6837  -22.5220   20.1752 H   0  0  0  0  0  0
  -27.7561  -25.0234   19.0407 H   0  0  0  0  0  0
  -32.0691  -16.0408   22.2735 H   0  0  0  0  0  0
  -30.7038  -16.4876   23.2220 H   0  0  0  0  0  0
  -28.0215  -20.3976   22.4071 H   0  0  0  0  0  0
  -28.2305  -20.5576   20.6888 H   0  0  0  0  0  0
  -31.0002  -17.4845   20.3209 H   0  0  0  0  0  0
  -31.8721  -18.2394   21.6155 H   0  0  0  0  0  0
  -30.5758  -20.2224   22.6428 H   0  0  0  0  0  0
  -30.6846  -20.2219   20.8939 H   0  0  0  0  0  0
  -29.3833  -14.9780   21.9984 H   0  0  0  0  0  0
  -28.3181  -22.4490   22.6733 H   0  0  0  0  0  0
  -29.4722  -18.2346   22.6435 H   0  0  0  0  0  0
  -29.0489  -18.2848   21.0805 H   0  0  0  0  0  0
  1 25  1  0  0  0
  1 30  2  0  0  0
  1 80  1  0  0  0
  2  3  1  0  0  0
  2 25  1  0  0  0
  2 83  1  0  0  0
  2 84  1  0  0  0
  3  4  1  0  0  0
  3 85  1  0  0  0
  3 86  1  0  0  0
  4  5  1  0  0  0
  4 87  1  0  0  0
  4 88  1  0  0  0
  5  6  1  0  0  0
  5 26  1  0  0  0
  5 89  1  0  0  0
  6 25  1  0  0  0
  6 90  1  0  0  0
  6 91  1  0  0  0
  7  8  2  0  0  0
  7 26  1  0  0  0
  7 29  1  0  0  0
  8  9  1  0  0  0
  8 22  1  0  0  0
  9 10  1  0  0  0
  9 27  2  0  0  0
 10 11  2  0  0  0
 10 15  1  0  0  0
 11 12  1  0  0  0
 11 92  1  0  0  0
 12 13  2  0  0  0
 12 93  1  0  0  0
 13 14  1  0  0  0
 13 31  1  0  0  0
 14 15  2  0  0  0
 14 94  1  0  0  0
 15 95  1  0  0  0
 16 17  2  0  0  0
 16 21  1  0  0  0
 16 31  1  0  0  0
 17 18  1  0  0  0
 17 96  1  0  0  0
 18 19  2  0  0  0
 18 97  1  0  0  0
 19 20  1  0  0  0
 19 24  1  0  0  0
 20 21  2  0  0  0
 20 98  1  0  0  0
 21 23  1  0  0  0
 22 28  1  0  0  0
 22 32  2  0  0  0
 26 27  1  0  0  0
 28 99  1  0  0  0
 28100  1  0  0  0
 29101  1  0  0  0
 29102  1  0  0  0
 33 34  1  0  0  0
 33 66  1  0  0  0
 33 70  2  0  0  0
 34 36  1  0  0  0
 34 59  1  0  0  0
 34103  1  0  0  0
 35 44  2  0  0  0
 35 45  1  0  0  0
 35 68  1  0  0  0
 36 56  1  0  0  0
 36104  1  0  0  0
 37 39  1  0  0  0
 37 47  1  0  0  0
 37 66  1  0  0  0
 37105  1  0  0  0
 38 43  2  0  0  0
 38 46  1  0  0  0
 38 47  1  0  0  0
 39 64  1  0  0  0
 39 67  2  0  0  0
 40 52  1  0  0  0
 40 53  2  0  0  0
 40 58  1  0  0  0
 41106  1  0  0  0
 41107  1  0  0  0
 41108  1  0  0  0
 41 48  1  0  0  0
 42 43  1  0  0  0
 42 66  1  0  0  0
 42109  1  0  0  0
 42110  1  0  0  0
 43 44  1  0  0  0
 44111  1  0  0  0
 45 46  2  0  0  0
 45112  1  0  0  0
 46113  1  0  0  0
 47114  1  0  0  0
 47115  1  0  0  0
 48 56  1  0  0  0
 48 65  1  0  0  0
 48116  1  0  0  0
 49 50  1  0  0  0
 49 53  1  0  0  0
 49 64  1  0  0  0
 49117  1  0  0  0
 50 51  1  0  0  0
 50118  1  0  0  0
 50119  1  0  0  0
 51 52  1  0  0  0
 51120  1  0  0  0
 51121  1  0  0  0
 52122  1  0  0  0
 52123  1  0  0  0
 53 54  1  0  0  0
 54 55  2  0  0  0
 54124  1  0  0  0
 55 57  1  0  0  0
 55125  1  0  0  0
 56 69  2  0  0  0
 57 58  2  0  0  0
 57126  1  0  0  0
 58127  1  0  0  0
 59 60  1  0  0  0
 59 61  1  0  0  0
 59 62  1  0  0  0
 60128  1  0  0  0
 60129  1  0  0  0
 60130  1  0  0  0
 61131  1  0  0  0
 61132  1  0  0  0
 61133  1  0  0  0
 62134  1  0  0  0
 62135  1  0  0  0
 62136  1  0  0  0
 63 65  1  0  0  0
 63137  1  0  0  0
 63138  1  0  0  0
 63139  1  0  0  0
 64140  1  0  0  0
 65141  1  0  0  0
 68 75  1  0  0  0
 71 72  1  0  0  0
 71 74  1  0  0  0
 71142  1  0  0  0
 71143  1  0  0  0
 72 75  1  0  0  0
 72144  1  0  0  0
 72145  1  0  0  0
 73 74  1  0  0  0
 73 75  1  0  0  0
 73146  1  0  0  0
 73147  1  0  0  0
 74 81  1  0  0  0
 74148  1  0  0  0
 75149  1  0  0  0
 76 78  1  0  0  0
 76 80  1  0  0  0
 76150  1  0  0  0
 76151  1  0  0  0
 77 79  1  0  0  0
 77 81  1  0  0  0
 77152  1  0  0  0
 77153  1  0  0  0
 78 82  1  0  0  0
 78154  1  0  0  0
 78155  1  0  0  0
 79 82  1  0  0  0
 79156  1  0  0  0
 79157  1  0  0  0
 80158  1  0  0  0
 81159  1  0  0  0
 82160  1  0  0  0
 82161  1  0  0  0
M  CHG  1  82   1
M  ISO  4   1 100  68 101  75 101  80 100
M  END
> <chiral flag>
0

> <version>
0

> <s_m_source_file>
/data/baiqing/PycharmProjects/Reinvent-master-3.2/result/LINK_invent/BTK/process_docking_weight1_custom_sum_contain_oxygen_bond_distance_aromatic_linkinvent_7_9_3/rearranged_h_0126.sdf

> <i_m_source_file_index>
19

> <r_mmod_Potential_Energy-OPLS-2005>
-188.486587524414

> <r_mmod_Stretch_Energy-OPLS-2005>
34.3308944702148

> <r_mmod_Bend_Energy-OPLS-2005>
128.874893188477

> <r_mmod_Torsional_Energy-OPLS-2005>
292.217956542969

> <r_mmod_Improper_Torsional_Energy-OPLS-2005>
1.90908432006836

> <r_mmod_Van_der_Waal_Energy-OPLS-2005>
139.406814575195

> <r_mmod_Electrostatic_Energy-OPLS-2005>
-311.179168701172

> <r_mmod_Solvation_Energy-OPLS-2005>
-484.964904785156

> <b_mmod_Minimization_Converged-OPLS-2005>
0

> <r_mmod_RMS_Derivative-OPLS-2005>
5.85019254684448

$$$$
19
                    3D
 Structure written by MMmdl.
171180  0  0  1  0            999 V2000
  -30.6533  -14.6065   20.4863 C   0  0  0  0  0  0
  -30.4268  -12.3648   19.4629 C   0  0  0  0  0  0
  -29.5053  -12.4929   18.2308 C   0  0  0  0  0  0
  -28.0305  -12.3338   18.6444 C   0  0  0  0  0  0
  -27.6524  -13.2173   19.8626 C   0  0  2  0  0  0
  -28.6949  -13.0929   20.9981 C   0  0  0  0  0  0
  -25.2538  -13.8173   20.5673 C   0  0  0  0  0  0
  -24.1806  -13.0431   20.9197 C   0  0  0  0  0  0
  -24.6390  -11.6910   20.8760 C   0  0  0  0  0  0
  -23.9064  -10.4289   21.0425 C   0  0  0  0  0  0
  -24.3620   -9.4201   21.9202 C   0  0  0  0  0  0
  -23.6291   -8.2239   22.0768 C   0  0  0  0  0  0
  -22.4276   -8.0283   21.3555 C   0  0  0  0  0  0
  -21.9925   -9.0257   20.4649 C   0  0  0  0  0  0
  -22.7252  -10.2129   20.3062 C   0  0  0  0  0  0
  -21.6836   -6.0733   22.5276 C   0  0  0  0  0  0
  -21.4015   -6.5648   23.8213 C   0  0  0  0  0  0
  -21.3663   -5.6807   24.9181 C   0  0  0  0  0  0
  -21.6047   -4.3069   24.7234 C   0  0  0  0  0  0
  -21.8812   -3.8152   23.4356 C   0  0  0  0  0  0
  -21.9187   -4.6963   22.3400 C   0  0  0  0  0  0
  -22.7826  -13.5220   21.1858 C   0  0  0  0  0  0
  -22.1652   -4.2145   21.0977 F   0  0  0  0  0  0
  -21.5636   -3.4560   25.7750 F   0  0  0  0  0  0
  -30.0144  -13.4005   20.4294 N   0  0  0  0  0  0
  -26.2974  -12.9368   20.3323 N   0  0  0  0  0  0
  -25.9322  -11.6526   20.5795 N   0  0  0  0  0  0
  -22.0473  -12.8200   22.0409 N   0  0  0  0  0  0
  -25.4249  -15.1898   20.4079 N   0  0  0  0  0  0
  -31.8200  -14.7396   20.1095 O   0  0  0  0  0  0
  -21.6640   -6.8881   21.4240 O   0  0  0  0  0  0
  -22.3522  -14.5532   20.6714 O   0  0  0  0  0  0
  -24.6216  -31.8633   23.2079 C   0  0  0  0  0  0
  -25.9101  -32.4775   23.8367 C   0  0  1  0  0  0
  -27.2061  -27.3591   20.1024 C   0  0  0  0  0  0
  -25.5934  -33.8585   24.2307 N   0  0  0  0  0  0
  -23.4076  -30.4909   21.5527 C   0  0  2  0  0  0
  -24.8478  -28.9539   20.1111 C   0  0  0  0  0  0
  -22.7435  -29.4644   22.5003 C   0  0  0  0  0  0
  -18.0262  -28.1387   22.8494 C   0  0  0  0  0  0
  -24.1499  -36.7315   23.2636 C   0  0  0  0  0  0
  -25.9450  -30.8062   21.3698 C   0  0  0  0  0  0
  -26.0152  -29.4363   20.7149 C   0  0  0  0  0  0
  -27.1964  -28.6450   20.7122 C   0  0  0  0  0  0
  -26.0240  -26.9273   19.4614 C   0  0  0  0  0  0
  -24.8493  -27.6993   19.4839 C   0  0  0  0  0  0
  -23.6136  -29.8279   20.1670 C   0  0  0  0  0  0
  -25.4113  -36.3090   24.0326 C   0  0  1  0  0  0
  -20.5856  -28.3685   23.1328 C   0  0  2  0  0  0
  -20.6769  -26.9432   22.5413 C   0  0  0  0  0  0
  -19.5740  -26.6391   21.5225 C   0  0  0  0  0  0
  -18.1911  -26.7933   22.1622 C   0  0  0  0  0  0
  -19.1520  -28.8852   23.2888 C   0  0  0  0  0  0
  -18.9446  -30.1463   23.8905 C   0  0  0  0  0  0
  -17.6452  -30.6606   24.0567 C   0  0  0  0  0  0
  -25.9049  -34.9453   23.5119 C   0  0  0  0  0  0
  -16.5341  -29.9104   23.6343 C   0  0  0  0  0  0
  -16.7258  -28.6520   23.0368 C   0  0  0  0  0  0
  -26.4522  -31.6566   25.0710 C   0  0  0  0  0  0
  -25.3778  -31.3624   26.1437 C   0  0  0  0  0  0
  -27.0414  -30.3026   24.6113 C   0  0  0  0  0  0
  -27.6077  -32.4321   25.7488 C   0  0  0  0  0  0
  -27.5594  -37.1795   24.8465 C   0  0  0  0  0  0
  -21.4158  -29.3049   22.3748 N   0  0  0  0  0  0
  -26.4304  -37.3775   23.9414 N   0  0  0  0  0  0
  -24.6771  -31.0689   22.1000 N   0  0  0  0  0  0
  -23.4199  -28.8175   23.3033 O   0  0  0  0  0  0
  -28.3376  -26.5457   20.1709 O   0  0  0  0  0  0
  -26.5616  -34.8920   22.4689 O   0  0  0  0  0  0
  -23.5405  -32.1420   23.7459 O   0  0  0  0  0  0
  -31.5230  -20.6342   24.1587 C   0  0  0  0  0  0
  -27.6253  -22.9775   21.3651 C   0  0  0  0  0  0
  -29.6671  -22.8850   19.8377 C   0  0  0  0  0  0
  -27.1773  -24.3270   20.7290 C   0  0  0  0  0  0
  -29.6276  -24.4307   20.0889 C   0  0  0  0  0  0
  -31.2497  -20.5252   22.6564 C   0  0  0  0  0  0
  -30.1624  -20.3527   24.8129 C   0  0  0  0  0  0
  -28.5263  -22.0457   20.4903 C   0  0  1  0  0  0
  -28.2434  -25.1045   19.8936 C   0  0  2  0  0  0
  -29.8095  -21.0581   22.5514 C   0  0  1  0  0  0
  -30.2026  -17.1140   20.3782 C   0  0  0  0  0  0
  -29.2715  -18.2313   20.9870 C   0  0  0  0  0  0
  -28.9610  -20.7268   21.2779 C   0  0  2  0  0  0
  -29.8790  -15.6997   20.7431 N   0  0  0  0  0  0
  -29.5330  -19.6077   20.4766 N   0  0  0  0  0  0
  -29.1369  -20.6200   23.7881 N   0  3  0  0  0  0
  -31.4737  -12.4581   19.1692 H   0  0  0  0  0  0
  -30.3307  -11.3748   19.9134 H   0  0  0  0  0  0
  -29.7647  -11.7442   17.4813 H   0  0  0  0  0  0
  -29.6515  -13.4654   17.7575 H   0  0  0  0  0  0
  -27.8744  -11.2829   18.8941 H   0  0  0  0  0  0
  -27.3726  -12.5453   17.8019 H   0  0  0  0  0  0
  -27.6665  -14.2474   19.5054 H   0  0  0  0  0  0
  -28.6937  -12.0862   21.4177 H   0  0  0  0  0  0
  -28.4528  -13.7635   21.8231 H   0  0  0  0  0  0
  -25.2751   -9.5675   22.4805 H   0  0  0  0  0  0
  -23.9980   -7.4639   22.7510 H   0  0  0  0  0  0
  -21.0849   -8.8774   19.8968 H   0  0  0  0  0  0
  -22.3703  -10.9676   19.6187 H   0  0  0  0  0  0
  -21.2008   -7.6161   23.9708 H   0  0  0  0  0  0
  -21.1503   -6.0551   25.9081 H   0  0  0  0  0  0
  -22.0591   -2.7615   23.2863 H   0  0  0  0  0  0
  -22.4074  -11.9834   22.4746 H   0  0  0  0  0  0
  -21.1105  -13.1247   22.2658 H   0  0  0  0  0  0
  -24.6552  -15.8428   20.5036 H   0  0  0  0  0  0
  -26.2702  -15.6265   20.0618 H   0  0  0  0  0  0
  -26.7145  -32.5467   23.1106 H   0  0  0  0  0  0
  -25.0071  -33.9703   25.0438 H   0  0  0  0  0  0
  -22.6976  -31.3084   21.4163 H   0  0  0  0  0  0
  -23.3749  -35.9655   23.3270 H   0  0  0  0  0  0
  -24.3584  -36.9001   22.2058 H   0  0  0  0  0  0
  -23.7278  -37.6509   23.6695 H   0  0  0  0  0  0
  -26.0626  -31.5690   20.5984 H   0  0  0  0  0  0
  -26.8315  -30.8591   21.9896 H   0  0  0  0  0  0
  -28.0896  -29.0028   21.2065 H   0  0  0  0  0  0
  -25.9751  -25.9793   18.9481 H   0  0  0  0  0  0
  -23.9540  -27.3236   19.0092 H   0  0  0  0  0  0
  -23.7200  -30.6047   19.4096 H   0  0  0  0  0  0
  -22.7332  -29.2518   19.8743 H   0  0  0  0  0  0
  -25.1288  -36.1941   25.0820 H   0  0  0  0  0  0
  -20.9913  -28.3263   24.1460 H   0  0  0  0  0  0
  -20.5739  -26.2282   23.3585 H   0  0  0  0  0  0
  -21.6630  -26.7517   22.1172 H   0  0  0  0  0  0
  -19.6920  -25.6299   21.1269 H   0  0  0  0  0  0
  -19.6698  -27.3185   20.6739 H   0  0  0  0  0  0
  -17.4190  -26.6697   21.4014 H   0  0  0  0  0  0
  -18.0284  -26.0058   22.9004 H   0  0  0  0  0  0
  -19.7921  -30.7265   24.2296 H   0  0  0  0  0  0
  -17.5011  -31.6301   24.5147 H   0  0  0  0  0  0
  -15.5343  -30.3024   23.7666 H   0  0  0  0  0  0
  -15.8633  -28.0856   22.7100 H   0  0  0  0  0  0
  -24.5973  -30.6968   25.7733 H   0  0  0  0  0  0
  -24.8912  -32.2734   26.4923 H   0  0  0  0  0  0
  -25.8104  -30.8753   27.0185 H   0  0  0  0  0  0
  -26.2981  -29.6682   24.1254 H   0  0  0  0  0  0
  -27.4311  -29.7364   25.4583 H   0  0  0  0  0  0
  -27.8752  -30.4369   23.9212 H   0  0  0  0  0  0
  -27.2708  -33.3662   26.2009 H   0  0  0  0  0  0
  -28.3909  -32.6826   25.0314 H   0  0  0  0  0  0
  -28.0711  -31.8468   26.5447 H   0  0  0  0  0  0
  -28.2567  -38.0132   24.7564 H   0  0  0  0  0  0
  -28.1156  -36.2664   24.6258 H   0  0  0  0  0  0
  -27.2307  -37.1422   25.8865 H   0  0  0  0  0  0
  -20.9332  -29.8797   21.6986 H   0  0  0  0  0  0
  -26.0198  -38.2870   24.1365 H   0  0  0  0  0  0
  -31.8391  -21.6498   24.4015 H   0  0  0  0  0  0
  -32.3003  -19.9496   24.5017 H   0  0  0  0  0  0
  -26.7361  -22.4295   21.6798 H   0  0  0  0  0  0
  -28.1356  -23.2388   22.2880 H   0  0  0  0  0  0
  -30.6348  -22.4964   20.1546 H   0  0  0  0  0  0
  -29.6337  -22.7123   18.7615 H   0  0  0  0  0  0
  -26.8063  -24.9647   21.5327 H   0  0  0  0  0  0
  -26.3114  -24.1286   20.0987 H   0  0  0  0  0  0
  -30.3486  -24.9183   19.4326 H   0  0  0  0  0  0
  -29.9734  -24.6340   21.1037 H   0  0  0  0  0  0
  -31.3337  -19.4824   22.3501 H   0  0  0  0  0  0
  -31.9501  -21.1057   22.0550 H   0  0  0  0  0  0
  -30.0019  -20.9738   25.6957 H   0  0  0  0  0  0
  -30.0828  -19.3109   25.1254 H   0  0  0  0  0  0
  -27.8835  -21.7156   19.6715 H   0  0  0  0  0  0
  -27.9995  -24.9953   18.8372 H   0  0  0  0  0  0
  -29.9203  -22.1391   22.6418 H   0  0  0  0  0  0
  -31.2347  -17.3229   20.6637 H   0  0  0  0  0  0
  -30.1744  -17.1846   19.2901 H   0  0  0  0  0  0
  -29.3950  -18.2121   22.0704 H   0  0  0  0  0  0
  -28.2235  -17.9916   20.7988 H   0  0  0  0  0  0
  -28.0038  -20.3291   21.6196 H   0  0  0  0  0  0
  -28.9323  -15.5088   21.0325 H   0  0  0  0  0  0
  -29.1985  -19.6707   19.5189 H   0  0  0  0  0  0
  -28.4868  -21.3207   24.1087 H   0  0  0  0  0  0
  -28.6262  -19.7712   23.6109 H   0  0  0  0  0  0
  1 25  1  0  0  0
  1 30  2  0  0  0
  1 84  1  0  0  0
  2  3  1  0  0  0
  2 25  1  0  0  0
  2 87  1  0  0  0
  2 88  1  0  0  0
  3  4  1  0  0  0
  3 89  1  0  0  0
  3 90  1  0  0  0
  4  5  1  0  0  0
  4 91  1  0  0  0
  4 92  1  0  0  0
  5  6  1  0  0  0
  5 26  1  0  0  0
  5 93  1  0  0  0
  6 25  1  0  0  0
  6 94  1  0  0  0
  6 95  1  0  0  0
  7  8  2  0  0  0
  7 26  1  0  0  0
  7 29  1  0  0  0
  8  9  1  0  0  0
  8 22  1  0  0  0
  9 10  1  0  0  0
  9 27  2  0  0  0
 10 11  2  0  0  0
 10 15  1  0  0  0
 11 12  1  0  0  0
 11 96  1  0  0  0
 12 13  2  0  0  0
 12 97  1  0  0  0
 13 14  1  0  0  0
 13 31  1  0  0  0
 14 15  2  0  0  0
 14 98  1  0  0  0
 15 99  1  0  0  0
 16 17  2  0  0  0
 16 21  1  0  0  0
 16 31  1  0  0  0
 17 18  1  0  0  0
 17100  1  0  0  0
 18 19  2  0  0  0
 18101  1  0  0  0
 19 20  1  0  0  0
 19 24  1  0  0  0
 20 21  2  0  0  0
 20102  1  0  0  0
 21 23  1  0  0  0
 22 28  1  0  0  0
 22 32  2  0  0  0
 26 27  1  0  0  0
 28103  1  0  0  0
 28104  1  0  0  0
 29105  1  0  0  0
 29106  1  0  0  0
 33 34  1  0  0  0
 33 66  1  0  0  0
 33 70  2  0  0  0
 34 36  1  0  0  0
 34 59  1  0  0  0
 34107  1  0  0  0
 35 44  2  0  0  0
 35 45  1  0  0  0
 35 68  1  0  0  0
 36 56  1  0  0  0
 36108  1  0  0  0
 37 39  1  0  0  0
 37 47  1  0  0  0
 37 66  1  0  0  0
 37109  1  0  0  0
 38 43  2  0  0  0
 38 46  1  0  0  0
 38 47  1  0  0  0
 39 64  1  0  0  0
 39 67  2  0  0  0
 40 52  1  0  0  0
 40 53  2  0  0  0
 40 58  1  0  0  0
 41110  1  0  0  0
 41111  1  0  0  0
 41112  1  0  0  0
 41 48  1  0  0  0
 42 43  1  0  0  0
 42 66  1  0  0  0
 42113  1  0  0  0
 42114  1  0  0  0
 43 44  1  0  0  0
 44115  1  0  0  0
 45 46  2  0  0  0
 45116  1  0  0  0
 46117  1  0  0  0
 47118  1  0  0  0
 47119  1  0  0  0
 48 56  1  0  0  0
 48 65  1  0  0  0
 48120  1  0  0  0
 49 50  1  0  0  0
 49 53  1  0  0  0
 49 64  1  0  0  0
 49121  1  0  0  0
 50 51  1  0  0  0
 50122  1  0  0  0
 50123  1  0  0  0
 51 52  1  0  0  0
 51124  1  0  0  0
 51125  1  0  0  0
 52126  1  0  0  0
 52127  1  0  0  0
 53 54  1  0  0  0
 54 55  2  0  0  0
 54128  1  0  0  0
 55 57  1  0  0  0
 55129  1  0  0  0
 56 69  2  0  0  0
 57 58  2  0  0  0
 57130  1  0  0  0
 58131  1  0  0  0
 59 60  1  0  0  0
 59 61  1  0  0  0
 59 62  1  0  0  0
 60132  1  0  0  0
 60133  1  0  0  0
 60134  1  0  0  0
 61135  1  0  0  0
 61136  1  0  0  0
 61137  1  0  0  0
 62138  1  0  0  0
 62139  1  0  0  0
 62140  1  0  0  0
 63 65  1  0  0  0
 63141  1  0  0  0
 63142  1  0  0  0
 63143  1  0  0  0
 64144  1  0  0  0
 65145  1  0  0  0
 68 79  1  0  0  0
 71 76  1  0  0  0
 71 77  1  0  0  0
 71146  1  0  0  0
 71147  1  0  0  0
 72 74  1  0  0  0
 72148  1  0  0  0
 72149  1  0  0  0
 72 78  1  0  0  0
 73 75  1  0  0  0
 73 78  1  0  0  0
 73150  1  0  0  0
 73151  1  0  0  0
 74 79  1  0  0  0
 74152  1  0  0  0
 74153  1  0  0  0
 75 79  1  0  0  0
 75154  1  0  0  0
 75155  1  0  0  0
 76156  1  0  0  0
 76157  1  0  0  0
 76 80  1  0  0  0
 77 86  1  0  0  0
 77158  1  0  0  0
 77159  1  0  0  0
 78 83  1  0  0  0
 78160  1  0  0  0
 79161  1  0  0  0
 80 83  1  0  0  0
 80 86  1  0  0  0
 80162  1  0  0  0
 81 82  1  0  0  0
 81 84  1  0  0  0
 81163  1  0  0  0
 81164  1  0  0  0
 82 85  1  0  0  0
 82165  1  0  0  0
 82166  1  0  0  0
 83 85  1  0  0  0
 83167  1  0  0  0
 84168  1  0  0  0
 85169  1  0  0  0
 86170  1  0  0  0
 86171  1  0  0  0
M  CHG  1  86   1
M  ISO  4   1 100  68 101  79 101  84 100
M  END
> <chiral flag>
0

> <version>
0

> <s_m_source_file>
/data/baiqing/PycharmProjects/Reinvent-master-3.2/result/LINK_invent/BTK/process_docking_weight1_custom_sum_contain_oxygen_bond_distance_aromatic_linkinvent_7_9_3/rearranged_h_0126.sdf

> <i_m_source_file_index>
20

> <r_mmod_Potential_Energy-OPLS-2005>
-35.1216278076172

> <r_mmod_Stretch_Energy-OPLS-2005>
65.2248840332031

> <r_mmod_Bend_Energy-OPLS-2005>
161.061569213867

> <r_mmod_Torsional_Energy-OPLS-2005>
345.193786621094

> <r_mmod_Improper_Torsional_Energy-OPLS-2005>
6.01866912841797

> <r_mmod_Van_der_Waal_Energy-OPLS-2005>
134.824371337891

> <r_mmod_Electrostatic_Energy-OPLS-2005>
-319.251342773438

> <r_mmod_Solvation_Energy-OPLS-2005>
-466.681884765625

> <b_mmod_Minimization_Converged-OPLS-2005>
0

> <r_mmod_RMS_Derivative-OPLS-2005>
2.95932197570801

$$$$
20
                    3D
 Structure written by MMmdl.
153162  0  0  1  0            999 V2000
  -30.4215  -15.3538   20.3147 C   0  0  0  0  0  0
  -30.4443  -12.8737   19.5087 C   0  0  0  0  0  0
  -29.5318  -12.5613   18.2922 C   0  0  0  0  0  0
  -28.0953  -12.2662   18.7513 C   0  0  0  0  0  0
  -27.6158  -13.2726   19.8236 C   0  0  2  0  0  0
  -28.6534  -13.5086   20.9440 C   0  0  0  0  0  0
  -25.2454  -13.8243   20.5794 C   0  0  0  0  0  0
  -24.1788  -13.0444   20.9278 C   0  0  0  0  0  0
  -24.6435  -11.6940   20.8806 C   0  0  0  0  0  0
  -23.9117  -10.4303   21.0439 C   0  0  0  0  0  0
  -24.3654   -9.4210   21.9209 C   0  0  0  0  0  0
  -23.6324   -8.2257   22.0761 C   0  0  0  0  0  0
  -22.4300   -8.0309   21.3560 C   0  0  0  0  0  0
  -21.9958   -9.0283   20.4656 C   0  0  0  0  0  0
  -22.7301  -10.2160   20.3077 C   0  0  0  0  0  0
  -21.6864   -6.0777   22.5283 C   0  0  0  0  0  0
  -21.4022   -6.5674   23.8218 C   0  0  0  0  0  0
  -21.3640   -5.6812   24.9183 C   0  0  0  0  0  0
  -21.6023   -4.3078   24.7216 C   0  0  0  0  0  0
  -21.8825   -3.8183   23.4343 C   0  0  0  0  0  0
  -21.9202   -4.7002   22.3411 C   0  0  0  0  0  0
  -22.7804  -13.5219   21.1888 C   0  0  0  0  0  0
  -22.1678   -4.2191   21.0986 F   0  0  0  0  0  0
  -21.5603   -3.4555   25.7730 F   0  0  0  0  0  0
  -29.8661  -14.0329   20.2951 N   0  0  0  0  0  0
  -26.2885  -12.9513   20.3311 N   0  0  0  0  0  0
  -25.9368  -11.6618   20.5776 N   0  0  0  0  0  0
  -22.0460  -12.8197   22.0431 N   0  0  0  0  0  0
  -25.4107  -15.1971   20.4203 N   0  0  0  0  0  0
  -31.6421  -15.3339   20.0937 O   0  0  0  0  0  0
  -21.6660   -6.8913   21.4249 O   0  0  0  0  0  0
  -22.3504  -14.5533   20.6728 O   0  0  0  0  0  0
  -24.6660  -31.8170   23.1647 C   0  0  0  0  0  0
  -25.9308  -32.4580   23.8131 C   0  0  1  0  0  0
  -27.2216  -26.8833   20.1644 C   0  0  0  0  0  0
  -25.5993  -33.8378   24.2053 N   0  0  0  0  0  0
  -23.4869  -30.4238   21.5147 C   0  0  2  0  0  0
  -24.9406  -28.8092   20.1015 C   0  0  0  0  0  0
  -22.7700  -29.4385   22.4743 C   0  0  0  0  0  0
  -18.0338  -28.1464   22.8462 C   0  0  0  0  0  0
  -24.1484  -36.7146   23.2644 C   0  0  0  0  0  0
  -26.0556  -30.6079   21.4032 C   0  0  0  0  0  0
  -26.1210  -29.1938   20.7452 C   0  0  0  0  0  0
  -27.2507  -28.2482   20.7588 C   0  0  0  0  0  0
  -26.0125  -26.6704   19.4611 C   0  0  0  0  0  0
  -24.9108  -27.5695   19.4429 C   0  0  0  0  0  0
  -23.7281  -29.7415   20.1408 C   0  0  0  0  0  0
  -25.4141  -36.2935   24.0279 C   0  0  1  0  0  0
  -20.5962  -28.3783   23.1192 C   0  0  2  0  0  0
  -20.6837  -26.9461   22.5435 C   0  0  0  0  0  0
  -19.5816  -26.6440   21.5245 C   0  0  0  0  0  0
  -18.1986  -26.8003   22.1639 C   0  0  0  0  0  0
  -19.1593  -28.8946   23.2824 C   0  0  0  0  0  0
  -18.9502  -30.1544   23.8857 C   0  0  0  0  0  0
  -17.6500  -30.6651   24.0578 C   0  0  0  0  0  0
  -25.9096  -34.9350   23.4990 C   0  0  0  0  0  0
  -16.5382  -29.9141   23.6387 C   0  0  0  0  0  0
  -16.7327  -28.6573   23.0379 C   0  0  0  0  0  0
  -26.4582  -31.6524   25.0654 C   0  0  0  0  0  0
  -25.3697  -31.3792   26.1304 C   0  0  0  0  0  0
  -27.0454  -30.2888   24.6373 C   0  0  0  0  0  0
  -27.6108  -32.4324   25.7430 C   0  0  0  0  0  0
  -27.5556  -37.1725   24.8471 C   0  0  0  0  0  0
  -21.4364  -29.3023   22.3499 N   0  0  0  0  0  0
  -26.4256  -37.3702   23.9417 N   0  0  0  0  0  0
  -24.7572  -30.9805   22.0805 N   0  0  0  0  0  0
  -23.4223  -28.7963   23.3009 O   0  0  0  0  0  0
  -28.2071  -25.7497   20.2963 O   0  0  0  0  0  0
  -26.5709  -34.8877   22.4586 O   0  0  0  0  0  0
  -23.5737  -32.1167   23.6721 O   0  0  0  0  0  0
  -28.0885  -22.2669   21.6559 C   0  0  0  0  0  0
  -28.1413  -20.9608   22.2162 C   0  0  0  0  0  0
  -29.1411  -21.2520   19.7649 C   0  0  0  0  0  0
  -28.5575  -22.5695   20.3585 C   0  0  0  0  0  0
  -29.1819  -19.8370   20.4162 C   0  0  0  0  0  0
  -31.1918  -21.0439   18.1356 C   0  0  0  0  0  0
  -30.6961  -22.4624   18.0094 C   0  0  0  0  0  0
  -29.7310  -21.3570   18.3825 C   0  0  0  0  0  0
  -28.1894  -24.1844   19.7152 C   0  0  0  0  0  0
  -29.8896  -18.2742   19.9625 C   0  0  0  0  0  0
  -28.6408  -19.8217   21.6525 N   0  0  0  0  0  0
  -29.6657  -16.6482   20.3691 N   0  0  0  0  0  0
  -31.4450  -13.0989   19.1371 H   0  0  0  0  0  0
  -30.5612  -11.9936   20.1414 H   0  0  0  0  0  0
  -29.9243  -11.7099   17.7314 H   0  0  0  0  0  0
  -29.5329  -13.4077   17.6019 H   0  0  0  0  0  0
  -28.0909  -11.2601   19.1742 H   0  0  0  0  0  0
  -27.4110  -12.2435   17.9018 H   0  0  0  0  0  0
  -27.5156  -14.2189   19.2899 H   0  0  0  0  0  0
  -28.8548  -12.6001   21.5125 H   0  0  0  0  0  0
  -28.2791  -14.2445   21.6570 H   0  0  0  0  0  0
  -25.2789   -9.5699   22.4789 H   0  0  0  0  0  0
  -24.0037   -7.4651   22.7478 H   0  0  0  0  0  0
  -21.0889   -8.8816   19.8955 H   0  0  0  0  0  0
  -22.3763  -10.9709   19.6191 H   0  0  0  0  0  0
  -21.2032   -7.6174   23.9740 H   0  0  0  0  0  0
  -21.1431   -6.0539   25.9078 H   0  0  0  0  0  0
  -22.0612   -2.7640   23.2829 H   0  0  0  0  0  0
  -22.4097  -11.9850   22.4796 H   0  0  0  0  0  0
  -21.1067  -13.1204   22.2635 H   0  0  0  0  0  0
  -24.6385  -15.8450   20.5336 H   0  0  0  0  0  0
  -26.2487  -15.6373   20.0641 H   0  0  0  0  0  0
  -26.7351  -32.5116   23.0823 H   0  0  0  0  0  0
  -25.0174  -33.9470   25.0235 H   0  0  0  0  0  0
  -22.8035  -31.2563   21.3394 H   0  0  0  0  0  0
  -23.3766  -35.9445   23.3291 H   0  0  0  0  0  0
  -24.3583  -36.8825   22.2069 H   0  0  0  0  0  0
  -23.7203  -37.6313   23.6697 H   0  0  0  0  0  0
  -26.2418  -31.3452   20.6206 H   0  0  0  0  0  0
  -26.9139  -30.6691   22.0589 H   0  0  0  0  0  0
  -28.1362  -28.5323   21.3090 H   0  0  0  0  0  0
  -25.8645  -25.7292   18.9549 H   0  0  0  0  0  0
  -24.0127  -27.2773   18.9194 H   0  0  0  0  0  0
  -23.8866  -30.5091   19.3822 H   0  0  0  0  0  0
  -22.8385  -29.1940   19.8290 H   0  0  0  0  0  0
  -25.1353  -36.1718   25.0761 H   0  0  0  0  0  0
  -21.0083  -28.3404   24.1299 H   0  0  0  0  0  0
  -20.5778  -26.2392   23.3667 H   0  0  0  0  0  0
  -21.6696  -26.7502   22.1176 H   0  0  0  0  0  0
  -19.6982  -25.6355   21.1287 H   0  0  0  0  0  0
  -19.6772  -27.3234   20.6744 H   0  0  0  0  0  0
  -17.4283  -26.6771   21.4007 H   0  0  0  0  0  0
  -18.0314  -26.0160   22.9047 H   0  0  0  0  0  0
  -19.7985  -30.7378   24.2183 H   0  0  0  0  0  0
  -17.5063  -31.6312   24.5229 H   0  0  0  0  0  0
  -15.5386  -30.3043   23.7728 H   0  0  0  0  0  0
  -15.8732  -28.0900   22.7089 H   0  0  0  0  0  0
  -24.5956  -30.7038   25.7625 H   0  0  0  0  0  0
  -24.8792  -32.2994   26.4487 H   0  0  0  0  0  0
  -25.7948  -30.9175   27.0235 H   0  0  0  0  0  0
  -26.3106  -29.6575   24.1355 H   0  0  0  0  0  0
  -27.3964  -29.7245   25.5024 H   0  0  0  0  0  0
  -27.9088  -30.4073   23.9811 H   0  0  0  0  0  0
  -27.2729  -33.3728   26.1798 H   0  0  0  0  0  0
  -28.4006  -32.6710   25.0279 H   0  0  0  0  0  0
  -28.0638  -31.8566   26.5510 H   0  0  0  0  0  0
  -28.2565  -38.0031   24.7556 H   0  0  0  0  0  0
  -28.1073  -36.2575   24.6274 H   0  0  0  0  0  0
  -27.2297  -37.1364   25.8880 H   0  0  0  0  0  0
  -20.9611  -29.8634   21.6558 H   0  0  0  0  0  0
  -26.0097  -38.2733   24.1513 H   0  0  0  0  0  0
  -27.6256  -23.0529   22.2377 H   0  0  0  0  0  0
  -27.7259  -20.8178   23.2017 H   0  0  0  0  0  0
  -31.8296  -20.8297   18.9918 H   0  0  0  0  0  0
  -31.4836  -20.5577   17.2038 H   0  0  0  0  0  0
  -30.6466  -22.8705   17.0035 H   0  0  0  0  0  0
  -31.0218  -23.1631   18.7753 H   0  0  0  0  0  0
  -29.0192  -21.0431   17.6194 H   0  0  0  0  0  0
  -27.1889  -24.0472   19.3133 H   0  0  0  0  0  0
  -28.8056  -24.2609   18.8206 H   0  0  0  0  0  0
  -30.9563  -18.4309   20.1234 H   0  0  0  0  0  0
  -29.7966  -18.2653   18.8755 H   0  0  0  0  0  0
  -28.6955  -16.4867   20.5916 H   0  0  0  0  0  0
  1 25  1  0  0  0
  1 30  2  0  0  0
  1 82  1  0  0  0
  2  3  1  0  0  0
  2 25  1  0  0  0
  2 83  1  0  0  0
  2 84  1  0  0  0
  3  4  1  0  0  0
  3 85  1  0  0  0
  3 86  1  0  0  0
  4  5  1  0  0  0
  4 87  1  0  0  0
  4 88  1  0  0  0
  5  6  1  0  0  0
  5 26  1  0  0  0
  5 89  1  0  0  0
  6 25  1  0  0  0
  6 90  1  0  0  0
  6 91  1  0  0  0
  7  8  2  0  0  0
  7 26  1  0  0  0
  7 29  1  0  0  0
  8  9  1  0  0  0
  8 22  1  0  0  0
  9 10  1  0  0  0
  9 27  2  0  0  0
 10 11  2  0  0  0
 10 15  1  0  0  0
 11 12  1  0  0  0
 11 92  1  0  0  0
 12 13  2  0  0  0
 12 93  1  0  0  0
 13 14  1  0  0  0
 13 31  1  0  0  0
 14 15  2  0  0  0
 14 94  1  0  0  0
 15 95  1  0  0  0
 16 17  2  0  0  0
 16 21  1  0  0  0
 16 31  1  0  0  0
 17 18  1  0  0  0
 17 96  1  0  0  0
 18 19  2  0  0  0
 18 97  1  0  0  0
 19 20  1  0  0  0
 19 24  1  0  0  0
 20 21  2  0  0  0
 20 98  1  0  0  0
 21 23  1  0  0  0
 22 28  1  0  0  0
 22 32  2  0  0  0
 26 27  1  0  0  0
 28 99  1  0  0  0
 28100  1  0  0  0
 29101  1  0  0  0
 29102  1  0  0  0
 33 34  1  0  0  0
 33 66  1  0  0  0
 33 70  2  0  0  0
 34 36  1  0  0  0
 34 59  1  0  0  0
 34103  1  0  0  0
 35 44  2  0  0  0
 35 45  1  0  0  0
 35 68  1  0  0  0
 36 56  1  0  0  0
 36104  1  0  0  0
 37 39  1  0  0  0
 37 47  1  0  0  0
 37 66  1  0  0  0
 37105  1  0  0  0
 38 43  2  0  0  0
 38 46  1  0  0  0
 38 47  1  0  0  0
 39 64  1  0  0  0
 39 67  2  0  0  0
 40 52  1  0  0  0
 40 53  2  0  0  0
 40 58  1  0  0  0
 41106  1  0  0  0
 41107  1  0  0  0
 41108  1  0  0  0
 41 48  1  0  0  0
 42 43  1  0  0  0
 42 66  1  0  0  0
 42109  1  0  0  0
 42110  1  0  0  0
 43 44  1  0  0  0
 44111  1  0  0  0
 45 46  2  0  0  0
 45112  1  0  0  0
 46113  1  0  0  0
 47114  1  0  0  0
 47115  1  0  0  0
 48 56  1  0  0  0
 48 65  1  0  0  0
 48116  1  0  0  0
 49 50  1  0  0  0
 49 53  1  0  0  0
 49 64  1  0  0  0
 49117  1  0  0  0
 50 51  1  0  0  0
 50118  1  0  0  0
 50119  1  0  0  0
 51 52  1  0  0  0
 51120  1  0  0  0
 51121  1  0  0  0
 52122  1  0  0  0
 52123  1  0  0  0
 53 54  1  0  0  0
 54 55  2  0  0  0
 54124  1  0  0  0
 55 57  1  0  0  0
 55125  1  0  0  0
 56 69  2  0  0  0
 57 58  2  0  0  0
 57126  1  0  0  0
 58127  1  0  0  0
 59 60  1  0  0  0
 59 61  1  0  0  0
 59 62  1  0  0  0
 60128  1  0  0  0
 60129  1  0  0  0
 60130  1  0  0  0
 61131  1  0  0  0
 61132  1  0  0  0
 61133  1  0  0  0
 62134  1  0  0  0
 62135  1  0  0  0
 62136  1  0  0  0
 63 65  1  0  0  0
 63137  1  0  0  0
 63138  1  0  0  0
 63139  1  0  0  0
 64140  1  0  0  0
 65141  1  0  0  0
 68 79  1  0  0  0
 71 72  2  0  0  0
 71 74  1  0  0  0
 71142  1  0  0  0
 72 81  1  0  0  0
 72143  1  0  0  0
 73 74  2  0  0  0
 73 75  1  0  0  0
 73 78  1  0  0  0
 74 79  1  0  0  0
 75 80  1  0  0  0
 75 81  2  0  0  0
 76 77  1  0  0  0
 76 78  1  0  0  0
 76144  1  0  0  0
 76145  1  0  0  0
 77 78  1  0  0  0
 77146  1  0  0  0
 77147  1  0  0  0
 78148  1  0  0  0
 79149  1  0  0  0
 79150  1  0  0  0
 80 82  1  0  0  0
 80151  1  0  0  0
 80152  1  0  0  0
 82153  1  0  0  0
M  ISO  4   1 100  68 101  79 101  82 100
M  END
> <chiral flag>
0

> <version>
0

> <s_m_source_file>
/data/baiqing/PycharmProjects/Reinvent-master-3.2/result/LINK_invent/BTK/process_docking_weight1_custom_sum_contain_oxygen_bond_distance_aromatic_linkinvent_7_9_3/rearranged_h_0126.sdf

> <i_m_source_file_index>
21

> <r_mmod_Potential_Energy-OPLS-2005>
1210.19323730469

> <r_mmod_Stretch_Energy-OPLS-2005>
646.0361328125

> <r_mmod_Bend_Energy-OPLS-2005>
446.863922119141

> <r_mmod_Torsional_Energy-OPLS-2005>
248.716613769531

> <r_mmod_Improper_Torsional_Energy-OPLS-2005>
6.07496166229248

> <r_mmod_Van_der_Waal_Energy-OPLS-2005>
123.243446350098

> <r_mmod_Electrostatic_Energy-OPLS-2005>
-577.84033203125

> <r_mmod_Solvation_Energy-OPLS-2005>
-231.825897216797

> <b_mmod_Minimization_Converged-OPLS-2005>
0

> <r_mmod_RMS_Derivative-OPLS-2005>
4.77917718887329

$$$$
21
                    3D
 Structure written by MMmdl.
176185  0  0  1  0            999 V2000
  -30.6955  -14.6187   20.5404 C   0  0  0  0  0  0
  -30.4119  -12.3866   19.4717 C   0  0  0  0  0  0
  -29.4965  -12.5241   18.2370 C   0  0  0  0  0  0
  -28.0207  -12.3693   18.6477 C   0  0  0  0  0  0
  -27.6531  -13.2337   19.8815 C   0  0  2  0  0  0
  -28.6986  -13.1159   21.0169 C   0  0  0  0  0  0
  -25.2554  -13.8217   20.5713 C   0  0  0  0  0  0
  -24.1829  -13.0433   20.9172 C   0  0  0  0  0  0
  -24.6431  -11.6925   20.8750 C   0  0  0  0  0  0
  -23.9099  -10.4269   21.0404 C   0  0  0  0  0  0
  -24.3642   -9.4188   21.9181 C   0  0  0  0  0  0
  -23.6306   -8.2230   22.0755 C   0  0  0  0  0  0
  -22.4293   -8.0277   21.3534 C   0  0  0  0  0  0
  -21.9927   -9.0250   20.4648 C   0  0  0  0  0  0
  -22.7266  -10.2124   20.3053 C   0  0  0  0  0  0
  -21.6863   -6.0730   22.5267 C   0  0  0  0  0  0
  -21.4015   -6.5640   23.8187 C   0  0  0  0  0  0
  -21.3669   -5.6807   24.9159 C   0  0  0  0  0  0
  -21.6042   -4.3062   24.7221 C   0  0  0  0  0  0
  -21.8825   -3.8144   23.4348 C   0  0  0  0  0  0
  -21.9188   -4.6955   22.3399 C   0  0  0  0  0  0
  -22.7847  -13.5206   21.1841 C   0  0  0  0  0  0
  -22.1665   -4.2140   21.0975 F   0  0  0  0  0  0
  -21.5634   -3.4557   25.7728 F   0  0  0  0  0  0
  -30.0165  -13.4280   20.4492 N   0  0  0  0  0  0
  -26.3005  -12.9426   20.3443 N   0  0  0  0  0  0
  -25.9380  -11.6560   20.5851 N   0  0  0  0  0  0
  -22.0556  -12.8136   22.0424 N   0  0  0  0  0  0
  -25.4230  -15.1925   20.4157 N   0  0  0  0  0  0
  -31.8307  -14.7282   20.0778 O   0  0  0  0  0  0
  -21.6658   -6.8887   21.4227 O   0  0  0  0  0  0
  -22.3494  -14.5505   20.6733 O   0  0  0  0  0  0
  -24.6361  -31.8587   23.2051 C   0  0  0  0  0  0
  -25.9233  -32.4752   23.8338 C   0  0  1  0  0  0
  -27.1817  -27.2901   20.1125 C   0  0  0  0  0  0
  -25.6032  -33.8549   24.2196 N   0  0  0  0  0  0
  -23.4197  -30.4963   21.5531 C   0  0  2  0  0  0
  -24.8515  -28.9681   20.1021 C   0  0  0  0  0  0
  -22.7533  -29.4624   22.4928 C   0  0  0  0  0  0
  -18.0297  -28.1407   22.8483 C   0  0  0  0  0  0
  -24.1484  -36.7288   23.2630 C   0  0  0  0  0  0
  -25.9698  -30.7803   21.3758 C   0  0  0  0  0  0
  -26.0302  -29.4132   20.7111 C   0  0  0  0  0  0
  -27.1983  -28.5898   20.7131 C   0  0  0  0  0  0
  -25.9784  -26.9318   19.4447 C   0  0  0  0  0  0
  -24.8314  -27.7300   19.4597 C   0  0  0  0  0  0
  -23.6256  -29.8545   20.1601 C   0  0  0  0  0  0
  -25.4101  -36.3025   24.0270 C   0  0  1  0  0  0
  -20.5907  -28.3700   23.1290 C   0  0  2  0  0  0
  -20.6767  -26.9428   22.5450 C   0  0  0  0  0  0
  -19.5757  -26.6367   21.5263 C   0  0  0  0  0  0
  -18.1921  -26.7942   22.1631 C   0  0  0  0  0  0
  -19.1562  -28.8874   23.2861 C   0  0  0  0  0  0
  -18.9472  -30.1489   23.8860 C   0  0  0  0  0  0
  -17.6463  -30.6599   24.0586 C   0  0  0  0  0  0
  -25.9089  -34.9431   23.4990 C   0  0  0  0  0  0
  -16.5356  -29.9076   23.6376 C   0  0  0  0  0  0
  -16.7287  -28.6520   23.0349 C   0  0  0  0  0  0
  -26.4542  -31.6607   25.0744 C   0  0  0  0  0  0
  -25.3708  -31.3845   26.1428 C   0  0  0  0  0  0
  -27.0423  -30.3023   24.6248 C   0  0  0  0  0  0
  -27.6038  -32.4390   25.7563 C   0  0  0  0  0  0
  -27.5548  -37.1789   24.8458 C   0  0  0  0  0  0
  -21.4261  -29.3060   22.3738 N   0  0  0  0  0  0
  -26.4257  -37.3740   23.9423 N   0  0  0  0  0  0
  -24.6962  -31.0614   22.0981 N   0  0  0  0  0  0
  -23.4248  -28.8084   23.2976 O   0  0  0  0  0  0
  -28.2192  -26.3341   20.2250 O   0  0  0  0  0  0
  -26.5671  -34.8939   22.4573 O   0  0  0  0  0  0
  -23.5521  -32.1429   23.7354 O   0  0  0  0  0  0
  -29.8563  -23.4152   20.4640 C   0  0  0  0  0  0
  -30.4544  -22.1179   20.5847 C   0  0  0  0  0  0
  -28.3104  -21.1270   20.9991 C   0  0  0  0  0  0
  -28.4576  -23.5959   20.5900 C   0  0  0  0  0  0
  -27.6978  -22.4017   20.8280 C   0  0  0  0  0  0
  -29.7037  -20.9377   20.8612 C   0  0  0  0  0  0
  -20.9934  -21.7796   24.1682 C   0  0  0  0  0  0
  -21.2730  -20.2729   24.3473 C   0  0  0  0  0  0
  -23.5839  -20.5611   23.5381 C   0  0  0  0  0  0
  -23.3423  -22.0697   23.2848 C   0  0  2  0  0  0
  -21.8464  -22.3571   23.0291 C   0  0  2  0  0  0
  -26.1719  -22.4085   20.8370 C   0  0  0  0  0  0
  -27.6812  -24.9519   20.3859 C   0  0  0  0  0  0
  -25.5623  -22.4419   22.2365 C   0  0  0  0  0  0
  -30.5541  -17.1512   20.7906 C   0  0  0  0  0  0
  -29.6351  -18.4106   21.1211 C   0  0  0  0  0  0
  -30.0392  -15.7410   20.9812 N   0  0  0  0  0  0
  -24.1021  -22.5029   22.1172 N   0  0  0  0  0  0
  -22.7076  -20.0162   24.5865 N   0  3  0  0  0  0
  -21.6619  -23.7591   22.9232 O   0  0  0  0  0  0
  -30.3490  -19.6884   20.9713 O   0  0  0  0  0  0
  -31.4587  -12.4624   19.1779 H   0  0  0  0  0  0
  -30.2977  -11.3952   19.9123 H   0  0  0  0  0  0
  -29.7523  -11.7803   17.4826 H   0  0  0  0  0  0
  -29.6448  -13.4975   17.7704 H   0  0  0  0  0  0
  -27.8462  -11.3150   18.8679 H   0  0  0  0  0  0
  -27.3666  -12.6157   17.8113 H   0  0  0  0  0  0
  -27.6696  -14.2686   19.5392 H   0  0  0  0  0  0
  -28.6981  -12.1133   21.4477 H   0  0  0  0  0  0
  -28.4482  -13.7948   21.8344 H   0  0  0  0  0  0
  -25.2801   -9.5655   22.4742 H   0  0  0  0  0  0
  -24.0018   -7.4631   22.7473 H   0  0  0  0  0  0
  -21.0867   -8.8783   19.8956 H   0  0  0  0  0  0
  -22.3742  -10.9672   19.6157 H   0  0  0  0  0  0
  -21.2019   -7.6146   23.9678 H   0  0  0  0  0  0
  -21.1495   -6.0547   25.9057 H   0  0  0  0  0  0
  -22.0596   -2.7605   23.2847 H   0  0  0  0  0  0
  -22.4282  -11.9785   22.4712 H   0  0  0  0  0  0
  -21.1176  -13.1092   22.2752 H   0  0  0  0  0  0
  -24.6435  -15.8387   20.4816 H   0  0  0  0  0  0
  -26.2846  -15.6376   20.1221 H   0  0  0  0  0  0
  -26.7287  -32.5336   23.1070 H   0  0  0  0  0  0
  -25.0254  -33.9713   25.0370 H   0  0  0  0  0  0
  -22.7053  -31.3156   21.4276 H   0  0  0  0  0  0
  -23.3733  -35.9655   23.3290 H   0  0  0  0  0  0
  -24.3566  -36.8944   22.2054 H   0  0  0  0  0  0
  -23.7294  -37.6486   23.6699 H   0  0  0  0  0  0
  -26.1133  -31.5335   20.5991 H   0  0  0  0  0  0
  -26.8516  -30.8156   22.0062 H   0  0  0  0  0  0
  -28.0832  -28.9211   21.2329 H   0  0  0  0  0  0
  -25.8480  -26.0096   18.9063 H   0  0  0  0  0  0
  -23.9307  -27.3847   18.9745 H   0  0  0  0  0  0
  -23.7528  -30.6515   19.4257 H   0  0  0  0  0  0
  -22.7365  -29.3068   19.8416 H   0  0  0  0  0  0
  -25.1283  -36.1819   25.0750 H   0  0  0  0  0  0
  -20.9991  -28.3284   24.1412 H   0  0  0  0  0  0
  -20.5632  -26.2392   23.3695 H   0  0  0  0  0  0
  -21.6623  -26.7408   22.1265 H   0  0  0  0  0  0
  -19.6946  -25.6259   21.1362 H   0  0  0  0  0  0
  -19.6725  -27.3173   20.6792 H   0  0  0  0  0  0
  -17.4219  -26.6786   21.3985 H   0  0  0  0  0  0
  -18.0233  -26.0067   22.8987 H   0  0  0  0  0  0
  -19.7949  -30.7374   24.2136 H   0  0  0  0  0  0
  -17.5002  -31.6277   24.5196 H   0  0  0  0  0  0
  -15.5367  -30.2944   23.7717 H   0  0  0  0  0  0
  -15.8698  -28.0855   22.6997 H   0  0  0  0  0  0
  -24.5863  -30.7198   25.7769 H   0  0  0  0  0  0
  -24.8952  -32.3097   26.4726 H   0  0  0  0  0  0
  -25.7950  -30.9113   27.0298 H   0  0  0  0  0  0
  -26.3057  -29.6756   24.1207 H   0  0  0  0  0  0
  -27.4073  -29.7263   25.4779 H   0  0  0  0  0  0
  -27.8909  -30.4312   23.9520 H   0  0  0  0  0  0
  -27.2572  -33.3713   26.2058 H   0  0  0  0  0  0
  -28.3929  -32.6950   25.0463 H   0  0  0  0  0  0
  -28.0630  -31.8602   26.5599 H   0  0  0  0  0  0
  -28.2512  -38.0124   24.7510 H   0  0  0  0  0  0
  -28.1081  -36.2660   24.6236 H   0  0  0  0  0  0
  -27.2301  -37.1357   25.8867 H   0  0  0  0  0  0
  -20.9419  -29.8891   21.7059 H   0  0  0  0  0  0
  -26.0098  -38.2781   24.1497 H   0  0  0  0  0  0
  -30.4762  -24.2752   20.2549 H   0  0  0  0  0  0
  -31.5247  -22.0261   20.4458 H   0  0  0  0  0  0
  -27.6810  -20.2793   21.2237 H   0  0  0  0  0  0
  -21.2092  -22.3011   25.1021 H   0  0  0  0  0  0
  -19.9322  -21.9315   23.9651 H   0  0  0  0  0  0
  -20.9527  -19.7188   23.4623 H   0  0  0  0  0  0
  -20.7048  -19.8800   25.1908 H   0  0  0  0  0  0
  -24.6061  -20.3757   23.8643 H   0  0  0  0  0  0
  -23.4330  -20.0021   22.6114 H   0  0  0  0  0  0
  -23.6605  -22.6373   24.1629 H   0  0  0  0  0  0
  -21.5224  -21.9055   22.0901 H   0  0  0  0  0  0
  -25.8381  -21.4803   20.3677 H   0  0  0  0  0  0
  -25.7517  -23.1904   20.2054 H   0  0  0  0  0  0
  -26.9428  -25.0038   21.1922 H   0  0  0  0  0  0
  -27.1736  -24.6901   19.4652 H   0  0  0  0  0  0
  -25.9411  -23.2778   22.8288 H   0  0  0  0  0  0
  -25.8949  -21.5385   22.7441 H   0  0  0  0  0  0
  -31.4758  -17.2563   21.3636 H   0  0  0  0  0  0
  -30.8440  -17.2473   19.7420 H   0  0  0  0  0  0
  -29.2617  -18.3296   22.1469 H   0  0  0  0  0  0
  -28.7736  -18.4099   20.4557 H   0  0  0  0  0  0
  -29.1394  -15.6143   21.4214 H   0  0  0  0  0  0
  -23.7959  -23.4412   21.8506 H   0  0  0  0  0  0
  -22.8650  -19.0224   24.6330 H   0  0  0  0  0  0
  -22.9828  -20.4056   25.4728 H   0  0  0  0  0  0
  -22.1538  -24.1786   23.6228 H   0  0  0  0  0  0
  1 25  1  0  0  0
  1 30  2  0  0  0
  1 87  1  0  0  0
  2  3  1  0  0  0
  2 25  1  0  0  0
  2 92  1  0  0  0
  2 93  1  0  0  0
  3  4  1  0  0  0
  3 94  1  0  0  0
  3 95  1  0  0  0
  4  5  1  0  0  0
  4 96  1  0  0  0
  4 97  1  0  0  0
  5  6  1  0  0  0
  5 26  1  0  0  0
  5 98  1  0  0  0
  6 25  1  0  0  0
  6 99  1  0  0  0
  6100  1  0  0  0
  7  8  2  0  0  0
  7 26  1  0  0  0
  7 29  1  0  0  0
  8  9  1  0  0  0
  8 22  1  0  0  0
  9 10  1  0  0  0
  9 27  2  0  0  0
 10 11  2  0  0  0
 10 15  1  0  0  0
 11 12  1  0  0  0
 11101  1  0  0  0
 12 13  2  0  0  0
 12102  1  0  0  0
 13 14  1  0  0  0
 13 31  1  0  0  0
 14 15  2  0  0  0
 14103  1  0  0  0
 15104  1  0  0  0
 16 17  2  0  0  0
 16 21  1  0  0  0
 16 31  1  0  0  0
 17 18  1  0  0  0
 17105  1  0  0  0
 18 19  2  0  0  0
 18106  1  0  0  0
 19 20  1  0  0  0
 19 24  1  0  0  0
 20 21  2  0  0  0
 20107  1  0  0  0
 21 23  1  0  0  0
 22 28  1  0  0  0
 22 32  2  0  0  0
 26 27  1  0  0  0
 28108  1  0  0  0
 28109  1  0  0  0
 29110  1  0  0  0
 29111  1  0  0  0
 33 34  1  0  0  0
 33 66  1  0  0  0
 33 70  2  0  0  0
 34 36  1  0  0  0
 34 59  1  0  0  0
 34112  1  0  0  0
 35 44  2  0  0  0
 35 45  1  0  0  0
 35 68  1  0  0  0
 36 56  1  0  0  0
 36113  1  0  0  0
 37 39  1  0  0  0
 37 47  1  0  0  0
 37 66  1  0  0  0
 37114  1  0  0  0
 38 43  2  0  0  0
 38 46  1  0  0  0
 38 47  1  0  0  0
 39 64  1  0  0  0
 39 67  2  0  0  0
 40 52  1  0  0  0
 40 53  2  0  0  0
 40 58  1  0  0  0
 41115  1  0  0  0
 41116  1  0  0  0
 41117  1  0  0  0
 41 48  1  0  0  0
 42 43  1  0  0  0
 42 66  1  0  0  0
 42118  1  0  0  0
 42119  1  0  0  0
 43 44  1  0  0  0
 44120  1  0  0  0
 45 46  2  0  0  0
 45121  1  0  0  0
 46122  1  0  0  0
 47123  1  0  0  0
 47124  1  0  0  0
 48 56  1  0  0  0
 48 65  1  0  0  0
 48125  1  0  0  0
 49 50  1  0  0  0
 49 53  1  0  0  0
 49 64  1  0  0  0
 49126  1  0  0  0
 50 51  1  0  0  0
 50127  1  0  0  0
 50128  1  0  0  0
 51 52  1  0  0  0
 51129  1  0  0  0
 51130  1  0  0  0
 52131  1  0  0  0
 52132  1  0  0  0
 53 54  1  0  0  0
 54 55  2  0  0  0
 54133  1  0  0  0
 55 57  1  0  0  0
 55134  1  0  0  0
 56 69  2  0  0  0
 57 58  2  0  0  0
 57135  1  0  0  0
 58136  1  0  0  0
 59 60  1  0  0  0
 59 61  1  0  0  0
 59 62  1  0  0  0
 60137  1  0  0  0
 60138  1  0  0  0
 60139  1  0  0  0
 61140  1  0  0  0
 61141  1  0  0  0
 61142  1  0  0  0
 62143  1  0  0  0
 62144  1  0  0  0
 62145  1  0  0  0
 63 65  1  0  0  0
 63146  1  0  0  0
 63147  1  0  0  0
 63148  1  0  0  0
 64149  1  0  0  0
 65150  1  0  0  0
 68 83  1  0  0  0
 71 72  2  0  0  0
 71 74  1  0  0  0
 71151  1  0  0  0
 72 76  1  0  0  0
 72152  1  0  0  0
 73 75  1  0  0  0
 73 76  2  0  0  0
 73153  1  0  0  0
 74 75  2  0  0  0
 74 83  1  0  0  0
 75 82  1  0  0  0
 76 91  1  0  0  0
 77 78  1  0  0  0
 77 81  1  0  0  0
 77154  1  0  0  0
 77155  1  0  0  0
 78 89  1  0  0  0
 78156  1  0  0  0
 78157  1  0  0  0
 79 80  1  0  0  0
 79 89  1  0  0  0
 79158  1  0  0  0
 79159  1  0  0  0
 80 81  1  0  0  0
 80 88  1  0  0  0
 80160  1  0  0  0
 81 90  1  0  0  0
 81161  1  0  0  0
 82 84  1  0  0  0
 82162  1  0  0  0
 82163  1  0  0  0
 83164  1  0  0  0
 83165  1  0  0  0
 84 88  1  0  0  0
 84166  1  0  0  0
 84167  1  0  0  0
 85 86  1  0  0  0
 85 87  1  0  0  0
 85168  1  0  0  0
 85169  1  0  0  0
 86 91  1  0  0  0
 86170  1  0  0  0
 86171  1  0  0  0
 87172  1  0  0  0
 88173  1  0  0  0
 89174  1  0  0  0
 89175  1  0  0  0
 90176  1  0  0  0
M  CHG  1  89   1
M  ISO  4   1 100  68 101  83 101  87 100
M  END
> <chiral flag>
0

> <version>
0

> <s_m_source_file>
/data/baiqing/PycharmProjects/Reinvent-master-3.2/result/LINK_invent/BTK/process_docking_weight1_custom_sum_contain_oxygen_bond_distance_aromatic_linkinvent_7_9_3/rearranged_h_0126.sdf

> <i_m_source_file_index>
22

> <r_mmod_Potential_Energy-OPLS-2005>
-57.3654365539551

> <r_mmod_Stretch_Energy-OPLS-2005>
87.9631423950195

> <r_mmod_Bend_Energy-OPLS-2005>
182.723861694336

> <r_mmod_Torsional_Energy-OPLS-2005>
280.562805175781

> <r_mmod_Improper_Torsional_Energy-OPLS-2005>
4.53990077972412

> <r_mmod_Van_der_Waal_Energy-OPLS-2005>
165.430358886719

> <r_mmod_Electrostatic_Energy-OPLS-2005>
-318.776458740234

> <r_mmod_Solvation_Energy-OPLS-2005>
-524.114074707031

> <b_mmod_Minimization_Converged-OPLS-2005>
0

> <r_mmod_RMS_Derivative-OPLS-2005>
7.26184463500977

$$$$
22
                    3D
 Structure written by MMmdl.
161170  0  0  1  0            999 V2000
  -30.6670  -14.4156   20.4439 C   0  0  0  0  0  0
  -30.4305  -12.2228   19.3345 C   0  0  0  0  0  0
  -29.4846  -12.4575   18.1402 C   0  0  0  0  0  0
  -28.0054  -12.3437   18.5827 C   0  0  0  0  0  0
  -27.6696  -13.1743   19.8541 C   0  0  2  0  0  0
  -28.7371  -12.9272   20.9495 C   0  0  0  0  0  0
  -25.2762  -13.8083   20.5702 C   0  0  0  0  0  0
  -24.1928  -13.0373   20.9167 C   0  0  0  0  0  0
  -24.6468  -11.6847   20.8707 C   0  0  0  0  0  0
  -23.9094  -10.4267   21.0403 C   0  0  0  0  0  0
  -24.3624   -9.4176   21.9179 C   0  0  0  0  0  0
  -23.6285   -8.2208   22.0748 C   0  0  0  0  0  0
  -22.4287   -8.0254   21.3512 C   0  0  0  0  0  0
  -21.9921   -9.0245   20.4620 C   0  0  0  0  0  0
  -22.7265  -10.2132   20.3040 C   0  0  0  0  0  0
  -21.6862   -6.0731   22.5270 C   0  0  0  0  0  0
  -21.4020   -6.5632   23.8201 C   0  0  0  0  0  0
  -21.3646   -5.6782   24.9150 C   0  0  0  0  0  0
  -21.6040   -4.3054   24.7213 C   0  0  0  0  0  0
  -21.8822   -3.8140   23.4340 C   0  0  0  0  0  0
  -21.9198   -4.6953   22.3388 C   0  0  0  0  0  0
  -22.7983  -13.5267   21.1789 C   0  0  0  0  0  0
  -22.1673   -4.2138   21.0965 F   0  0  0  0  0  0
  -21.5621   -3.4524   25.7732 F   0  0  0  0  0  0
  -30.0583  -13.2070   20.3624 N   0  0  0  0  0  0
  -26.3125  -12.9137   20.3280 N   0  0  0  0  0  0
  -25.9378  -11.6364   20.5703 N   0  0  0  0  0  0
  -22.0618  -12.8211   22.0325 N   0  0  0  0  0  0
  -25.4562  -15.1772   20.4217 N   0  0  0  0  0  0
  -31.8418  -14.6488   20.1508 O   0  0  0  0  0  0
  -21.6605   -6.8875   21.4248 O   0  0  0  0  0  0
  -22.3651  -14.5561   20.6655 O   0  0  0  0  0  0
  -24.6100  -31.8571   23.2077 C   0  0  0  0  0  0
  -25.9045  -32.4783   23.8300 C   0  0  1  0  0  0
  -27.2277  -27.3959   20.1434 C   0  0  0  0  0  0
  -25.5813  -33.8518   24.2136 N   0  0  0  0  0  0
  -23.4004  -30.4679   21.5575 C   0  0  2  0  0  0
  -24.8510  -28.9508   20.1139 C   0  0  0  0  0  0
  -22.7566  -29.4271   22.5080 C   0  0  0  0  0  0
  -18.0152  -28.1235   22.8446 C   0  0  0  0  0  0
  -24.1481  -36.7286   23.2659 C   0  0  0  0  0  0
  -25.9289  -30.8226   21.3640 C   0  0  0  0  0  0
  -26.0075  -29.4569   20.7175 C   0  0  0  0  0  0
  -27.1948  -28.6940   20.7281 C   0  0  0  0  0  0
  -26.0529  -26.9190   19.5139 C   0  0  0  0  0  0
  -24.8737  -27.6875   19.5091 C   0  0  0  0  0  0
  -23.6101  -29.8102   20.1668 C   0  0  0  0  0  0
  -25.4142  -36.3056   24.0293 C   0  0  1  0  0  0
  -20.5930  -28.2716   23.1274 C   0  0  2  0  0  0
  -20.6488  -26.8877   22.4555 C   0  0  0  0  0  0
  -19.5239  -26.6659   21.4433 C   0  0  0  0  0  0
  -18.1535  -26.7902   22.1284 C   0  0  0  0  0  0
  -19.1666  -28.8222   23.2993 C   0  0  0  0  0  0
  -19.0026  -30.0848   23.9083 C   0  0  0  0  0  0
  -17.7238  -30.6472   24.0714 C   0  0  0  0  0  0
  -25.9042  -34.9446   23.5061 C   0  0  0  0  0  0
  -16.5864  -29.9462   23.6331 C   0  0  0  0  0  0
  -16.7297  -28.6882   23.0236 C   0  0  0  0  0  0
  -26.4505  -31.6622   25.0631 C   0  0  0  0  0  0
  -25.3748  -31.3746   26.1345 C   0  0  0  0  0  0
  -27.0501  -30.3120   24.6067 C   0  0  0  0  0  0
  -27.6023  -32.4432   25.7357 C   0  0  0  0  0  0
  -27.5583  -37.1802   24.8461 C   0  0  0  0  0  0
  -21.4266  -29.2435   22.4098 N   0  0  0  0  0  0
  -26.4303  -37.3761   23.9396 N   0  0  0  0  0  0
  -24.6681  -31.0740   22.0996 N   0  0  0  0  0  0
  -23.4593  -28.7838   23.2890 O   0  0  0  0  0  0
  -28.3910  -26.6446   20.2625 O   0  0  0  0  0  0
  -26.5691  -34.8880   22.4662 O   0  0  0  0  0  0
  -23.5325  -32.1262   23.7474 O   0  0  0  0  0  0
  -27.3133  -23.2892   20.1482 C   0  0  0  0  0  0
  -29.6904  -23.3592   20.4819 C   0  0  0  0  0  0
  -27.3879  -21.8862   20.2889 C   0  0  0  0  0  0
  -28.5006  -24.0419   20.1552 C   0  0  0  0  0  0
  -28.6508  -21.2645   20.4520 C   0  0  0  0  0  0
  -26.1220  -21.0748   20.0622 C   0  0  0  0  0  0
  -26.6521  -18.8345   20.9876 C   0  0  0  0  0  0
  -28.1777  -18.9332   21.2244 C   0  0  2  0  0  0
  -28.5797  -25.4390   19.4924 C   0  0  0  0  0  0
  -28.6093  -17.4333   21.1263 C   0  0  0  0  0  0
  -30.0069  -16.8565   20.7872 C   0  0  0  0  0  0
  -29.7636  -22.0062   20.6160 N   0  0  0  0  0  0
  -28.8508  -19.8716   20.3193 N   0  0  0  0  0  0
  -29.7779  -15.4000   20.6303 N   0  0  0  0  0  0
  -25.9020  -20.0815   21.1096 N   0  3  0  0  0  0
  -31.4809  -12.2976   19.0213 H   0  0  0  0  0  0
  -30.3058  -11.1942   19.6992 H   0  0  0  0  0  0
  -29.6959  -11.7337   17.3505 H   0  0  0  0  0  0
  -29.6891  -13.4353   17.7048 H   0  0  0  0  0  0
  -27.8082  -11.2880   18.7612 H   0  0  0  0  0  0
  -27.3595  -12.6417   17.7519 H   0  0  0  0  0  0
  -27.7023  -14.2153   19.5548 H   0  0  0  0  0  0
  -28.7116  -11.8853   21.2698 H   0  0  0  0  0  0
  -28.5547  -13.5327   21.8439 H   0  0  0  0  0  0
  -25.2789   -9.5607   22.4713 H   0  0  0  0  0  0
  -23.9983   -7.4590   22.7476 H   0  0  0  0  0  0
  -21.0839   -8.8744   19.8920 H   0  0  0  0  0  0
  -22.3742  -10.9634   19.6098 H   0  0  0  0  0  0
  -21.2021   -7.6127   23.9701 H   0  0  0  0  0  0
  -21.1470   -6.0500   25.9056 H   0  0  0  0  0  0
  -22.0633   -2.7591   23.2825 H   0  0  0  0  0  0
  -22.4321  -11.9915   22.4671 H   0  0  0  0  0  0
  -21.1246  -13.1164   22.2571 H   0  0  0  0  0  0
  -24.6754  -15.8245   20.4830 H   0  0  0  0  0  0
  -26.2900  -15.5908   20.0270 H   0  0  0  0  0  0
  -26.7034  -32.5498   23.1013 H   0  0  0  0  0  0
  -24.9873  -33.9626   25.0184 H   0  0  0  0  0  0
  -22.6785  -31.2734   21.4221 H   0  0  0  0  0  0
  -23.3704  -35.9669   23.3334 H   0  0  0  0  0  0
  -24.3588  -36.8906   22.2080 H   0  0  0  0  0  0
  -23.7270  -37.6475   23.6721 H   0  0  0  0  0  0
  -26.0584  -31.6022   20.6093 H   0  0  0  0  0  0
  -26.7978  -30.8592   22.0035 H   0  0  0  0  0  0
  -28.0752  -29.0987   21.2164 H   0  0  0  0  0  0
  -26.0026  -25.9472   19.0450 H   0  0  0  0  0  0
  -23.9782  -27.2947   19.0524 H   0  0  0  0  0  0
  -23.7192  -30.5735   19.3901 H   0  0  0  0  0  0
  -22.7302  -29.2208   19.8910 H   0  0  0  0  0  0
  -25.1346  -36.1862   25.0794 H   0  0  0  0  0  0
  -21.0014  -28.1175   24.1333 H   0  0  0  0  0  0
  -20.5311  -26.1244   23.2201 H   0  0  0  0  0  0
  -21.6179  -26.6942   22.0006 H   0  0  0  0  0  0
  -19.6201  -25.6879   20.9766 H   0  0  0  0  0  0
  -19.6080  -27.3973   20.6338 H   0  0  0  0  0  0
  -17.3535  -26.6797   21.3943 H   0  0  0  0  0  0
  -18.0124  -25.9852   22.8520 H   0  0  0  0  0  0
  -19.8819  -30.6144   24.2469 H   0  0  0  0  0  0
  -17.6323  -31.6158   24.5348 H   0  0  0  0  0  0
  -15.6089  -30.3865   23.7514 H   0  0  0  0  0  0
  -15.8491  -28.1734   22.6671 H   0  0  0  0  0  0
  -24.5860  -30.7192   25.7643 H   0  0  0  0  0  0
  -24.9038  -32.2928   26.4851 H   0  0  0  0  0  0
  -25.8042  -30.8833   27.0082 H   0  0  0  0  0  0
  -26.3256  -29.6769   24.0972 H   0  0  0  0  0  0
  -27.4208  -29.7435   25.4604 H   0  0  0  0  0  0
  -27.9037  -30.4519   23.9430 H   0  0  0  0  0  0
  -27.2637  -33.3799   26.1797 H   0  0  0  0  0  0
  -28.3885  -32.6891   25.0209 H   0  0  0  0  0  0
  -28.0647  -31.8659   26.5360 H   0  0  0  0  0  0
  -28.2605  -38.0079   24.7529 H   0  0  0  0  0  0
  -28.1048  -36.2622   24.6287 H   0  0  0  0  0  0
  -27.2302  -37.1471   25.8849 H   0  0  0  0  0  0
  -20.9237  -29.8423   21.7753 H   0  0  0  0  0  0
  -26.0140  -38.2830   24.1356 H   0  0  0  0  0  0
  -26.3706  -23.7387   19.8722 H   0  0  0  0  0  0
  -30.6301  -23.9014   20.4404 H   0  0  0  0  0  0
  -26.1840  -20.6026   19.0878 H   0  0  0  0  0  0
  -25.2270  -21.7090   20.0331 H   0  0  0  0  0  0
  -26.2550  -18.1579   21.7536 H   0  0  0  0  0  0
  -26.4027  -18.3841   20.0193 H   0  0  0  0  0  0
  -28.3670  -19.2815   22.2375 H   0  0  0  0  0  0
  -28.0265  -25.4476   18.5546 H   0  0  0  0  0  0
  -29.6053  -25.5385   19.1463 H   0  0  0  0  0  0
  -27.9393  -16.9349   20.4351 H   0  0  0  0  0  0
  -28.3711  -17.0195   22.1133 H   0  0  0  0  0  0
  -30.5411  -17.3517   19.9456 H   0  0  0  0  0  0
  -30.6514  -16.9121   21.6630 H   0  0  0  0  0  0
  -29.7980  -19.5932   20.0992 H   0  0  0  0  0  0
  -28.8447  -15.0361   20.7802 H   0  0  0  0  0  0
  -24.9435  -19.7864   21.0014 H   0  0  0  0  0  0
  -26.0151  -20.5114   22.0045 H   0  0  0  0  0  0
  1 25  1  0  0  0
  1 30  2  0  0  0
  1 84  1  0  0  0
  2  3  1  0  0  0
  2 25  1  0  0  0
  2 86  1  0  0  0
  2 87  1  0  0  0
  3  4  1  0  0  0
  3 88  1  0  0  0
  3 89  1  0  0  0
  4  5  1  0  0  0
  4 90  1  0  0  0
  4 91  1  0  0  0
  5  6  1  0  0  0
  5 26  1  0  0  0
  5 92  1  0  0  0
  6 25  1  0  0  0
  6 93  1  0  0  0
  6 94  1  0  0  0
  7  8  2  0  0  0
  7 26  1  0  0  0
  7 29  1  0  0  0
  8  9  1  0  0  0
  8 22  1  0  0  0
  9 10  1  0  0  0
  9 27  2  0  0  0
 10 11  2  0  0  0
 10 15  1  0  0  0
 11 12  1  0  0  0
 11 95  1  0  0  0
 12 13  2  0  0  0
 12 96  1  0  0  0
 13 14  1  0  0  0
 13 31  1  0  0  0
 14 15  2  0  0  0
 14 97  1  0  0  0
 15 98  1  0  0  0
 16 17  2  0  0  0
 16 21  1  0  0  0
 16 31  1  0  0  0
 17 18  1  0  0  0
 17 99  1  0  0  0
 18 19  2  0  0  0
 18100  1  0  0  0
 19 20  1  0  0  0
 19 24  1  0  0  0
 20 21  2  0  0  0
 20101  1  0  0  0
 21 23  1  0  0  0
 22 28  1  0  0  0
 22 32  2  0  0  0
 26 27  1  0  0  0
 28102  1  0  0  0
 28103  1  0  0  0
 29104  1  0  0  0
 29105  1  0  0  0
 33 34  1  0  0  0
 33 66  1  0  0  0
 33 70  2  0  0  0
 34 36  1  0  0  0
 34 59  1  0  0  0
 34106  1  0  0  0
 35 44  2  0  0  0
 35 45  1  0  0  0
 35 68  1  0  0  0
 36 56  1  0  0  0
 36107  1  0  0  0
 37 39  1  0  0  0
 37 47  1  0  0  0
 37 66  1  0  0  0
 37108  1  0  0  0
 38 43  2  0  0  0
 38 46  1  0  0  0
 38 47  1  0  0  0
 39 64  1  0  0  0
 39 67  2  0  0  0
 40 52  1  0  0  0
 40 53  2  0  0  0
 40 58  1  0  0  0
 41109  1  0  0  0
 41110  1  0  0  0
 41111  1  0  0  0
 41 48  1  0  0  0
 42 43  1  0  0  0
 42 66  1  0  0  0
 42112  1  0  0  0
 42113  1  0  0  0
 43 44  1  0  0  0
 44114  1  0  0  0
 45 46  2  0  0  0
 45115  1  0  0  0
 46116  1  0  0  0
 47117  1  0  0  0
 47118  1  0  0  0
 48 56  1  0  0  0
 48 65  1  0  0  0
 48119  1  0  0  0
 49 50  1  0  0  0
 49 53  1  0  0  0
 49 64  1  0  0  0
 49120  1  0  0  0
 50 51  1  0  0  0
 50121  1  0  0  0
 50122  1  0  0  0
 51 52  1  0  0  0
 51123  1  0  0  0
 51124  1  0  0  0
 52125  1  0  0  0
 52126  1  0  0  0
 53 54  1  0  0  0
 54 55  2  0  0  0
 54127  1  0  0  0
 55 57  1  0  0  0
 55128  1  0  0  0
 56 69  2  0  0  0
 57 58  2  0  0  0
 57129  1  0  0  0
 58130  1  0  0  0
 59 60  1  0  0  0
 59 61  1  0  0  0
 59 62  1  0  0  0
 60131  1  0  0  0
 60132  1  0  0  0
 60133  1  0  0  0
 61134  1  0  0  0
 61135  1  0  0  0
 61136  1  0  0  0
 62137  1  0  0  0
 62138  1  0  0  0
 62139  1  0  0  0
 63 65  1  0  0  0
 63140  1  0  0  0
 63141  1  0  0  0
 63142  1  0  0  0
 64143  1  0  0  0
 65144  1  0  0  0
 68 79  1  0  0  0
 71 73  2  0  0  0
 71 74  1  0  0  0
 71145  1  0  0  0
 72 74  2  0  0  0
 72 82  1  0  0  0
 72146  1  0  0  0
 73 75  1  0  0  0
 73 76  1  0  0  0
 74 79  1  0  0  0
 75 82  2  0  0  0
 75 83  1  0  0  0
 76 85  1  0  0  0
 76147  1  0  0  0
 76148  1  0  0  0
 77 78  1  0  0  0
 77 85  1  0  0  0
 77149  1  0  0  0
 77150  1  0  0  0
 78 80  1  0  0  0
 78 83  1  0  0  0
 78151  1  0  0  0
 79152  1  0  0  0
 79153  1  0  0  0
 80 81  1  0  0  0
 80154  1  0  0  0
 80155  1  0  0  0
 81 84  1  0  0  0
 81156  1  0  0  0
 81157  1  0  0  0
 83158  1  0  0  0
 84159  1  0  0  0
 85160  1  0  0  0
 85161  1  0  0  0
M  CHG  1  85   1
M  ISO  4   1 100  68 101  79 101  84 100
M  END
> <chiral flag>
0

> <version>
0

> <s_m_source_file>
/data/baiqing/PycharmProjects/Reinvent-master-3.2/result/LINK_invent/BTK/process_docking_weight1_custom_sum_contain_oxygen_bond_distance_aromatic_linkinvent_7_9_3/rearranged_h_0126.sdf

> <i_m_source_file_index>
23

> <r_mmod_Potential_Energy-OPLS-2005>
-270.676513671875

> <r_mmod_Stretch_Energy-OPLS-2005>
45.8413963317871

> <r_mmod_Bend_Energy-OPLS-2005>
175.81201171875

> <r_mmod_Torsional_Energy-OPLS-2005>
281.940399169922

> <r_mmod_Improper_Torsional_Energy-OPLS-2005>
14.3715715408325

> <r_mmod_Van_der_Waal_Energy-OPLS-2005>
161.963790893555

> <r_mmod_Electrostatic_Energy-OPLS-2005>
-474.685913085938

> <r_mmod_Solvation_Energy-OPLS-2005>
-508.978332519531

> <b_mmod_Minimization_Converged-OPLS-2005>
0

> <r_mmod_RMS_Derivative-OPLS-2005>
19.8612804412842

$$$$
23
                    3D
 Structure written by MMmdl.
165173  0  0  1  0            999 V2000
  -30.6979  -14.4613   20.5094 C   0  0  0  0  0  0
  -30.4151  -12.2814   19.4297 C   0  0  0  0  0  0
  -29.4921  -12.4755   18.2085 C   0  0  0  0  0  0
  -28.0127  -12.3435   18.6210 C   0  0  0  0  0  0
  -27.6551  -13.2003   19.8660 C   0  0  2  0  0  0
  -28.6984  -13.0160   20.9933 C   0  0  0  0  0  0
  -25.2571  -13.8153   20.5682 C   0  0  0  0  0  0
  -24.1820  -13.0443   20.9203 C   0  0  0  0  0  0
  -24.6357  -11.6905   20.8752 C   0  0  0  0  0  0
  -23.9032  -10.4294   21.0415 C   0  0  0  0  0  0
  -24.3594   -9.4211   21.9188 C   0  0  0  0  0  0
  -23.6280   -8.2241   22.0750 C   0  0  0  0  0  0
  -22.4263   -8.0271   21.3544 C   0  0  0  0  0  0
  -21.9895   -9.0246   20.4650 C   0  0  0  0  0  0
  -22.7213  -10.2131   20.3060 C   0  0  0  0  0  0
  -21.6850   -6.0731   22.5277 C   0  0  0  0  0  0
  -21.4011   -6.5634   23.8212 C   0  0  0  0  0  0
  -21.3665   -5.6788   24.9175 C   0  0  0  0  0  0
  -21.6040   -4.3051   24.7227 C   0  0  0  0  0  0
  -21.8822   -3.8142   23.4349 C   0  0  0  0  0  0
  -21.9190   -4.6959   22.3402 C   0  0  0  0  0  0
  -22.7845  -13.5254   21.1853 C   0  0  0  0  0  0
  -22.1663   -4.2141   21.0982 F   0  0  0  0  0  0
  -21.5634   -3.4535   25.7745 F   0  0  0  0  0  0
  -30.0249  -13.2870   20.4258 N   0  0  0  0  0  0
  -26.2981  -12.9303   20.3335 N   0  0  0  0  0  0
  -25.9272  -11.6475   20.5767 N   0  0  0  0  0  0
  -22.0474  -12.8254   22.0406 N   0  0  0  0  0  0
  -25.4310  -15.1866   20.4055 N   0  0  0  0  0  0
  -31.8778  -14.5914   20.1877 O   0  0  0  0  0  0
  -21.6629   -6.8867   21.4238 O   0  0  0  0  0  0
  -22.3551  -14.5571   20.6703 O   0  0  0  0  0  0
  -24.6131  -31.8715   23.2104 C   0  0  0  0  0  0
  -25.9043  -32.4826   23.8408 C   0  0  1  0  0  0
  -27.2335  -27.4495   20.0914 C   0  0  0  0  0  0
  -25.5929  -33.8627   24.2352 N   0  0  0  0  0  0
  -23.3969  -30.4953   21.5519 C   0  0  2  0  0  0
  -24.8410  -28.9587   20.1176 C   0  0  0  0  0  0
  -22.7375  -29.4702   22.5022 C   0  0  0  0  0  0
  -18.0254  -28.1388   22.8488 C   0  0  0  0  0  0
  -24.1493  -36.7303   23.2622 C   0  0  0  0  0  0
  -25.9238  -30.8384   21.3623 C   0  0  0  0  0  0
  -25.9988  -29.4744   20.7094 C   0  0  0  0  0  0
  -27.1950  -28.7266   20.6927 C   0  0  0  0  0  0
  -26.0534  -26.9405   19.4993 C   0  0  0  0  0  0
  -24.8620  -27.6900   19.5123 C   0  0  0  0  0  0
  -23.6031  -29.8249   20.1671 C   0  0  0  0  0  0
  -25.4107  -36.3113   24.0329 C   0  0  1  0  0  0
  -20.5836  -28.3687   23.1329 C   0  0  2  0  0  0
  -20.6776  -26.9430   22.5414 C   0  0  0  0  0  0
  -19.5752  -26.6400   21.5219 C   0  0  0  0  0  0
  -18.1917  -26.7931   22.1618 C   0  0  0  0  0  0
  -19.1494  -28.8851   23.2904 C   0  0  0  0  0  0
  -18.9432  -30.1461   23.8914 C   0  0  0  0  0  0
  -17.6433  -30.6589   24.0569 C   0  0  0  0  0  0
  -25.9039  -34.9479   23.5128 C   0  0  0  0  0  0
  -16.5326  -29.9092   23.6340 C   0  0  0  0  0  0
  -16.7242  -28.6515   23.0348 C   0  0  0  0  0  0
  -26.4448  -31.6580   25.0735 C   0  0  0  0  0  0
  -25.3688  -31.3701   26.1456 C   0  0  0  0  0  0
  -27.0273  -30.3030   24.6097 C   0  0  0  0  0  0
  -27.6021  -32.4265   25.7542 C   0  0  0  0  0  0
  -27.5580  -37.1804   24.8456 C   0  0  0  0  0  0
  -21.4102  -29.3072   22.3760 N   0  0  0  0  0  0
  -26.4301  -37.3790   23.9396 N   0  0  0  0  0  0
  -24.6622  -31.0830   22.0996 N   0  0  0  0  0  0
  -23.4158  -28.8240   23.3046 O   0  0  0  0  0  0
  -28.4407  -26.7836   20.0964 O   0  0  0  0  0  0
  -26.5581  -34.8910   22.4677 O   0  0  0  0  0  0
  -23.5330  -32.1479   23.7509 O   0  0  0  0  0  0
  -26.3034  -23.5402   22.2965 C   0  0  0  0  0  0
  -26.9078  -20.5524   21.8903 C   0  0  0  0  0  0
  -28.7378  -20.7804   23.3872 C   0  0  0  0  0  0
  -27.6776  -19.4980   21.0657 C   0  0  0  0  0  0
  -29.5642  -19.7416   22.6000 C   0  0  0  0  0  0
  -27.2131  -22.6539   23.1716 C   0  0  0  0  0  0
  -29.2206  -16.3277   21.3389 C   0  0  0  0  0  0
  -28.2631  -24.5379   21.0999 C   0  0  0  0  0  0
  -29.4898  -17.8223   21.0440 C   0  0  0  0  0  0
  -28.5101  -25.3820   19.8333 C   0  0  0  0  0  0
  -27.8601  -21.5145   22.4672 N   0  0  0  0  0  0
  -26.8424  -24.3628   21.3870 N   0  0  0  0  0  0
  -29.9219  -15.5357   20.3290 N   0  0  0  0  0  0
  -28.6983  -18.7751   21.8733 N   0  3  0  0  0  0
  -25.0835  -23.4741   22.4336 O   0  0  0  0  0  0
  -31.4617  -12.3671   19.1321 H   0  0  0  0  0  0
  -30.3014  -11.2801   19.8471 H   0  0  0  0  0  0
  -29.7297  -11.7428   17.4364 H   0  0  0  0  0  0
  -29.6651  -13.4569   17.7633 H   0  0  0  0  0  0
  -27.8231  -11.2902   18.8316 H   0  0  0  0  0  0
  -27.3623  -12.6039   17.7855 H   0  0  0  0  0  0
  -27.6860  -14.2396   19.5414 H   0  0  0  0  0  0
  -28.6656  -11.9993   21.3873 H   0  0  0  0  0  0
  -28.4814  -13.6739   21.8357 H   0  0  0  0  0  0
  -25.2737   -9.5685   22.4774 H   0  0  0  0  0  0
  -23.9989   -7.4623   22.7459 H   0  0  0  0  0  0
  -21.0829   -8.8759   19.8949 H   0  0  0  0  0  0
  -22.3662  -10.9673   19.6178 H   0  0  0  0  0  0
  -21.2003   -7.6141   23.9718 H   0  0  0  0  0  0
  -21.1483   -6.0513   25.9078 H   0  0  0  0  0  0
  -22.0593   -2.7600   23.2849 H   0  0  0  0  0  0
  -22.4078  -11.9915   22.4809 H   0  0  0  0  0  0
  -21.1094  -13.1287   22.2611 H   0  0  0  0  0  0
  -24.6521  -15.8322   20.4692 H   0  0  0  0  0  0
  -26.2580  -15.5979   19.9938 H   0  0  0  0  0  0
  -26.7133  -32.5549   23.1195 H   0  0  0  0  0  0
  -25.0183  -33.9812   25.0568 H   0  0  0  0  0  0
  -22.6854  -31.3126   21.4169 H   0  0  0  0  0  0
  -23.3761  -35.9634   23.3299 H   0  0  0  0  0  0
  -24.3592  -36.8889   22.2036 H   0  0  0  0  0  0
  -23.7241  -37.6513   23.6615 H   0  0  0  0  0  0
  -26.0360  -31.6063   20.5961 H   0  0  0  0  0  0
  -26.8101  -30.8873   21.9830 H   0  0  0  0  0  0
  -28.0907  -29.1263   21.1456 H   0  0  0  0  0  0
  -26.0251  -25.9810   19.0060 H   0  0  0  0  0  0
  -23.9701  -27.2875   19.0527 H   0  0  0  0  0  0
  -23.7072  -30.5979   19.4048 H   0  0  0  0  0  0
  -22.7271  -29.2433   19.8766 H   0  0  0  0  0  0
  -25.1286  -36.1986   25.0823 H   0  0  0  0  0  0
  -20.9904  -28.3252   24.1459 H   0  0  0  0  0  0
  -20.5730  -26.2277   23.3584 H   0  0  0  0  0  0
  -21.6645  -26.7520   22.1176 H   0  0  0  0  0  0
  -19.6923  -25.6312   21.1257 H   0  0  0  0  0  0
  -19.6688  -27.3213   20.6747 H   0  0  0  0  0  0
  -17.4198  -26.6670   21.4014 H   0  0  0  0  0  0
  -18.0316  -26.0072   22.9014 H   0  0  0  0  0  0
  -19.7909  -30.7266   24.2296 H   0  0  0  0  0  0
  -17.4992  -31.6267   24.5182 H   0  0  0  0  0  0
  -15.5328  -30.2990   23.7691 H   0  0  0  0  0  0
  -15.8634  -28.0849   22.7049 H   0  0  0  0  0  0
  -24.5859  -30.7060   25.7779 H   0  0  0  0  0  0
  -24.8861  -32.2858   26.4878 H   0  0  0  0  0  0
  -25.7999  -30.8885   27.0239 H   0  0  0  0  0  0
  -27.3974  -29.7211   25.4547 H   0  0  0  0  0  0
  -27.8710  -30.4390   23.9318 H   0  0  0  0  0  0
  -26.2851  -29.6832   24.1060 H   0  0  0  0  0  0
  -27.2642  -33.3556   26.2145 H   0  0  0  0  0  0
  -28.3846  -32.6798   25.0384 H   0  0  0  0  0  0
  -28.0656  -31.8345   26.5448 H   0  0  0  0  0  0
  -28.2610  -38.0091   24.7506 H   0  0  0  0  0  0
  -28.1064  -36.2626   24.6297 H   0  0  0  0  0  0
  -27.2284  -37.1466   25.8853 H   0  0  0  0  0  0
  -20.9266  -29.8769   21.6958 H   0  0  0  0  0  0
  -26.0198  -38.2870   24.1394 H   0  0  0  0  0  0
  -26.3052  -20.0760   22.6670 H   0  0  0  0  0  0
  -26.2062  -21.0513   21.2197 H   0  0  0  0  0  0
  -29.4276  -21.4719   23.8747 H   0  0  0  0  0  0
  -28.1651  -20.3017   24.1864 H   0  0  0  0  0  0
  -28.1604  -19.9986   20.2238 H   0  0  0  0  0  0
  -26.9749  -18.7813   20.6384 H   0  0  0  0  0  0
  -30.2170  -19.2008   23.2870 H   0  0  0  0  0  0
  -30.2144  -20.2614   21.8939 H   0  0  0  0  0  0
  -26.6255  -22.2811   24.0134 H   0  0  0  0  0  0
  -27.9778  -23.2951   23.6118 H   0  0  0  0  0  0
  -28.1542  -16.1082   21.2818 H   0  0  0  0  0  0
  -29.5561  -16.0649   22.3444 H   0  0  0  0  0  0
  -28.7657  -24.9856   21.9581 H   0  0  0  0  0  0
  -28.7177  -23.5592   20.9436 H   0  0  0  0  0  0
  -29.3065  -18.0207   19.9859 H   0  0  0  0  0  0
  -30.5570  -18.0085   21.1786 H   0  0  0  0  0  0
  -29.5393  -25.2030   19.5191 H   0  0  0  0  0  0
  -27.9099  -25.0570   18.9856 H   0  0  0  0  0  0
  -26.2018  -24.9375   20.8582 H   0  0  0  0  0  0
  -30.3609  -16.1357   19.6464 H   0  0  0  0  0  0
  -28.2040  -18.2432   22.5732 H   0  0  0  0  0  0
  1 25  1  0  0  0
  1 30  2  0  0  0
  1 83  1  0  0  0
  2  3  1  0  0  0
  2 25  1  0  0  0
  2 86  1  0  0  0
  2 87  1  0  0  0
  3  4  1  0  0  0
  3 88  1  0  0  0
  3 89  1  0  0  0
  4  5  1  0  0  0
  4 90  1  0  0  0
  4 91  1  0  0  0
  5  6  1  0  0  0
  5 26  1  0  0  0
  5 92  1  0  0  0
  6 25  1  0  0  0
  6 93  1  0  0  0
  6 94  1  0  0  0
  7  8  2  0  0  0
  7 26  1  0  0  0
  7 29  1  0  0  0
  8  9  1  0  0  0
  8 22  1  0  0  0
  9 10  1  0  0  0
  9 27  2  0  0  0
 10 11  2  0  0  0
 10 15  1  0  0  0
 11 12  1  0  0  0
 11 95  1  0  0  0
 12 13  2  0  0  0
 12 96  1  0  0  0
 13 14  1  0  0  0
 13 31  1  0  0  0
 14 15  2  0  0  0
 14 97  1  0  0  0
 15 98  1  0  0  0
 16 17  2  0  0  0
 16 21  1  0  0  0
 16 31  1  0  0  0
 17 18  1  0  0  0
 17 99  1  0  0  0
 18 19  2  0  0  0
 18100  1  0  0  0
 19 20  1  0  0  0
 19 24  1  0  0  0
 20 21  2  0  0  0
 20101  1  0  0  0
 21 23  1  0  0  0
 22 28  1  0  0  0
 22 32  2  0  0  0
 26 27  1  0  0  0
 28102  1  0  0  0
 28103  1  0  0  0
 29104  1  0  0  0
 29105  1  0  0  0
 33 34  1  0  0  0
 33 66  1  0  0  0
 33 70  2  0  0  0
 34 36  1  0  0  0
 34 59  1  0  0  0
 34106  1  0  0  0
 35 44  2  0  0  0
 35 45  1  0  0  0
 35 68  1  0  0  0
 36 56  1  0  0  0
 36107  1  0  0  0
 37 39  1  0  0  0
 37 47  1  0  0  0
 37 66  1  0  0  0
 37108  1  0  0  0
 38 43  2  0  0  0
 38 46  1  0  0  0
 38 47  1  0  0  0
 39 64  1  0  0  0
 39 67  2  0  0  0
 40 52  1  0  0  0
 40 53  2  0  0  0
 40 58  1  0  0  0
 41109  1  0  0  0
 41110  1  0  0  0
 41111  1  0  0  0
 41 48  1  0  0  0
 42 43  1  0  0  0
 42 66  1  0  0  0
 42112  1  0  0  0
 42113  1  0  0  0
 43 44  1  0  0  0
 44114  1  0  0  0
 45 46  2  0  0  0
 45115  1  0  0  0
 46116  1  0  0  0
 47117  1  0  0  0
 47118  1  0  0  0
 48 56  1  0  0  0
 48 65  1  0  0  0
 48119  1  0  0  0
 49 50  1  0  0  0
 49 53  1  0  0  0
 49 64  1  0  0  0
 49120  1  0  0  0
 50 51  1  0  0  0
 50121  1  0  0  0
 50122  1  0  0  0
 51 52  1  0  0  0
 51123  1  0  0  0
 51124  1  0  0  0
 52125  1  0  0  0
 52126  1  0  0  0
 53 54  1  0  0  0
 54 55  2  0  0  0
 54127  1  0  0  0
 55 57  1  0  0  0
 55128  1  0  0  0
 56 69  2  0  0  0
 57 58  2  0  0  0
 57129  1  0  0  0
 58130  1  0  0  0
 59 60  1  0  0  0
 59 61  1  0  0  0
 59 62  1  0  0  0
 60131  1  0  0  0
 60132  1  0  0  0
 60133  1  0  0  0
 61134  1  0  0  0
 61135  1  0  0  0
 61136  1  0  0  0
 62137  1  0  0  0
 62138  1  0  0  0
 62139  1  0  0  0
 63 65  1  0  0  0
 63140  1  0  0  0
 63141  1  0  0  0
 63142  1  0  0  0
 64143  1  0  0  0
 65144  1  0  0  0
 68 80  1  0  0  0
 71 76  1  0  0  0
 71 82  1  0  0  0
 71 85  2  0  0  0
 72 74  1  0  0  0
 72 81  1  0  0  0
 72145  1  0  0  0
 72146  1  0  0  0
 73 75  1  0  0  0
 73 81  1  0  0  0
 73147  1  0  0  0
 73148  1  0  0  0
 74 84  1  0  0  0
 74149  1  0  0  0
 74150  1  0  0  0
 75 84  1  0  0  0
 75151  1  0  0  0
 75152  1  0  0  0
 76 81  1  0  0  0
 76153  1  0  0  0
 76154  1  0  0  0
 77 79  1  0  0  0
 77 83  1  0  0  0
 77155  1  0  0  0
 77156  1  0  0  0
 78 80  1  0  0  0
 78 82  1  0  0  0
 78157  1  0  0  0
 78158  1  0  0  0
 79159  1  0  0  0
 79160  1  0  0  0
 79 84  1  0  0  0
 80161  1  0  0  0
 80162  1  0  0  0
 82163  1  0  0  0
 83164  1  0  0  0
 84165  1  0  0  0
M  CHG  1  84   1
M  ISO  4   1 100  68 101  80 101  83 100
M  END
> <chiral flag>
0

> <version>
0

> <s_m_source_file>
/data/baiqing/PycharmProjects/Reinvent-master-3.2/result/LINK_invent/BTK/process_docking_weight1_custom_sum_contain_oxygen_bond_distance_aromatic_linkinvent_7_9_3/rearranged_h_0126.sdf

> <i_m_source_file_index>
24

> <r_mmod_Potential_Energy-OPLS-2005>
-172.359741210938

> <r_mmod_Stretch_Energy-OPLS-2005>
34.9786605834961

> <r_mmod_Bend_Energy-OPLS-2005>
121.836608886719

> <r_mmod_Torsional_Energy-OPLS-2005>
276.641235351562

> <r_mmod_Improper_Torsional_Energy-OPLS-2005>
26.155740737915

> <r_mmod_Van_der_Waal_Energy-OPLS-2005>
137.929107666016

> <r_mmod_Electrostatic_Energy-OPLS-2005>
-288.947814941406

> <r_mmod_Solvation_Energy-OPLS-2005>
-498.008758544922

> <b_mmod_Minimization_Converged-OPLS-2005>
0

> <r_mmod_RMS_Derivative-OPLS-2005>
1.82210159301758

$$$$
24
                    3D
 Structure written by MMmdl.
163172  0  0  1  0            999 V2000
  -30.6181  -14.6437   20.4730 C   0  0  0  0  0  0
  -30.4452  -12.3922   19.4364 C   0  0  0  0  0  0
  -29.5139  -12.5254   18.2096 C   0  0  0  0  0  0
  -28.0283  -12.3814   18.6118 C   0  0  0  0  0  0
  -27.6552  -13.2261   19.8601 C   0  0  2  0  0  0
  -28.7062  -13.0474   20.9798 C   0  0  0  0  0  0
  -25.2516  -13.8160   20.5609 C   0  0  0  0  0  0
  -24.1811  -13.0398   20.9210 C   0  0  0  0  0  0
  -24.6413  -11.6909   20.8726 C   0  0  0  0  0  0
  -23.9082  -10.4273   21.0386 C   0  0  0  0  0  0
  -24.3612   -9.4193   21.9177 C   0  0  0  0  0  0
  -23.6285   -8.2227   22.0754 C   0  0  0  0  0  0
  -22.4274   -8.0264   21.3534 C   0  0  0  0  0  0
  -21.9913   -9.0231   20.4628 C   0  0  0  0  0  0
  -22.7252  -10.2119   20.3036 C   0  0  0  0  0  0
  -21.6866   -6.0712   22.5281 C   0  0  0  0  0  0
  -21.4011   -6.5634   23.8204 C   0  0  0  0  0  0
  -21.3661   -5.6797   24.9173 C   0  0  0  0  0  0
  -21.6053   -4.3054   24.7231 C   0  0  0  0  0  0
  -21.8816   -3.8136   23.4351 C   0  0  0  0  0  0
  -21.9187   -4.6939   22.3407 C   0  0  0  0  0  0
  -22.7831  -13.5194   21.1841 C   0  0  0  0  0  0
  -22.1663   -4.2130   21.0983 F   0  0  0  0  0  0
  -21.5628   -3.4541   25.7741 F   0  0  0  0  0  0
  -30.0255  -13.4037   20.4253 N   0  0  0  0  0  0
  -26.2972  -12.9376   20.3239 N   0  0  0  0  0  0
  -25.9342  -11.6521   20.5705 N   0  0  0  0  0  0
  -22.0453  -12.8166   22.0375 N   0  0  0  0  0  0
  -25.4053  -15.1857   20.3861 N   0  0  0  0  0  0
  -31.7643  -14.8331   20.0615 O   0  0  0  0  0  0
  -21.6658   -6.8860   21.4230 O   0  0  0  0  0  0
  -22.3512  -14.5484   20.6693 O   0  0  0  0  0  0
  -24.6258  -31.8599   23.1948 C   0  0  0  0  0  0
  -25.9014  -32.4808   23.8342 C   0  0  1  0  0  0
  -27.2667  -27.3162   20.0350 C   0  0  0  0  0  0
  -25.5868  -33.8606   24.2270 N   0  0  0  0  0  0
  -23.4304  -30.4727   21.5415 C   0  0  2  0  0  0
  -24.8814  -28.9141   20.1227 C   0  0  0  0  0  0
  -22.7509  -29.4636   22.4969 C   0  0  0  0  0  0
  -18.0335  -28.1433   22.8557 C   0  0  0  0  0  0
  -24.1461  -36.7231   23.2651 C   0  0  0  0  0  0
  -25.9751  -30.7765   21.3727 C   0  0  0  0  0  0
  -26.0564  -29.4003   20.7106 C   0  0  0  0  0  0
  -27.2497  -28.6103   20.6624 C   0  0  0  0  0  0
  -26.0446  -26.8838   19.4640 C   0  0  0  0  0  0
  -24.8778  -27.6589   19.4994 C   0  0  0  0  0  0
  -23.6457  -29.7817   20.1706 C   0  0  0  0  0  0
  -25.4103  -36.3097   24.0357 C   0  0  1  0  0  0
  -20.5948  -28.3701   23.1320 C   0  0  2  0  0  0
  -20.6843  -26.9436   22.5384 C   0  0  0  0  0  0
  -19.5783  -26.6442   21.5223 C   0  0  0  0  0  0
  -18.1973  -26.8019   22.1623 C   0  0  0  0  0  0
  -19.1595  -28.8869   23.2961 C   0  0  0  0  0  0
  -18.9512  -30.1512   23.8917 C   0  0  0  0  0  0
  -17.6514  -30.6644   24.0609 C   0  0  0  0  0  0
  -25.9065  -34.9483   23.5097 C   0  0  0  0  0  0
  -16.5389  -29.9151   23.6395 C   0  0  0  0  0  0
  -16.7321  -28.6575   23.0394 C   0  0  0  0  0  0
  -26.4400  -31.6657   25.0721 C   0  0  0  0  0  0
  -25.3630  -31.3874   26.1446 C   0  0  0  0  0  0
  -27.0179  -30.3098   24.6137 C   0  0  0  0  0  0
  -27.5972  -32.4386   25.7466 C   0  0  0  0  0  0
  -27.5593  -37.1759   24.8463 C   0  0  0  0  0  0
  -21.4236  -29.3064   22.3690 N   0  0  0  0  0  0
  -26.4284  -37.3800   23.9453 N   0  0  0  0  0  0
  -24.6973  -31.0551   22.0908 N   0  0  0  0  0  0
  -23.4233  -28.8190   23.3049 O   0  0  0  0  0  0
  -28.4265  -26.5114   19.9806 O   0  0  0  0  0  0
  -26.5623  -34.8947   22.4674 O   0  0  0  0  0  0
  -23.5391  -32.1329   23.7259 O   0  0  0  0  0  0
  -30.7833  -18.0235   20.5151 C   0  0  0  0  0  0
  -28.4238  -17.6512   20.4143 C   0  0  0  0  0  0
  -30.5525  -19.4427   20.4699 C   0  0  0  0  0  0
  -28.1684  -19.0570   20.3703 C   0  0  0  0  0  0
  -29.2344  -20.0145   20.4585 C   0  0  0  0  0  0
  -29.7120  -17.0934   20.5642 C   0  0  0  0  0  0
  -29.7604  -24.6816   18.7000 C   0  0  0  0  0  0
  -30.1210  -23.3056   19.3214 C   0  0  0  0  0  0
  -28.0977  -23.9083   20.2805 C   0  0  0  0  0  0
  -28.4338  -25.1473   19.3637 C   0  0  1  0  0  0
  -31.7826  -20.3403   20.4983 C   0  0  0  0  0  0
  -26.6954  -19.4432   20.3076 C   0  0  0  0  0  0
  -28.9855  -21.5554   20.8141 C   0  0  0  0  0  0
  -29.7957  -15.6618   20.8711 N   0  0  0  0  0  0
  -28.8529  -22.6865   19.7933 N   0  3  2  0  0  0
  -31.4878  -12.5157   19.1397 H   0  0  0  0  0  0
  -30.3763  -11.3901   19.8662 H   0  0  0  0  0  0
  -29.7747  -11.7798   17.4548 H   0  0  0  0  0  0
  -29.6736  -13.4956   17.7393 H   0  0  0  0  0  0
  -27.8359  -11.3251   18.8027 H   0  0  0  0  0  0
  -27.3906  -12.6571   17.7695 H   0  0  0  0  0  0
  -27.6788  -14.2732   19.5512 H   0  0  0  0  0  0
  -28.7072  -12.0106   21.3177 H   0  0  0  0  0  0
  -28.4544  -13.6461   21.8561 H   0  0  0  0  0  0
  -25.2760   -9.5692   22.4750 H   0  0  0  0  0  0
  -24.0011   -7.4623   22.7472 H   0  0  0  0  0  0
  -21.0856   -8.8723   19.8914 H   0  0  0  0  0  0
  -22.3700  -10.9627   19.6126 H   0  0  0  0  0  0
  -21.2012   -7.6146   23.9694 H   0  0  0  0  0  0
  -21.1494   -6.0536   25.9077 H   0  0  0  0  0  0
  -22.0588   -2.7595   23.2858 H   0  0  0  0  0  0
  -22.4094  -11.9880   22.4808 H   0  0  0  0  0  0
  -21.1015  -13.1085   22.2477 H   0  0  0  0  0  0
  -24.5795  -15.7761   20.4054 H   0  0  0  0  0  0
  -26.1516  -15.5701   19.8221 H   0  0  0  0  0  0
  -26.7083  -32.5479   23.1095 H   0  0  0  0  0  0
  -25.0046  -33.9736   25.0460 H   0  0  0  0  0  0
  -22.7340  -31.2981   21.3839 H   0  0  0  0  0  0
  -23.3789  -35.9488   23.3270 H   0  0  0  0  0  0
  -24.3600  -36.8865   22.2072 H   0  0  0  0  0  0
  -23.7061  -37.6373   23.6669 H   0  0  0  0  0  0
  -26.1096  -31.5330   20.5988 H   0  0  0  0  0  0
  -26.8550  -30.8329   22.0019 H   0  0  0  0  0  0
  -28.1633  -28.9793   21.1101 H   0  0  0  0  0  0
  -25.9435  -25.9286   18.9763 H   0  0  0  0  0  0
  -23.9728  -27.2758   19.0459 H   0  0  0  0  0  0
  -23.7501  -30.5290   19.3874 H   0  0  0  0  0  0
  -22.7747  -29.1871   19.8904 H   0  0  0  0  0  0
  -25.1289  -36.1939   25.0855 H   0  0  0  0  0  0
  -21.0103  -28.3187   24.1419 H   0  0  0  0  0  0
  -20.5851  -26.2249   23.3542 H   0  0  0  0  0  0
  -21.6697  -26.7571   22.1070 H   0  0  0  0  0  0
  -19.6935  -25.6385   21.1165 H   0  0  0  0  0  0
  -19.6692  -27.3350   20.6841 H   0  0  0  0  0  0
  -17.4272  -26.6864   21.3966 H   0  0  0  0  0  0
  -18.0319  -26.0169   22.9005 H   0  0  0  0  0  0
  -19.7965  -30.7398   24.2199 H   0  0  0  0  0  0
  -17.5060  -31.6304   24.5251 H   0  0  0  0  0  0
  -15.5396  -30.3052   23.7742 H   0  0  0  0  0  0
  -15.8741  -28.0915   22.7056 H   0  0  0  0  0  0
  -24.5827  -30.7183   25.7837 H   0  0  0  0  0  0
  -24.8772  -32.3057   26.4781 H   0  0  0  0  0  0
  -25.7929  -30.9171   27.0295 H   0  0  0  0  0  0
  -26.2740  -29.6960   24.1050 H   0  0  0  0  0  0
  -27.3768  -29.7269   25.4621 H   0  0  0  0  0  0
  -27.8668  -30.4436   23.9423 H   0  0  0  0  0  0
  -27.2631  -33.3759   26.1944 H   0  0  0  0  0  0
  -28.3797  -32.6806   25.0267 H   0  0  0  0  0  0
  -28.0575  -31.8559   26.5443 H   0  0  0  0  0  0
  -28.2547  -38.0143   24.7708 H   0  0  0  0  0  0
  -28.1155  -36.2674   24.6056 H   0  0  0  0  0  0
  -27.2366  -37.1153   25.8885 H   0  0  0  0  0  0
  -20.9435  -29.8629   21.6750 H   0  0  0  0  0  0
  -26.0145  -38.2858   24.1572 H   0  0  0  0  0  0
  -31.7990  -17.6542   20.5622 H   0  0  0  0  0  0
  -27.5859  -16.9724   20.3716 H   0  0  0  0  0  0
  -29.6097  -24.5453   17.6219 H   0  0  0  0  0  0
  -30.5834  -25.3924   18.7899 H   0  0  0  0  0  0
  -30.7819  -23.4965   20.1715 H   0  0  0  0  0  0
  -30.6737  -22.6642   18.6373 H   0  0  0  0  0  0
  -27.0255  -23.7231   20.3298 H   0  0  0  0  0  0
  -28.4492  -24.1272   21.2925 H   0  0  0  0  0  0
  -27.7600  -25.1533   18.5095 H   0  0  0  0  0  0
  -32.6468  -19.8114   20.8973 H   0  0  0  0  0  0
  -31.6629  -21.2164   21.1291 H   0  0  0  0  0  0
  -32.0212  -20.6821   19.4910 H   0  0  0  0  0  0
  -26.0858  -18.6033   20.6513 H   0  0  0  0  0  0
  -26.3845  -19.6566   19.2840 H   0  0  0  0  0  0
  -26.4261  -20.2835   20.9429 H   0  0  0  0  0  0
  -29.7513  -21.8527   21.5276 H   0  0  0  0  0  0
  -28.0981  -21.5910   21.4427 H   0  0  0  0  0  0
  -28.9554  -15.2926   21.2866 H   0  0  0  0  0  0
  -28.3521  -22.3186   18.9920 H   0  0  0  0  0  0
  1 25  1  0  0  0
  1 30  2  0  0  0
  1 84  1  0  0  0
  2  3  1  0  0  0
  2 25  1  0  0  0
  2 86  1  0  0  0
  2 87  1  0  0  0
  3  4  1  0  0  0
  3 88  1  0  0  0
  3 89  1  0  0  0
  4  5  1  0  0  0
  4 90  1  0  0  0
  4 91  1  0  0  0
  5  6  1  0  0  0
  5 26  1  0  0  0
  5 92  1  0  0  0
  6 25  1  0  0  0
  6 93  1  0  0  0
  6 94  1  0  0  0
  7  8  2  0  0  0
  7 26  1  0  0  0
  7 29  1  0  0  0
  8  9  1  0  0  0
  8 22  1  0  0  0
  9 10  1  0  0  0
  9 27  2  0  0  0
 10 11  2  0  0  0
 10 15  1  0  0  0
 11 12  1  0  0  0
 11 95  1  0  0  0
 12 13  2  0  0  0
 12 96  1  0  0  0
 13 14  1  0  0  0
 13 31  1  0  0  0
 14 15  2  0  0  0
 14 97  1  0  0  0
 15 98  1  0  0  0
 16 17  2  0  0  0
 16 21  1  0  0  0
 16 31  1  0  0  0
 17 18  1  0  0  0
 17 99  1  0  0  0
 18 19  2  0  0  0
 18100  1  0  0  0
 19 20  1  0  0  0
 19 24  1  0  0  0
 20 21  2  0  0  0
 20101  1  0  0  0
 21 23  1  0  0  0
 22 28  1  0  0  0
 22 32  2  0  0  0
 26 27  1  0  0  0
 28102  1  0  0  0
 28103  1  0  0  0
 29104  1  0  0  0
 29105  1  0  0  0
 33 34  1  0  0  0
 33 66  1  0  0  0
 33 70  2  0  0  0
 34 36  1  0  0  0
 34 59  1  0  0  0
 34106  1  0  0  0
 35 44  2  0  0  0
 35 45  1  0  0  0
 35 68  1  0  0  0
 36 56  1  0  0  0
 36107  1  0  0  0
 37 39  1  0  0  0
 37 47  1  0  0  0
 37 66  1  0  0  0
 37108  1  0  0  0
 38 43  2  0  0  0
 38 46  1  0  0  0
 38 47  1  0  0  0
 39 64  1  0  0  0
 39 67  2  0  0  0
 40 52  1  0  0  0
 40 53  2  0  0  0
 40 58  1  0  0  0
 41109  1  0  0  0
 41110  1  0  0  0
 41111  1  0  0  0
 41 48  1  0  0  0
 42 43  1  0  0  0
 42 66  1  0  0  0
 42112  1  0  0  0
 42113  1  0  0  0
 43 44  1  0  0  0
 44114  1  0  0  0
 45 46  2  0  0  0
 45115  1  0  0  0
 46116  1  0  0  0
 47117  1  0  0  0
 47118  1  0  0  0
 48 56  1  0  0  0
 48 65  1  0  0  0
 48119  1  0  0  0
 49 50  1  0  0  0
 49 53  1  0  0  0
 49 64  1  0  0  0
 49120  1  0  0  0
 50 51  1  0  0  0
 50121  1  0  0  0
 50122  1  0  0  0
 51 52  1  0  0  0
 51123  1  0  0  0
 51124  1  0  0  0
 52125  1  0  0  0
 52126  1  0  0  0
 53 54  1  0  0  0
 54 55  2  0  0  0
 54127  1  0  0  0
 55 57  1  0  0  0
 55128  1  0  0  0
 56 69  2  0  0  0
 57 58  2  0  0  0
 57129  1  0  0  0
 58130  1  0  0  0
 59 60  1  0  0  0
 59 61  1  0  0  0
 59 62  1  0  0  0
 60131  1  0  0  0
 60132  1  0  0  0
 60133  1  0  0  0
 61134  1  0  0  0
 61135  1  0  0  0
 61136  1  0  0  0
 62137  1  0  0  0
 62138  1  0  0  0
 62139  1  0  0  0
 63 65  1  0  0  0
 63140  1  0  0  0
 63141  1  0  0  0
 63142  1  0  0  0
 64143  1  0  0  0
 65144  1  0  0  0
 68 80  1  0  0  0
 71 73  2  0  0  0
 71 76  1  0  0  0
 71145  1  0  0  0
 72 74  1  0  0  0
 72 76  2  0  0  0
 72146  1  0  0  0
 73 75  1  0  0  0
 73 81  1  0  0  0
 74 75  2  0  0  0
 74 82  1  0  0  0
 75 83  1  0  0  0
 76 84  1  0  0  0
 77 78  1  0  0  0
 77 80  1  0  0  0
 77147  1  0  0  0
 77148  1  0  0  0
 78 85  1  0  0  0
 78149  1  0  0  0
 78150  1  0  0  0
 79 80  1  0  0  0
 79 85  1  0  0  0
 79151  1  0  0  0
 79152  1  0  0  0
 80153  1  0  0  0
 81154  1  0  0  0
 81155  1  0  0  0
 81156  1  0  0  0
 82157  1  0  0  0
 82158  1  0  0  0
 82159  1  0  0  0
 83160  1  0  0  0
 83161  1  0  0  0
 83 85  1  0  0  0
 84162  1  0  0  0
 85163  1  0  0  0
M  CHG  1  85   1
M  ISO  4   1 100  68 101  80 101  84 100
M  END
> <chiral flag>
0

> <version>
0

> <s_m_source_file>
/data/baiqing/PycharmProjects/Reinvent-master-3.2/result/LINK_invent/BTK/process_docking_weight1_custom_sum_contain_oxygen_bond_distance_aromatic_linkinvent_7_9_3/rearranged_h_0126.sdf

> <i_m_source_file_index>
25

> <r_mmod_Potential_Energy-OPLS-2005>
80.5210800170898

> <r_mmod_Stretch_Energy-OPLS-2005>
95.9432907104492

> <r_mmod_Bend_Energy-OPLS-2005>
198.389892578125

> <r_mmod_Torsional_Energy-OPLS-2005>
287.922058105469

> <r_mmod_Improper_Torsional_Energy-OPLS-2005>
8.53796195983887

> <r_mmod_Van_der_Waal_Energy-OPLS-2005>
141.694183349609

> <r_mmod_Electrostatic_Energy-OPLS-2005>
-269.474487304688

> <r_mmod_Solvation_Energy-OPLS-2005>
-431.277709960938

> <b_mmod_Minimization_Converged-OPLS-2005>
0

> <r_mmod_RMS_Derivative-OPLS-2005>
8.35106468200684

$$$$
25
                    3D
 Structure written by MMmdl.
166174  0  0  1  0            999 V2000
  -30.7602  -14.3015   20.7589 C   0  0  0  0  0  0
  -30.4338  -12.2890   19.3593 C   0  0  0  0  0  0
  -29.4797  -12.5324   18.1743 C   0  0  0  0  0  0
  -28.0052  -12.3837   18.5973 C   0  0  0  0  0  0
  -27.6738  -13.1865   19.8803 C   0  0  2  0  0  0
  -28.7083  -12.8667   20.9796 C   0  0  0  0  0  0
  -25.2663  -13.8121   20.5656 C   0  0  0  0  0  0
  -24.1882  -13.0437   20.9170 C   0  0  0  0  0  0
  -24.6397  -11.6896   20.8725 C   0  0  0  0  0  0
  -23.9048  -10.4290   21.0402 C   0  0  0  0  0  0
  -24.3603   -9.4208   21.9178 C   0  0  0  0  0  0
  -23.6286   -8.2240   22.0747 C   0  0  0  0  0  0
  -22.4264   -8.0276   21.3543 C   0  0  0  0  0  0
  -21.9899   -9.0247   20.4640 C   0  0  0  0  0  0
  -22.7221  -10.2134   20.3055 C   0  0  0  0  0  0
  -21.6858   -6.0734   22.5277 C   0  0  0  0  0  0
  -21.4013   -6.5638   23.8211 C   0  0  0  0  0  0
  -21.3664   -5.6788   24.9173 C   0  0  0  0  0  0
  -21.6052   -4.3054   24.7222 C   0  0  0  0  0  0
  -21.8825   -3.8145   23.4342 C   0  0  0  0  0  0
  -21.9193   -4.6961   22.3399 C   0  0  0  0  0  0
  -22.7912  -13.5263   21.1830 C   0  0  0  0  0  0
  -22.1667   -4.2148   21.0979 F   0  0  0  0  0  0
  -21.5623   -3.4539   25.7735 F   0  0  0  0  0  0
  -30.0623  -13.1760   20.4671 N   0  0  0  0  0  0
  -26.3080  -12.9251   20.3350 N   0  0  0  0  0  0
  -25.9311  -11.6437   20.5724 N   0  0  0  0  0  0
  -22.0540  -12.8252   22.0378 N   0  0  0  0  0  0
  -25.4438  -15.1825   20.4052 N   0  0  0  0  0  0
  -31.6877  -14.7481   20.0765 O   0  0  0  0  0  0
  -21.6637   -6.8871   21.4237 O   0  0  0  0  0  0
  -22.3614  -14.5589   20.6700 O   0  0  0  0  0  0
  -24.6124  -31.8711   23.2123 C   0  0  0  0  0  0
  -25.9029  -32.4839   23.8418 C   0  0  1  0  0  0
  -27.2396  -27.4746   20.0722 C   0  0  0  0  0  0
  -25.5891  -33.8635   24.2354 N   0  0  0  0  0  0
  -23.3975  -30.4955   21.5539 C   0  0  2  0  0  0
  -24.8386  -28.9621   20.1210 C   0  0  0  0  0  0
  -22.7392  -29.4680   22.5019 C   0  0  0  0  0  0
  -18.0266  -28.1366   22.8492 C   0  0  0  0  0  0
  -24.1483  -36.7335   23.2638 C   0  0  0  0  0  0
  -25.9235  -30.8456   21.3592 C   0  0  0  0  0  0
  -25.9981  -29.4834   20.7069 C   0  0  0  0  0  0
  -27.1993  -28.7472   20.6776 C   0  0  0  0  0  0
  -26.0528  -26.9468   19.5086 C   0  0  0  0  0  0
  -24.8586  -27.6898   19.5255 C   0  0  0  0  0  0
  -23.6014  -29.8268   20.1693 C   0  0  0  0  0  0
  -25.4100  -36.3130   24.0345 C   0  0  1  0  0  0
  -20.5854  -28.3656   23.1330 C   0  0  2  0  0  0
  -20.6762  -26.9398   22.5415 C   0  0  0  0  0  0
  -19.5739  -26.6382   21.5210 C   0  0  0  0  0  0
  -18.1919  -26.7912   22.1623 C   0  0  0  0  0  0
  -19.1514  -28.8825   23.2910 C   0  0  0  0  0  0
  -18.9440  -30.1428   23.8924 C   0  0  0  0  0  0
  -17.6443  -30.6575   24.0562 C   0  0  0  0  0  0
  -25.9026  -34.9485   23.5150 C   0  0  0  0  0  0
  -16.5337  -29.9080   23.6316 C   0  0  0  0  0  0
  -16.7255  -28.6493   23.0342 C   0  0  0  0  0  0
  -26.4454  -31.6612   25.0741 C   0  0  0  0  0  0
  -25.3736  -31.3707   26.1504 C   0  0  0  0  0  0
  -27.0282  -30.3062   24.6095 C   0  0  0  0  0  0
  -27.6035  -32.4329   25.7495 C   0  0  0  0  0  0
  -27.5583  -37.1823   24.8464 C   0  0  0  0  0  0
  -21.4121  -29.3054   22.3764 N   0  0  0  0  0  0
  -26.4296  -37.3805   23.9406 N   0  0  0  0  0  0
  -24.6629  -31.0849   22.1003 N   0  0  0  0  0  0
  -23.4181  -28.8206   23.3032 O   0  0  0  0  0  0
  -28.4538  -26.8250   20.0376 O   0  0  0  0  0  0
  -26.5588  -34.8931   22.4712 O   0  0  0  0  0  0
  -23.5328  -32.1439   23.7548 O   0  0  0  0  0  0
  -26.4134  -21.4449   21.6409 C   0  0  0  0  0  0
  -26.2790  -23.2400   23.1778 C   0  0  0  0  0  0
  -27.1242  -22.7368   22.0068 C   0  0  2  0  0  0
  -26.0940  -20.8433   23.0213 C   0  0  1  0  0  0
  -27.2722  -19.9993   23.5807 C   0  0  0  0  0  0
  -30.4354  -16.2352   22.3450 C   0  0  0  0  0  0
  -27.4917  -18.6662   22.8310 C   0  0  0  0  0  0
  -28.9820  -16.7510   22.4273 C   0  0  0  0  0  0
  -28.4818  -25.4129   19.8714 C   0  0  0  0  0  0
  -28.0594  -24.7296   21.1795 C   0  0  0  0  0  0
  -30.3778  -14.8435   21.9190 N   0  0  0  0  0  0
  -25.8153  -22.0206   23.8801 N   0  3  0  0  0  0
  -28.8459  -18.0937   23.0267 N   0  3  0  0  0  0
  -27.2148  -23.6217   20.9003 O   0  0  0  0  0  0
  -31.4677  -12.4397   19.0430 H   0  0  0  0  0  0
  -30.3727  -11.2509   19.6898 H   0  0  0  0  0  0
  -29.7048  -11.8342   17.3660 H   0  0  0  0  0  0
  -29.6440  -13.5316   17.7679 H   0  0  0  0  0  0
  -27.8100  -11.3234   18.7638 H   0  0  0  0  0  0
  -27.3465  -12.6871   17.7815 H   0  0  0  0  0  0
  -27.7510  -14.2477   19.6407 H   0  0  0  0  0  0
  -28.4352  -13.3848   21.8985 H   0  0  0  0  0  0
  -28.6619  -11.8062   21.2346 H   0  0  0  0  0  0
  -25.2757   -9.5683   22.4745 H   0  0  0  0  0  0
  -24.0009   -7.4630   22.7462 H   0  0  0  0  0  0
  -21.0838   -8.8760   19.8941 H   0  0  0  0  0  0
  -22.3679  -10.9670   19.6163 H   0  0  0  0  0  0
  -21.2004   -7.6144   23.9713 H   0  0  0  0  0  0
  -21.1485   -6.0518   25.9077 H   0  0  0  0  0  0
  -22.0601   -2.7606   23.2840 H   0  0  0  0  0  0
  -22.4161  -11.9914   22.4766 H   0  0  0  0  0  0
  -21.1155  -13.1261   22.2573 H   0  0  0  0  0  0
  -24.6641  -15.8280   20.4635 H   0  0  0  0  0  0
  -26.2695  -15.5928   19.9883 H   0  0  0  0  0  0
  -26.7109  -32.5556   23.1194 H   0  0  0  0  0  0
  -25.0048  -33.9795   25.0506 H   0  0  0  0  0  0
  -22.6854  -31.3119   21.4176 H   0  0  0  0  0  0
  -23.3735  -35.9681   23.3313 H   0  0  0  0  0  0
  -24.3580  -36.8935   22.2051 H   0  0  0  0  0  0
  -23.7245  -37.6551   23.6637 H   0  0  0  0  0  0
  -26.0367  -31.6092   20.5886 H   0  0  0  0  0  0
  -26.8129  -30.8966   21.9759 H   0  0  0  0  0  0
  -28.1000  -29.1565   21.1145 H   0  0  0  0  0  0
  -26.0219  -25.9765   19.0374 H   0  0  0  0  0  0
  -23.9649  -27.2767   19.0780 H   0  0  0  0  0  0
  -23.7082  -30.6013   19.4087 H   0  0  0  0  0  0
  -22.7256  -29.2446   19.8761 H   0  0  0  0  0  0
  -25.1272  -36.2010   25.0840 H   0  0  0  0  0  0
  -20.9940  -28.3213   24.1449 H   0  0  0  0  0  0
  -20.5668  -26.2263   23.3597 H   0  0  0  0  0  0
  -21.6635  -26.7448   22.1204 H   0  0  0  0  0  0
  -19.6904  -25.6300   21.1219 H   0  0  0  0  0  0
  -19.6674  -27.3210   20.6755 H   0  0  0  0  0  0
  -17.4188  -26.6653   21.4026 H   0  0  0  0  0  0
  -18.0319  -26.0055   22.9020 H   0  0  0  0  0  0
  -19.7916  -30.7226   24.2320 H   0  0  0  0  0  0
  -17.4998  -31.6256   24.5157 H   0  0  0  0  0  0
  -15.5336  -30.2986   23.7620 H   0  0  0  0  0  0
  -15.8651  -28.0814   22.7049 H   0  0  0  0  0  0
  -24.5888  -30.7075   25.7850 H   0  0  0  0  0  0
  -24.8946  -32.2861   26.4995 H   0  0  0  0  0  0
  -25.8100  -30.8849   27.0243 H   0  0  0  0  0  0
  -26.2822  -29.6833   24.1140 H   0  0  0  0  0  0
  -27.4060  -29.7281   25.4538 H   0  0  0  0  0  0
  -27.8655  -30.4396   23.9240 H   0  0  0  0  0  0
  -27.2655  -33.3604   26.2128 H   0  0  0  0  0  0
  -28.3810  -32.6935   25.0301 H   0  0  0  0  0  0
  -28.0749  -31.8426   26.5364 H   0  0  0  0  0  0
  -28.2612  -38.0109   24.7504 H   0  0  0  0  0  0
  -28.1068  -36.2644   24.6298 H   0  0  0  0  0  0
  -27.2303  -37.1491   25.8868 H   0  0  0  0  0  0
  -20.9273  -29.8818   21.7028 H   0  0  0  0  0  0
  -26.0196  -38.2897   24.1382 H   0  0  0  0  0  0
  -27.0148  -20.8145   20.9903 H   0  0  0  0  0  0
  -25.4873  -21.6649   21.1086 H   0  0  0  0  0  0
  -25.4054  -23.7779   22.8056 H   0  0  0  0  0  0
  -26.8333  -23.9088   23.8367 H   0  0  0  0  0  0
  -28.1274  -22.4881   22.3573 H   0  0  0  0  0  0
  -25.1960  -20.2248   22.9715 H   0  0  0  0  0  0
  -28.1895  -20.5881   23.5669 H   0  0  0  0  0  0
  -27.0891  -19.7680   24.6311 H   0  0  0  0  0  0
  -30.9197  -16.2861   23.3211 H   0  0  0  0  0  0
  -31.0302  -16.8378   21.6556 H   0  0  0  0  0  0
  -27.3422  -18.7906   21.7588 H   0  0  0  0  0  0
  -26.7322  -17.9527   23.1541 H   0  0  0  0  0  0
  -28.5564  -16.7608   21.4221 H   0  0  0  0  0  0
  -28.3709  -16.0618   23.0122 H   0  0  0  0  0  0
  -27.8977  -25.0771   19.0154 H   0  0  0  0  0  0
  -29.5044  -25.1227   19.6325 H   0  0  0  0  0  0
  -28.9592  -24.4406   21.7252 H   0  0  0  0  0  0
  -27.5159  -25.4181   21.8285 H   0  0  0  0  0  0
  -29.7455  -14.2579   22.4454 H   0  0  0  0  0  0
  -24.8227  -22.0978   24.0465 H   0  0  0  0  0  0
  -26.2683  -21.9205   24.7753 H   0  0  0  0  0  0
  -29.5287  -18.7060   22.6098 H   0  0  0  0  0  0
  -29.0526  -18.0262   24.0115 H   0  0  0  0  0  0
  1 25  1  0  0  0
  1 30  2  0  0  0
  1 81  1  0  0  0
  2  3  1  0  0  0
  2 25  1  0  0  0
  2 85  1  0  0  0
  2 86  1  0  0  0
  3  4  1  0  0  0
  3 87  1  0  0  0
  3 88  1  0  0  0
  4  5  1  0  0  0
  4 89  1  0  0  0
  4 90  1  0  0  0
  5  6  1  0  0  0
  5 26  1  0  0  0
  5 91  1  0  0  0
  6 25  1  0  0  0
  6 92  1  0  0  0
  6 93  1  0  0  0
  7  8  2  0  0  0
  7 26  1  0  0  0
  7 29  1  0  0  0
  8  9  1  0  0  0
  8 22  1  0  0  0
  9 10  1  0  0  0
  9 27  2  0  0  0
 10 11  2  0  0  0
 10 15  1  0  0  0
 11 12  1  0  0  0
 11 94  1  0  0  0
 12 13  2  0  0  0
 12 95  1  0  0  0
 13 14  1  0  0  0
 13 31  1  0  0  0
 14 15  2  0  0  0
 14 96  1  0  0  0
 15 97  1  0  0  0
 16 17  2  0  0  0
 16 21  1  0  0  0
 16 31  1  0  0  0
 17 18  1  0  0  0
 17 98  1  0  0  0
 18 19  2  0  0  0
 18 99  1  0  0  0
 19 20  1  0  0  0
 19 24  1  0  0  0
 20 21  2  0  0  0
 20100  1  0  0  0
 21 23  1  0  0  0
 22 28  1  0  0  0
 22 32  2  0  0  0
 26 27  1  0  0  0
 28101  1  0  0  0
 28102  1  0  0  0
 29103  1  0  0  0
 29104  1  0  0  0
 33 34  1  0  0  0
 33 66  1  0  0  0
 33 70  2  0  0  0
 34 36  1  0  0  0
 34 59  1  0  0  0
 34105  1  0  0  0
 35 44  2  0  0  0
 35 45  1  0  0  0
 35 68  1  0  0  0
 36 56  1  0  0  0
 36106  1  0  0  0
 37 39  1  0  0  0
 37 47  1  0  0  0
 37 66  1  0  0  0
 37107  1  0  0  0
 38 43  2  0  0  0
 38 46  1  0  0  0
 38 47  1  0  0  0
 39 64  1  0  0  0
 39 67  2  0  0  0
 40 52  1  0  0  0
 40 53  2  0  0  0
 40 58  1  0  0  0
 41108  1  0  0  0
 41109  1  0  0  0
 41110  1  0  0  0
 41 48  1  0  0  0
 42 43  1  0  0  0
 42 66  1  0  0  0
 42111  1  0  0  0
 42112  1  0  0  0
 43 44  1  0  0  0
 44113  1  0  0  0
 45 46  2  0  0  0
 45114  1  0  0  0
 46115  1  0  0  0
 47116  1  0  0  0
 47117  1  0  0  0
 48 56  1  0  0  0
 48 65  1  0  0  0
 48118  1  0  0  0
 49 50  1  0  0  0
 49 53  1  0  0  0
 49 64  1  0  0  0
 49119  1  0  0  0
 50 51  1  0  0  0
 50120  1  0  0  0
 50121  1  0  0  0
 51 52  1  0  0  0
 51122  1  0  0  0
 51123  1  0  0  0
 52124  1  0  0  0
 52125  1  0  0  0
 53 54  1  0  0  0
 54 55  2  0  0  0
 54126  1  0  0  0
 55 57  1  0  0  0
 55127  1  0  0  0
 56 69  2  0  0  0
 57 58  2  0  0  0
 57128  1  0  0  0
 58129  1  0  0  0
 59 60  1  0  0  0
 59 61  1  0  0  0
 59 62  1  0  0  0
 60130  1  0  0  0
 60131  1  0  0  0
 60132  1  0  0  0
 61133  1  0  0  0
 61134  1  0  0  0
 61135  1  0  0  0
 62136  1  0  0  0
 62137  1  0  0  0
 62138  1  0  0  0
 63 65  1  0  0  0
 63139  1  0  0  0
 63140  1  0  0  0
 63141  1  0  0  0
 64142  1  0  0  0
 65143  1  0  0  0
 68 79  1  0  0  0
 71 73  1  0  0  0
 71 74  1  0  0  0
 71144  1  0  0  0
 71145  1  0  0  0
 72 73  1  0  0  0
 72 82  1  0  0  0
 72146  1  0  0  0
 72147  1  0  0  0
 73 84  1  0  0  0
 73148  1  0  0  0
 74 75  1  0  0  0
 74 82  1  0  0  0
 74149  1  0  0  0
 75 77  1  0  0  0
 75150  1  0  0  0
 75151  1  0  0  0
 76 78  1  0  0  0
 76 81  1  0  0  0
 76152  1  0  0  0
 76153  1  0  0  0
 77 83  1  0  0  0
 77154  1  0  0  0
 77155  1  0  0  0
 78 83  1  0  0  0
 78156  1  0  0  0
 78157  1  0  0  0
 79 80  1  0  0  0
 79158  1  0  0  0
 79159  1  0  0  0
 80 84  1  0  0  0
 80160  1  0  0  0
 80161  1  0  0  0
 81162  1  0  0  0
 82163  1  0  0  0
 82164  1  0  0  0
 83165  1  0  0  0
 83166  1  0  0  0
M  CHG  2  82   1  83   1
M  ISO  4   1 100  68 101  79 101  81 100
M  END
> <chiral flag>
0

> <version>
0

> <s_m_source_file>
/data/baiqing/PycharmProjects/Reinvent-master-3.2/result/LINK_invent/BTK/process_docking_weight1_custom_sum_contain_oxygen_bond_distance_aromatic_linkinvent_7_9_3/rearranged_h_0126.sdf

> <i_m_source_file_index>
26

> <r_mmod_Potential_Energy-OPLS-2005>
-362.251647949219

> <r_mmod_Stretch_Energy-OPLS-2005>
31.4143447875977

> <r_mmod_Bend_Energy-OPLS-2005>
126.36449432373

> <r_mmod_Torsional_Energy-OPLS-2005>
272.918304443359

> <r_mmod_Improper_Torsional_Energy-OPLS-2005>
3.53869676589966

> <r_mmod_Van_der_Waal_Energy-OPLS-2005>
136.11328125

> <r_mmod_Electrostatic_Energy-OPLS-2005>
73.9139404296875

> <r_mmod_Solvation_Energy-OPLS-2005>
-1018.12310791016

> <b_mmod_Minimization_Converged-OPLS-2005>
0

> <r_mmod_RMS_Derivative-OPLS-2005>
1.56451594829559

$$$$
26
                    3D
 Structure written by MMmdl.
180189  0  0  1  0            999 V2000
  -30.7541  -14.3922   20.6140 C   0  0  0  0  0  0
  -30.4111  -12.2779   19.3971 C   0  0  0  0  0  0
  -29.4787  -12.5075   18.1922 C   0  0  0  0  0  0
  -28.0018  -12.3831   18.6096 C   0  0  0  0  0  0
  -27.6649  -13.2039   19.8823 C   0  0  2  0  0  0
  -28.7093  -12.9545   20.9934 C   0  0  0  0  0  0
  -25.2601  -13.8163   20.5693 C   0  0  0  0  0  0
  -24.1846  -13.0435   20.9176 C   0  0  0  0  0  0
  -24.6397  -11.6899   20.8736 C   0  0  0  0  0  0
  -23.9058  -10.4301   21.0411 C   0  0  0  0  0  0
  -24.3606   -9.4215   21.9179 C   0  0  0  0  0  0
  -23.6293   -8.2247   22.0758 C   0  0  0  0  0  0
  -22.4281   -8.0285   21.3547 C   0  0  0  0  0  0
  -21.9917   -9.0256   20.4634 C   0  0  0  0  0  0
  -22.7236  -10.2143   20.3047 C   0  0  0  0  0  0
  -21.6843   -6.0738   22.5275 C   0  0  0  0  0  0
  -21.4014   -6.5642   23.8206 C   0  0  0  0  0  0
  -21.3657   -5.6796   24.9172 C   0  0  0  0  0  0
  -21.6048   -4.3060   24.7210 C   0  0  0  0  0  0
  -21.8821   -3.8146   23.4337 C   0  0  0  0  0  0
  -21.9197   -4.6966   22.3389 C   0  0  0  0  0  0
  -22.7867  -13.5237   21.1836 C   0  0  0  0  0  0
  -22.1661   -4.2148   21.0960 F   0  0  0  0  0  0
  -21.5638   -3.4553   25.7728 F   0  0  0  0  0  0
  -30.0449  -13.2463   20.4411 N   0  0  0  0  0  0
  -26.3051  -12.9331   20.3436 N   0  0  0  0  0  0
  -25.9326  -11.6492   20.5795 N   0  0  0  0  0  0
  -22.0502  -12.8210   22.0378 N   0  0  0  0  0  0
  -25.4347  -15.1870   20.4059 N   0  0  0  0  0  0
  -31.8291  -14.6136   20.0505 O   0  0  0  0  0  0
  -21.6635   -6.8880   21.4235 O   0  0  0  0  0  0
  -22.3545  -14.5538   20.6701 O   0  0  0  0  0  0
  -24.6105  -31.8672   23.2125 C   0  0  0  0  0  0
  -25.9018  -32.4813   23.8400 C   0  0  1  0  0  0
  -27.2481  -27.4623   20.0726 C   0  0  0  0  0  0
  -25.5899  -33.8607   24.2339 N   0  0  0  0  0  0
  -23.3966  -30.4896   21.5518 C   0  0  2  0  0  0
  -24.8463  -28.9590   20.1161 C   0  0  0  0  0  0
  -22.7358  -29.4657   22.5011 C   0  0  0  0  0  0
  -18.0248  -28.1378   22.8509 C   0  0  0  0  0  0
  -24.1485  -36.7319   23.2644 C   0  0  0  0  0  0
  -25.9226  -30.8388   21.3629 C   0  0  0  0  0  0
  -26.0040  -29.4734   20.7133 C   0  0  0  0  0  0
  -27.2021  -28.7284   20.6985 C   0  0  0  0  0  0
  -26.0633  -26.9442   19.4995 C   0  0  0  0  0  0
  -24.8695  -27.6896   19.5118 C   0  0  0  0  0  0
  -23.6045  -29.8188   20.1674 C   0  0  0  0  0  0
  -25.4106  -36.3097   24.0337 C   0  0  1  0  0  0
  -20.5822  -28.3666   23.1351 C   0  0  2  0  0  0
  -20.6737  -26.9414   22.5438 C   0  0  0  0  0  0
  -19.5724  -26.6397   21.5229 C   0  0  0  0  0  0
  -18.1885  -26.7936   22.1610 C   0  0  0  0  0  0
  -19.1491  -28.8830   23.2927 C   0  0  0  0  0  0
  -18.9426  -30.1448   23.8927 C   0  0  0  0  0  0
  -17.6432  -30.6597   24.0576 C   0  0  0  0  0  0
  -25.9032  -34.9461   23.5126 C   0  0  0  0  0  0
  -16.5325  -29.9104   23.6349 C   0  0  0  0  0  0
  -16.7244  -28.6516   23.0373 C   0  0  0  0  0  0
  -26.4480  -31.6572   25.0710 C   0  0  0  0  0  0
  -25.3769  -31.3605   26.1462 C   0  0  0  0  0  0
  -27.0332  -30.3021   24.6078 C   0  0  0  0  0  0
  -27.6053  -32.4296   25.7475 C   0  0  0  0  0  0
  -27.5576  -37.1811   24.8473 C   0  0  0  0  0  0
  -21.4091  -29.3034   22.3747 N   0  0  0  0  0  0
  -26.4292  -37.3784   23.9409 N   0  0  0  0  0  0
  -24.6608  -31.0785   22.1016 N   0  0  0  0  0  0
  -23.4137  -28.8214   23.3058 O   0  0  0  0  0  0
  -28.4392  -26.7683   20.0683 O   0  0  0  0  0  0
  -26.5585  -34.8910   22.4681 O   0  0  0  0  0  0
  -23.5313  -32.1440   23.7544 O   0  0  0  0  0  0
  -29.2390  -20.4175   25.0657 C   0  0  0  0  0  0
  -30.0007  -19.1214   25.2711 C   0  0  0  0  0  0
  -30.5695  -24.4987   19.9654 C   0  0  0  0  0  0
  -28.1650  -23.7825   20.0722 C   0  0  0  0  0  0
  -31.0299  -23.0388   20.1420 C   0  0  0  0  0  0
  -28.6147  -22.3280   20.3263 C   0  0  0  0  0  0
  -29.6996  -21.0374   23.7500 C   0  0  0  0  0  0
  -29.6814  -18.2003   24.0968 C   0  0  0  0  0  0
  -29.2092  -24.5628   19.2513 C   0  0  1  0  0  0
  -30.0141  -22.2313   20.9854 C   0  0  1  0  0  0
  -29.6169  -20.0978   22.5048 C   0  0  1  0  0  0
  -32.7083  -20.2116   20.4237 C   0  0  0  0  0  0
  -28.7762  -26.0052   18.9043 C   0  0  0  0  0  0
  -29.7769  -17.7278   21.8155 C   0  0  0  0  0  0
  -30.8109  -16.5807   21.7825 C   0  0  0  0  0  0
  -30.3947  -20.7338   21.2895 C   0  0  2  0  0  0
  -30.1647  -18.7436   22.8107 N   0  0  0  0  0  0
  -30.1961  -15.3060   21.4142 N   0  0  0  0  0  0
  -31.8339  -20.5359   21.5747 N   0  3  0  0  0  0
  -31.4543  -12.3662   19.0866 H   0  0  0  0  0  0
  -30.2998  -11.2608   19.7772 H   0  0  0  0  0  0
  -29.6985  -11.7923   17.3985 H   0  0  0  0  0  0
  -29.6581  -13.4966   17.7686 H   0  0  0  0  0  0
  -27.7940  -11.3276   18.7843 H   0  0  0  0  0  0
  -27.3528  -12.6867   17.7879 H   0  0  0  0  0  0
  -27.7204  -14.2560   19.6044 H   0  0  0  0  0  0
  -28.6742  -11.9120   21.3142 H   0  0  0  0  0  0
  -28.4732  -13.5366   21.8835 H   0  0  0  0  0  0
  -25.2741   -9.5697   22.4771 H   0  0  0  0  0  0
  -23.9990   -7.4644   22.7503 H   0  0  0  0  0  0
  -21.0855   -8.8774   19.8933 H   0  0  0  0  0  0
  -22.3687  -10.9691   19.6171 H   0  0  0  0  0  0
  -21.2005   -7.6148   23.9708 H   0  0  0  0  0  0
  -21.1484   -6.0527   25.9074 H   0  0  0  0  0  0
  -22.0603   -2.7614   23.2837 H   0  0  0  0  0  0
  -22.4132  -11.9860   22.4743 H   0  0  0  0  0  0
  -21.1114  -13.1226   22.2593 H   0  0  0  0  0  0
  -24.6704  -15.8480   20.5001 H   0  0  0  0  0  0
  -26.2906  -15.6175   20.0770 H   0  0  0  0  0  0
  -26.7081  -32.5546   23.1152 H   0  0  0  0  0  0
  -25.0050  -33.9779   25.0483 H   0  0  0  0  0  0
  -22.6862  -31.3060   21.4109 H   0  0  0  0  0  0
  -23.3750  -35.9648   23.3271 H   0  0  0  0  0  0
  -24.3574  -36.8995   22.2071 H   0  0  0  0  0  0
  -23.7244  -37.6499   23.6704 H   0  0  0  0  0  0
  -26.0217  -31.6039   20.5920 H   0  0  0  0  0  0
  -26.8131  -30.8995   21.9764 H   0  0  0  0  0  0
  -28.0980  -29.1254   21.1542 H   0  0  0  0  0  0
  -26.0469  -25.9615   19.0499 H   0  0  0  0  0  0
  -23.9767  -27.2814   19.0606 H   0  0  0  0  0  0
  -23.7049  -30.5929   19.4055 H   0  0  0  0  0  0
  -22.7305  -29.2319   19.8766 H   0  0  0  0  0  0
  -25.1283  -36.1949   25.0826 H   0  0  0  0  0  0
  -20.9908  -28.3242   24.1478 H   0  0  0  0  0  0
  -20.5662  -26.2268   23.3610 H   0  0  0  0  0  0
  -21.6612  -26.7459   22.1244 H   0  0  0  0  0  0
  -19.6894  -25.6318   21.1245 H   0  0  0  0  0  0
  -19.6682  -27.3225   20.6773 H   0  0  0  0  0  0
  -17.4176  -26.6741   21.3984 H   0  0  0  0  0  0
  -18.0253  -26.0051   22.8969 H   0  0  0  0  0  0
  -19.7895  -30.7263   24.2313 H   0  0  0  0  0  0
  -17.4982  -31.6279   24.5182 H   0  0  0  0  0  0
  -15.5328  -30.3009   23.7653 H   0  0  0  0  0  0
  -15.8646  -28.0850   22.7079 H   0  0  0  0  0  0
  -24.6067  -30.6801   25.7815 H   0  0  0  0  0  0
  -24.8808  -32.2707   26.4834 H   0  0  0  0  0  0
  -25.8187  -30.8885   27.0250 H   0  0  0  0  0  0
  -26.2864  -29.6723   24.1236 H   0  0  0  0  0  0
  -27.4219  -29.7305   25.4513 H   0  0  0  0  0  0
  -27.8635  -30.4336   23.9137 H   0  0  0  0  0  0
  -27.2709  -33.3650   26.1965 H   0  0  0  0  0  0
  -28.3910  -32.6753   25.0321 H   0  0  0  0  0  0
  -28.0654  -31.8459   26.5457 H   0  0  0  0  0  0
  -28.2585  -38.0109   24.7494 H   0  0  0  0  0  0
  -28.1070  -36.2627   24.6329 H   0  0  0  0  0  0
  -27.2275  -37.1531   25.8872 H   0  0  0  0  0  0
  -20.9232  -29.8742   21.6969 H   0  0  0  0  0  0
  -26.0169  -38.2850   24.1414 H   0  0  0  0  0  0
  -29.4200  -21.1074   25.8908 H   0  0  0  0  0  0
  -28.1654  -20.2260   25.0366 H   0  0  0  0  0  0
  -29.6941  -18.6519   26.2075 H   0  0  0  0  0  0
  -31.0747  -19.3009   25.3485 H   0  0  0  0  0  0
  -31.3193  -25.0599   19.4071 H   0  0  0  0  0  0
  -30.4917  -24.9820   20.9412 H   0  0  0  0  0  0
  -27.9992  -24.2834   21.0274 H   0  0  0  0  0  0
  -27.2051  -23.7838   19.5540 H   0  0  0  0  0  0
  -32.0028  -23.0578   20.6336 H   0  0  0  0  0  0
  -31.1783  -22.5750   19.1661 H   0  0  0  0  0  0
  -28.6238  -21.7885   19.3775 H   0  0  0  0  0  0
  -27.8700  -21.8337   20.9509 H   0  0  0  0  0  0
  -30.7190  -21.3976   23.8855 H   0  0  0  0  0  0
  -29.0785  -21.9184   23.5963 H   0  0  0  0  0  0
  -28.6025  -18.0332   24.0610 H   0  0  0  0  0  0
  -30.1298  -17.2298   24.3087 H   0  0  0  0  0  0
  -29.3290  -24.0498   18.2952 H   0  0  0  0  0  0
  -29.9794  -22.7853   21.9182 H   0  0  0  0  0  0
  -28.5625  -19.9873   22.2428 H   0  0  0  0  0  0
  -33.6620  -19.8230   20.7801 H   0  0  0  0  0  0
  -32.9269  -21.0868   19.8140 H   0  0  0  0  0  0
  -32.2656  -19.4497   19.7820 H   0  0  0  0  0  0
  -27.9948  -25.9809   18.1454 H   0  0  0  0  0  0
  -29.6090  -26.5158   18.4163 H   0  0  0  0  0  0
  -28.7748  -17.3465   22.0282 H   0  0  0  0  0  0
  -29.7038  -18.1365   20.8081 H   0  0  0  0  0  0
  -31.3107  -16.4319   22.7389 H   0  0  0  0  0  0
  -31.6037  -16.8602   21.0859 H   0  0  0  0  0  0
  -30.1598  -20.1620   20.3923 H   0  0  0  0  0  0
  -29.3126  -15.0657   21.8362 H   0  0  0  0  0  0
  -32.2089  -21.2909   22.1231 H   0  0  0  0  0  0
  -31.8026  -19.7156   22.1699 H   0  0  0  0  0  0
  1 25  1  0  0  0
  1 30  2  0  0  0
  1 88  1  0  0  0
  2  3  1  0  0  0
  2 25  1  0  0  0
  2 90  1  0  0  0
  2 91  1  0  0  0
  3  4  1  0  0  0
  3 92  1  0  0  0
  3 93  1  0  0  0
  4  5  1  0  0  0
  4 94  1  0  0  0
  4 95  1  0  0  0
  5  6  1  0  0  0
  5 26  1  0  0  0
  5 96  1  0  0  0
  6 25  1  0  0  0
  6 97  1  0  0  0
  6 98  1  0  0  0
  7  8  2  0  0  0
  7 26  1  0  0  0
  7 29  1  0  0  0
  8  9  1  0  0  0
  8 22  1  0  0  0
  9 10  1  0  0  0
  9 27  2  0  0  0
 10 11  2  0  0  0
 10 15  1  0  0  0
 11 12  1  0  0  0
 11 99  1  0  0  0
 12 13  2  0  0  0
 12100  1  0  0  0
 13 14  1  0  0  0
 13 31  1  0  0  0
 14 15  2  0  0  0
 14101  1  0  0  0
 15102  1  0  0  0
 16 17  2  0  0  0
 16 21  1  0  0  0
 16 31  1  0  0  0
 17 18  1  0  0  0
 17103  1  0  0  0
 18 19  2  0  0  0
 18104  1  0  0  0
 19 20  1  0  0  0
 19 24  1  0  0  0
 20 21  2  0  0  0
 20105  1  0  0  0
 21 23  1  0  0  0
 22 28  1  0  0  0
 22 32  2  0  0  0
 26 27  1  0  0  0
 28106  1  0  0  0
 28107  1  0  0  0
 29108  1  0  0  0
 29109  1  0  0  0
 33 34  1  0  0  0
 33 66  1  0  0  0
 33 70  2  0  0  0
 34 36  1  0  0  0
 34 59  1  0  0  0
 34110  1  0  0  0
 35 44  2  0  0  0
 35 45  1  0  0  0
 35 68  1  0  0  0
 36 56  1  0  0  0
 36111  1  0  0  0
 37 39  1  0  0  0
 37 47  1  0  0  0
 37 66  1  0  0  0
 37112  1  0  0  0
 38 43  2  0  0  0
 38 46  1  0  0  0
 38 47  1  0  0  0
 39 64  1  0  0  0
 39 67  2  0  0  0
 40 52  1  0  0  0
 40 53  2  0  0  0
 40 58  1  0  0  0
 41113  1  0  0  0
 41114  1  0  0  0
 41115  1  0  0  0
 41 48  1  0  0  0
 42 43  1  0  0  0
 42 66  1  0  0  0
 42116  1  0  0  0
 42117  1  0  0  0
 43 44  1  0  0  0
 44118  1  0  0  0
 45 46  2  0  0  0
 45119  1  0  0  0
 46120  1  0  0  0
 47121  1  0  0  0
 47122  1  0  0  0
 48 56  1  0  0  0
 48 65  1  0  0  0
 48123  1  0  0  0
 49 50  1  0  0  0
 49 53  1  0  0  0
 49 64  1  0  0  0
 49124  1  0  0  0
 50 51  1  0  0  0
 50125  1  0  0  0
 50126  1  0  0  0
 51 52  1  0  0  0
 51127  1  0  0  0
 51128  1  0  0  0
 52129  1  0  0  0
 52130  1  0  0  0
 53 54  1  0  0  0
 54 55  2  0  0  0
 54131  1  0  0  0
 55 57  1  0  0  0
 55132  1  0  0  0
 56 69  2  0  0  0
 57 58  2  0  0  0
 57133  1  0  0  0
 58134  1  0  0  0
 59 60  1  0  0  0
 59 61  1  0  0  0
 59 62  1  0  0  0
 60135  1  0  0  0
 60136  1  0  0  0
 60137  1  0  0  0
 61138  1  0  0  0
 61139  1  0  0  0
 61140  1  0  0  0
 62141  1  0  0  0
 62142  1  0  0  0
 62143  1  0  0  0
 63 65  1  0  0  0
 63144  1  0  0  0
 63145  1  0  0  0
 63146  1  0  0  0
 64147  1  0  0  0
 65148  1  0  0  0
 68 83  1  0  0  0
 71 72  1  0  0  0
 71 77  1  0  0  0
 71149  1  0  0  0
 71150  1  0  0  0
 72 78  1  0  0  0
 72151  1  0  0  0
 72152  1  0  0  0
 73 75  1  0  0  0
 73 79  1  0  0  0
 73153  1  0  0  0
 73154  1  0  0  0
 74 76  1  0  0  0
 74 79  1  0  0  0
 74155  1  0  0  0
 74156  1  0  0  0
 75157  1  0  0  0
 75158  1  0  0  0
 75 80  1  0  0  0
 76 80  1  0  0  0
 76159  1  0  0  0
 76160  1  0  0  0
 77161  1  0  0  0
 77162  1  0  0  0
 77 81  1  0  0  0
 78 87  1  0  0  0
 78163  1  0  0  0
 78164  1  0  0  0
 79 83  1  0  0  0
 79165  1  0  0  0
 80 86  1  0  0  0
 80166  1  0  0  0
 81 86  1  0  0  0
 81 87  1  0  0  0
 81167  1  0  0  0
 82 89  1  0  0  0
 82168  1  0  0  0
 82169  1  0  0  0
 82170  1  0  0  0
 83171  1  0  0  0
 83172  1  0  0  0
 84 85  1  0  0  0
 84 87  1  0  0  0
 84173  1  0  0  0
 84174  1  0  0  0
 85 88  1  0  0  0
 85175  1  0  0  0
 85176  1  0  0  0
 86 89  1  0  0  0
 86177  1  0  0  0
 88178  1  0  0  0
 89179  1  0  0  0
 89180  1  0  0  0
M  CHG  1  89   1
M  ISO  4   1 100  68 101  83 101  88 100
M  END
> <chiral flag>
0

> <version>
0

> <s_m_source_file>
/data/baiqing/PycharmProjects/Reinvent-master-3.2/result/LINK_invent/BTK/process_docking_weight1_custom_sum_contain_oxygen_bond_distance_aromatic_linkinvent_7_9_3/rearranged_h_0126.sdf

> <i_m_source_file_index>
27

> <r_mmod_Potential_Energy-OPLS-2005>
-143.19580078125

> <r_mmod_Stretch_Energy-OPLS-2005>
44.335620880127

> <r_mmod_Bend_Energy-OPLS-2005>
123.765106201172

> <r_mmod_Torsional_Energy-OPLS-2005>
300.465515136719

> <r_mmod_Improper_Torsional_Energy-OPLS-2005>
1.93925750255585

> <r_mmod_Van_der_Waal_Energy-OPLS-2005>
165.327926635742

> <r_mmod_Electrostatic_Energy-OPLS-2005>
-368.116394042969

> <r_mmod_Solvation_Energy-OPLS-2005>
-418.827270507812

> <b_mmod_Minimization_Converged-OPLS-2005>
0

> <r_mmod_RMS_Derivative-OPLS-2005>
2.64218497276306

$$$$
27
                    3D
 Structure written by MMmdl.
177186  0  0  1  0            999 V2000
  -30.8272  -14.6307   20.4176 C   0  0  0  0  0  0
  -30.3941  -12.4297   19.4006 C   0  0  0  0  0  0
  -29.4559  -12.3753   18.1872 C   0  0  0  0  0  0
  -27.9913  -12.2777   18.6393 C   0  0  0  0  0  0
  -27.6210  -13.2272   19.8071 C   0  0  2  0  0  0
  -28.7041  -13.2726   20.9113 C   0  0  0  0  0  0
  -25.2493  -13.8206   20.5761 C   0  0  0  0  0  0
  -24.1787  -13.0430   20.9294 C   0  0  0  0  0  0
  -24.6377  -11.6918   20.8848 C   0  0  0  0  0  0
  -23.9066  -10.4260   21.0452 C   0  0  0  0  0  0
  -24.3612   -9.4144   21.9207 C   0  0  0  0  0  0
  -23.6277   -8.2188   22.0766 C   0  0  0  0  0  0
  -22.4261   -8.0232   21.3540 C   0  0  0  0  0  0
  -21.9907   -9.0219   20.4651 C   0  0  0  0  0  0
  -22.7260  -10.2100   20.3073 C   0  0  0  0  0  0
  -21.6837   -6.0696   22.5267 C   0  0  0  0  0  0
  -21.4005   -6.5624   23.8197 C   0  0  0  0  0  0
  -21.3678   -5.6792   24.9170 C   0  0  0  0  0  0
  -21.6064   -4.3042   24.7235 C   0  0  0  0  0  0
  -21.8816   -3.8128   23.4354 C   0  0  0  0  0  0
  -21.9199   -4.6934   22.3408 C   0  0  0  0  0  0
  -22.7797  -13.5207   21.1928 C   0  0  0  0  0  0
  -22.1663   -4.2114   21.0979 F   0  0  0  0  0  0
  -21.5634   -3.4532   25.7748 F   0  0  0  0  0  0
  -29.9674  -13.5771   20.2300 N   0  0  0  0  0  0
  -26.2889  -12.9398   20.3286 N   0  0  0  0  0  0
  -25.9307  -11.6550   20.5904 N   0  0  0  0  0  0
  -22.0460  -12.8145   22.0466 N   0  0  0  0  0  0
  -25.4176  -15.1920   20.4108 N   0  0  0  0  0  0
  -32.0128  -14.3447   20.5286 O   0  0  0  0  0  0
  -21.6648   -6.8829   21.4213 O   0  0  0  0  0  0
  -22.3467  -14.5531   20.6807 O   0  0  0  0  0  0
  -24.6167  -31.8681   23.2103 C   0  0  0  0  0  0
  -25.9044  -32.4844   23.8400 C   0  0  1  0  0  0
  -27.2121  -27.4046   20.1039 C   0  0  0  0  0  0
  -25.5868  -33.8641   24.2334 N   0  0  0  0  0  0
  -23.4061  -30.4941   21.5495 C   0  0  2  0  0  0
  -24.8526  -28.9604   20.1083 C   0  0  0  0  0  0
  -22.7401  -29.4685   22.4967 C   0  0  0  0  0  0
  -18.0269  -28.1398   22.8472 C   0  0  0  0  0  0
  -24.1466  -36.7327   23.2611 C   0  0  0  0  0  0
  -25.9354  -30.8272   21.3661 C   0  0  0  0  0  0
  -26.0141  -29.4578   20.7131 C   0  0  0  0  0  0
  -27.2022  -28.6851   20.7110 C   0  0  0  0  0  0
  -26.0434  -26.9333   19.4765 C   0  0  0  0  0  0
  -24.8632  -27.7003   19.4843 C   0  0  0  0  0  0
  -23.6168  -29.8324   20.1612 C   0  0  0  0  0  0
  -25.4103  -36.3154   24.0319 C   0  0  1  0  0  0
  -20.5852  -28.3671   23.1262 C   0  0  2  0  0  0
  -20.6781  -26.9424   22.5302 C   0  0  0  0  0  0
  -19.5724  -26.6431   21.5131 C   0  0  0  0  0  0
  -18.1893  -26.7983   22.1535 C   0  0  0  0  0  0
  -19.1513  -28.8844   23.2888 C   0  0  0  0  0  0
  -18.9474  -30.1432   23.8953 C   0  0  0  0  0  0
  -17.6497  -30.6583   24.0609 C   0  0  0  0  0  0
  -25.9033  -34.9498   23.5142 C   0  0  0  0  0  0
  -16.5368  -29.9122   23.6339 C   0  0  0  0  0  0
  -16.7268  -28.6553   23.0366 C   0  0  0  0  0  0
  -26.4475  -31.6622   25.0728 C   0  0  0  0  0  0
  -25.3719  -31.3727   26.1462 C   0  0  0  0  0  0
  -27.0264  -30.3047   24.6108 C   0  0  0  0  0  0
  -27.6070  -32.4296   25.7492 C   0  0  0  0  0  0
  -27.5592  -37.1831   24.8459 C   0  0  0  0  0  0
  -21.4109  -29.3113   22.3748 N   0  0  0  0  0  0
  -26.4311  -37.3842   23.9395 N   0  0  0  0  0  0
  -24.6708  -31.0755   22.1020 N   0  0  0  0  0  0
  -23.4186  -28.8164   23.2957 O   0  0  0  0  0  0
  -28.2919  -26.5496   20.1668 O   0  0  0  0  0  0
  -26.5618  -34.8930   22.4719 O   0  0  0  0  0  0
  -23.5346  -32.1438   23.7474 O   0  0  0  0  0  0
  -28.3399  -23.4333   20.1217 C   0  0  0  0  0  0
  -28.6062  -22.0310   20.1428 C   0  0  0  0  0  0
  -28.9851  -23.5767   22.4455 C   0  0  0  0  0  0
  -28.5555  -24.2315   21.2733 C   0  0  0  0  0  0
  -29.2720  -22.1908   22.4682 C   0  0  0  0  0  0
  -29.1089  -21.3929   21.3087 C   0  0  0  0  0  0
  -30.2935  -17.0642   17.3635 C   0  0  0  0  0  0
  -29.1940  -16.2702   18.1083 C   0  0  0  0  0  0
  -31.6872  -16.9458   18.0269 C   0  0  2  0  0  0
  -29.2149  -16.5612   19.6300 C   0  0  2  0  0  0
  -31.6808  -16.7941   19.5779 C   0  0  1  0  0  0
  -29.7770  -21.5896   23.7640 C   0  0  0  0  0  0
  -32.6778  -18.0280   17.5493 C   0  0  0  0  0  0
  -32.0255  -18.0208   20.4443 C   0  0  0  0  0  0
  -27.5507  -18.5033   19.1541 C   0  0  0  0  0  0
  -28.2598  -25.7467   21.3701 C   0  0  0  0  0  0
  -28.8576  -18.8057   21.2343 C   0  0  0  0  0  0
  -28.8940  -18.1350   19.8249 C   0  0  1  0  0  0
  -30.5247  -15.9577   20.0674 N   0  0  0  0  0  0
  -29.6216  -20.0699   21.3157 N   0  0  0  0  0  0
  -31.4222  -12.5191   19.0440 H   0  0  0  0  0  0
  -30.3457  -11.5011   19.9711 H   0  0  0  0  0  0
  -29.7038  -11.5034   17.5810 H   0  0  0  0  0  0
  -29.6128  -13.2180   17.5213 H   0  0  0  0  0  0
  -27.8451  -11.2459   18.9574 H   0  0  0  0  0  0
  -27.3197  -12.4336   17.7942 H   0  0  0  0  0  0
  -27.5684  -14.2117   19.3472 H   0  0  0  0  0  0
  -28.7646  -12.3310   21.4555 H   0  0  0  0  0  0
  -28.4716  -14.0469   21.6458 H   0  0  0  0  0  0
  -25.2729   -9.5623   22.4808 H   0  0  0  0  0  0
  -23.9981   -7.4591   22.7485 H   0  0  0  0  0  0
  -21.0837   -8.8759   19.8944 H   0  0  0  0  0  0
  -22.3722  -10.9653   19.6204 H   0  0  0  0  0  0
  -21.1973   -7.6119   23.9687 H   0  0  0  0  0  0
  -21.1532   -6.0519   25.9083 H   0  0  0  0  0  0
  -22.0588   -2.7581   23.2871 H   0  0  0  0  0  0
  -22.4085  -11.9779   22.4781 H   0  0  0  0  0  0
  -21.1081  -13.1142   22.2721 H   0  0  0  0  0  0
  -24.6583  -15.8525   20.5241 H   0  0  0  0  0  0
  -26.2750  -15.6262   20.0968 H   0  0  0  0  0  0
  -26.7093  -32.5570   23.1132 H   0  0  0  0  0  0
  -24.9958  -33.9806   25.0442 H   0  0  0  0  0  0
  -22.6936  -31.3123   21.4138 H   0  0  0  0  0  0
  -23.3750  -35.9649   23.3313 H   0  0  0  0  0  0
  -24.3540  -36.8941   22.2022 H   0  0  0  0  0  0
  -23.7199  -37.6526   23.6610 H   0  0  0  0  0  0
  -26.0425  -31.5926   20.5961 H   0  0  0  0  0  0
  -26.8265  -30.8858   21.9813 H   0  0  0  0  0  0
  -28.0951  -29.0553   21.1974 H   0  0  0  0  0  0
  -26.0373  -25.9600   19.0034 H   0  0  0  0  0  0
  -23.9693  -27.3168   19.0120 H   0  0  0  0  0  0
  -22.7390  -29.2598   19.8591 H   0  0  0  0  0  0
  -23.7270  -30.6129   19.4058 H   0  0  0  0  0  0
  -25.1279  -36.2042   25.0823 H   0  0  0  0  0  0
  -20.9943  -28.3179   24.1358 H   0  0  0  0  0  0
  -20.5741  -26.2253   23.3445 H   0  0  0  0  0  0
  -21.6639  -26.7530   22.1024 H   0  0  0  0  0  0
  -19.6861  -25.6372   21.1078 H   0  0  0  0  0  0
  -19.6681  -27.3288   20.6708 H   0  0  0  0  0  0
  -17.4165  -26.6820   21.3908 H   0  0  0  0  0  0
  -18.0297  -26.0071   22.8862 H   0  0  0  0  0  0
  -19.7955  -30.7215   24.2350 H   0  0  0  0  0  0
  -17.5092  -31.6234   24.5261 H   0  0  0  0  0  0
  -15.5387  -30.3099   23.7624 H   0  0  0  0  0  0
  -15.8656  -28.0877   22.7055 H   0  0  0  0  0  0
  -24.5905  -30.7065   25.7788 H   0  0  0  0  0  0
  -24.8868  -32.2872   26.4883 H   0  0  0  0  0  0
  -25.8058  -30.8910   27.0238 H   0  0  0  0  0  0
  -26.2785  -29.6824   24.1165 H   0  0  0  0  0  0
  -27.4012  -29.7282   25.4583 H   0  0  0  0  0  0
  -27.8656  -30.4342   23.9263 H   0  0  0  0  0  0
  -27.2729  -33.3580   26.2123 H   0  0  0  0  0  0
  -28.3864  -32.6879   25.0312 H   0  0  0  0  0  0
  -28.0741  -31.8361   26.5359 H   0  0  0  0  0  0
  -28.2645  -38.0098   24.7537 H   0  0  0  0  0  0
  -28.1064  -36.2644   24.6288 H   0  0  0  0  0  0
  -27.2280  -37.1504   25.8852 H   0  0  0  0  0  0
  -20.9222  -29.8925   21.7078 H   0  0  0  0  0  0
  -26.0208  -38.2929   24.1444 H   0  0  0  0  0  0
  -27.9894  -23.8996   19.2143 H   0  0  0  0  0  0
  -28.4769  -21.4659   19.2311 H   0  0  0  0  0  0
  -29.1087  -24.1602   23.3471 H   0  0  0  0  0  0
  -30.0162  -18.1117   17.2693 H   0  0  0  0  0  0
  -30.3522  -16.7078   16.3294 H   0  0  0  0  0  0
  -29.3646  -15.2161   17.9411 H   0  0  0  0  0  0
  -28.2180  -16.4542   17.6603 H   0  0  0  0  0  0
  -32.0849  -15.9997   17.6546 H   0  0  0  0  0  0
  -28.4211  -16.0211   20.1462 H   0  0  0  0  0  0
  -32.6331  -16.2806   19.6965 H   0  0  0  0  0  0
  -30.7765  -21.1704   23.6348 H   0  0  0  0  0  0
  -29.0968  -20.8077   24.0973 H   0  0  0  0  0  0
  -29.8398  -22.3353   24.5561 H   0  0  0  0  0  0
  -32.3149  -19.0344   17.7664 H   0  0  0  0  0  0
  -32.8576  -17.9680   16.4765 H   0  0  0  0  0  0
  -33.6441  -17.9195   18.0458 H   0  0  0  0  0  0
  -31.7530  -17.8648   21.4877 H   0  0  0  0  0  0
  -31.5598  -18.9324   20.0917 H   0  0  0  0  0  0
  -33.1011  -18.2213   20.4239 H   0  0  0  0  0  0
  -27.2202  -19.5049   19.4243 H   0  0  0  0  0  0
  -26.7562  -17.8159   19.4462 H   0  0  0  0  0  0
  -27.6242  -18.4995   18.0672 H   0  0  0  0  0  0
  -28.9771  -26.1933   22.0608 H   0  0  0  0  0  0
  -27.2961  -25.8285   21.8819 H   0  0  0  0  0  0
  -29.2778  -18.1227   21.9729 H   0  0  0  0  0  0
  -27.8277  -18.9738   21.5547 H   0  0  0  0  0  0
  -29.6326  -18.7003   19.2671 H   0  0  0  0  0  0
  -30.3723  -19.9697   21.9896 H   0  0  0  0  0  0
  1 25  1  0  0  0
  1 30  2  0  0  0
  1 89  1  0  0  0
  2  3  1  0  0  0
  2 25  1  0  0  0
  2 91  1  0  0  0
  2 92  1  0  0  0
  3  4  1  0  0  0
  3 93  1  0  0  0
  3 94  1  0  0  0
  4  5  1  0  0  0
  4 95  1  0  0  0
  4 96  1  0  0  0
  5  6  1  0  0  0
  5 26  1  0  0  0
  5 97  1  0  0  0
  6 25  1  0  0  0
  6 98  1  0  0  0
  6 99  1  0  0  0
  7  8  2  0  0  0
  7 26  1  0  0  0
  7 29  1  0  0  0
  8  9  1  0  0  0
  8 22  1  0  0  0
  9 10  1  0  0  0
  9 27  2  0  0  0
 10 11  2  0  0  0
 10 15  1  0  0  0
 11 12  1  0  0  0
 11100  1  0  0  0
 12 13  2  0  0  0
 12101  1  0  0  0
 13 14  1  0  0  0
 13 31  1  0  0  0
 14 15  2  0  0  0
 14102  1  0  0  0
 15103  1  0  0  0
 16 17  2  0  0  0
 16 21  1  0  0  0
 16 31  1  0  0  0
 17 18  1  0  0  0
 17104  1  0  0  0
 18 19  2  0  0  0
 18105  1  0  0  0
 19 20  1  0  0  0
 19 24  1  0  0  0
 20 21  2  0  0  0
 20106  1  0  0  0
 21 23  1  0  0  0
 22 28  1  0  0  0
 22 32  2  0  0  0
 26 27  1  0  0  0
 28107  1  0  0  0
 28108  1  0  0  0
 29109  1  0  0  0
 29110  1  0  0  0
 33 34  1  0  0  0
 33 66  1  0  0  0
 33 70  2  0  0  0
 34 36  1  0  0  0
 34 59  1  0  0  0
 34111  1  0  0  0
 35 44  2  0  0  0
 35 45  1  0  0  0
 35 68  1  0  0  0
 36 56  1  0  0  0
 36112  1  0  0  0
 37 39  1  0  0  0
 37 47  1  0  0  0
 37 66  1  0  0  0
 37113  1  0  0  0
 38 43  2  0  0  0
 38 46  1  0  0  0
 38 47  1  0  0  0
 39 64  1  0  0  0
 39 67  2  0  0  0
 40 52  1  0  0  0
 40 53  2  0  0  0
 40 58  1  0  0  0
 41114  1  0  0  0
 41115  1  0  0  0
 41116  1  0  0  0
 41 48  1  0  0  0
 42 43  1  0  0  0
 42 66  1  0  0  0
 42117  1  0  0  0
 42118  1  0  0  0
 43 44  1  0  0  0
 44119  1  0  0  0
 45 46  2  0  0  0
 45120  1  0  0  0
 46121  1  0  0  0
 47122  1  0  0  0
 47123  1  0  0  0
 48 56  1  0  0  0
 48 65  1  0  0  0
 48124  1  0  0  0
 49 50  1  0  0  0
 49 53  1  0  0  0
 49 64  1  0  0  0
 49125  1  0  0  0
 50 51  1  0  0  0
 50126  1  0  0  0
 50127  1  0  0  0
 51 52  1  0  0  0
 51128  1  0  0  0
 51129  1  0  0  0
 52130  1  0  0  0
 52131  1  0  0  0
 53 54  1  0  0  0
 54 55  2  0  0  0
 54132  1  0  0  0
 55 57  1  0  0  0
 55133  1  0  0  0
 56 69  2  0  0  0
 57 58  2  0  0  0
 57134  1  0  0  0
 58135  1  0  0  0
 59 60  1  0  0  0
 59 61  1  0  0  0
 59 62  1  0  0  0
 60136  1  0  0  0
 60137  1  0  0  0
 60138  1  0  0  0
 61139  1  0  0  0
 61140  1  0  0  0
 61141  1  0  0  0
 62142  1  0  0  0
 62143  1  0  0  0
 62144  1  0  0  0
 63 65  1  0  0  0
 63145  1  0  0  0
 63146  1  0  0  0
 63147  1  0  0  0
 64148  1  0  0  0
 65149  1  0  0  0
 68 86  1  0  0  0
 71 72  2  0  0  0
 71 74  1  0  0  0
 71150  1  0  0  0
 72 76  1  0  0  0
 72151  1  0  0  0
 73 74  2  0  0  0
 73 75  1  0  0  0
 73152  1  0  0  0
 74 86  1  0  0  0
 75 76  2  0  0  0
 75 82  1  0  0  0
 76 90  1  0  0  0
 77 78  1  0  0  0
 77 79  1  0  0  0
 77153  1  0  0  0
 77154  1  0  0  0
 78155  1  0  0  0
 78156  1  0  0  0
 78 80  1  0  0  0
 79 81  1  0  0  0
 79 83  1  0  0  0
 79157  1  0  0  0
 80 88  1  0  0  0
 80 89  1  0  0  0
 80158  1  0  0  0
 81 84  1  0  0  0
 81 89  1  0  0  0
 81159  1  0  0  0
 82160  1  0  0  0
 82161  1  0  0  0
 82162  1  0  0  0
 83163  1  0  0  0
 83164  1  0  0  0
 83165  1  0  0  0
 84166  1  0  0  0
 84167  1  0  0  0
 84168  1  0  0  0
 85169  1  0  0  0
 85170  1  0  0  0
 85171  1  0  0  0
 85 88  1  0  0  0
 86172  1  0  0  0
 86173  1  0  0  0
 87 88  1  0  0  0
 87 90  1  0  0  0
 87174  1  0  0  0
 87175  1  0  0  0
 88176  1  0  0  0
 90177  1  0  0  0
M  ISO  4   1 100  68 101  86 101  89 100
M  END
> <chiral flag>
0

> <version>
0

> <s_m_source_file>
/data/baiqing/PycharmProjects/Reinvent-master-3.2/result/LINK_invent/BTK/process_docking_weight1_custom_sum_contain_oxygen_bond_distance_aromatic_linkinvent_7_9_3/rearranged_h_0126.sdf

> <i_m_source_file_index>
28

> <r_mmod_Potential_Energy-OPLS-2005>
522.28369140625

> <r_mmod_Stretch_Energy-OPLS-2005>
75.5397415161133

> <r_mmod_Bend_Energy-OPLS-2005>
217.421600341797

> <r_mmod_Torsional_Energy-OPLS-2005>
441.228179931641

> <r_mmod_Improper_Torsional_Energy-OPLS-2005>
19.7156829833984

> <r_mmod_Van_der_Waal_Energy-OPLS-2005>
175.34831237793

> <r_mmod_Electrostatic_Energy-OPLS-2005>
-335.04150390625

> <r_mmod_Solvation_Energy-OPLS-2005>
-179.090682983398

> <b_mmod_Minimization_Converged-OPLS-2005>
0

> <r_mmod_RMS_Derivative-OPLS-2005>
5.25794363021851

$$$$
28
                    3D
 Structure written by MMmdl.
179188  0  0  1  0            999 V2000
  -30.7376  -14.3753   20.6576 C   0  0  0  0  0  0
  -30.4230  -12.2798   19.3955 C   0  0  0  0  0  0
  -29.4901  -12.5264   18.1936 C   0  0  0  0  0  0
  -28.0106  -12.3868   18.6049 C   0  0  0  0  0  0
  -27.6681  -13.1985   19.8823 C   0  0  2  0  0  0
  -28.7054  -12.9177   20.9927 C   0  0  0  0  0  0
  -25.2603  -13.8137   20.5667 C   0  0  0  0  0  0
  -24.1846  -13.0421   20.9172 C   0  0  0  0  0  0
  -24.6390  -11.6888   20.8723 C   0  0  0  0  0  0
  -23.9054  -10.4283   21.0402 C   0  0  0  0  0  0
  -24.3607   -9.4202   21.9182 C   0  0  0  0  0  0
  -23.6282   -8.2237   22.0755 C   0  0  0  0  0  0
  -22.4262   -8.0276   21.3547 C   0  0  0  0  0  0
  -21.9900   -9.0248   20.4649 C   0  0  0  0  0  0
  -22.7225  -10.2126   20.3056 C   0  0  0  0  0  0
  -21.6846   -6.0734   22.5284 C   0  0  0  0  0  0
  -21.4011   -6.5639   23.8217 C   0  0  0  0  0  0
  -21.3660   -5.6793   24.9181 C   0  0  0  0  0  0
  -21.6046   -4.3057   24.7233 C   0  0  0  0  0  0
  -21.8816   -3.8146   23.4354 C   0  0  0  0  0  0
  -21.9188   -4.6964   22.3409 C   0  0  0  0  0  0
  -22.7873  -13.5235   21.1842 C   0  0  0  0  0  0
  -22.1652   -4.2149   21.0987 F   0  0  0  0  0  0
  -21.5634   -3.4539   25.7747 F   0  0  0  0  0  0
  -30.0500  -13.2195   20.4627 N   0  0  0  0  0  0
  -26.3043  -12.9297   20.3370 N   0  0  0  0  0  0
  -25.9311  -11.6462   20.5740 N   0  0  0  0  0  0
  -22.0503  -12.8238   22.0407 N   0  0  0  0  0  0
  -25.4316  -15.1849   20.4069 N   0  0  0  0  0  0
  -31.7981  -14.6346   20.0764 O   0  0  0  0  0  0
  -21.6628   -6.8873   21.4242 O   0  0  0  0  0  0
  -22.3562  -14.5540   20.6692 O   0  0  0  0  0  0
  -24.6113  -31.8704   23.2118 C   0  0  0  0  0  0
  -25.9026  -32.4835   23.8389 C   0  0  1  0  0  0
  -27.2447  -27.4717   20.0790 C   0  0  0  0  0  0
  -25.5902  -33.8633   24.2322 N   0  0  0  0  0  0
  -23.3963  -30.4947   21.5516 C   0  0  2  0  0  0
  -24.8421  -28.9643   20.1159 C   0  0  0  0  0  0
  -22.7384  -29.4673   22.4997 C   0  0  0  0  0  0
  -18.0294  -28.1375   22.8499 C   0  0  0  0  0  0
  -24.1495  -36.7318   23.2633 C   0  0  0  0  0  0
  -25.9216  -30.8462   21.3594 C   0  0  0  0  0  0
  -25.9992  -29.4833   20.7072 C   0  0  0  0  0  0
  -27.1986  -28.7427   20.6902 C   0  0  0  0  0  0
  -26.0641  -26.9619   19.4820 C   0  0  0  0  0  0
  -24.8669  -27.6994   19.5056 C   0  0  0  0  0  0
  -23.6024  -29.8254   20.1666 C   0  0  0  0  0  0
  -25.4122  -36.3120   24.0329 C   0  0  1  0  0  0
  -20.5877  -28.3640   23.1331 C   0  0  2  0  0  0
  -20.6794  -26.9385   22.5407 C   0  0  0  0  0  0
  -19.5768  -26.6390   21.5212 C   0  0  0  0  0  0
  -18.1944  -26.7933   22.1615 C   0  0  0  0  0  0
  -19.1540  -28.8825   23.2928 C   0  0  0  0  0  0
  -18.9471  -30.1441   23.8929 C   0  0  0  0  0  0
  -17.6468  -30.6578   24.0583 C   0  0  0  0  0  0
  -25.9041  -34.9487   23.5122 C   0  0  0  0  0  0
  -16.5361  -29.9080   23.6334 C   0  0  0  0  0  0
  -16.7281  -28.6507   23.0334 C   0  0  0  0  0  0
  -26.4462  -31.6603   25.0701 C   0  0  0  0  0  0
  -25.3740  -31.3691   26.1452 C   0  0  0  0  0  0
  -27.0273  -30.3052   24.6053 C   0  0  0  0  0  0
  -27.6059  -32.4298   25.7453 C   0  0  0  0  0  0
  -27.5592  -37.1818   24.8464 C   0  0  0  0  0  0
  -21.4115  -29.3025   22.3741 N   0  0  0  0  0  0
  -26.4309  -37.3805   23.9398 N   0  0  0  0  0  0
  -24.6612  -31.0839   22.0994 N   0  0  0  0  0  0
  -23.4184  -28.8222   23.3021 O   0  0  0  0  0  0
  -28.4479  -26.7955   20.0975 O   0  0  0  0  0  0
  -26.5596  -34.8933   22.4678 O   0  0  0  0  0  0
  -23.5322  -32.1426   23.7549 O   0  0  0  0  0  0
  -30.2195  -19.3720   21.1812 C   0  0  0  0  0  0
  -29.1213  -17.2508   20.8353 C   0  0  0  0  0  0
  -29.1209  -18.6457   20.6884 C   0  0  0  0  0  0
  -31.2701  -18.6685   21.7928 C   0  0  0  0  0  0
  -30.2292  -16.6155   21.4262 C   0  0  0  0  0  0
  -23.7529  -20.9494   20.4377 C   0  0  0  0  0  0
  -25.0794  -20.3045   20.8698 C   0  0  0  0  0  0
  -24.9064  -23.1940   20.2757 C   0  0  0  0  0  0
  -23.6823  -22.4399   20.8346 C   0  0  1  0  0  0
  -26.2843  -21.0702   20.2905 C   0  0  1  0  0  0
  -26.2389  -22.5477   20.7198 C   0  0  1  0  0  0
  -32.4702  -19.3956   22.3604 C   0  0  0  0  0  0
  -21.1193  -22.5700   21.0863 C   0  0  0  0  0  0
  -27.9519  -19.3432   20.0264 C   0  0  0  0  0  0
  -22.3694  -23.1126   20.3806 C   0  0  0  0  0  0
  -27.7880  -24.5164   20.7224 C   0  0  0  0  0  0
  -28.4906  -25.4277   19.6949 C   0  0  0  0  0  0
  -31.2757  -17.3225   21.9131 N   0  0  0  0  0  0
  -30.1627  -15.2162   21.5262 N   0  0  0  0  0  0
  -27.5424  -20.5180   20.7812 N   0  0  0  0  0  0
  -27.4076  -23.2175   20.1207 N   0  3  0  0  0  0
  -31.4669  -12.3830   19.0925 H   0  0  0  0  0  0
  -30.3210  -11.2536   19.7517 H   0  0  0  0  0  0
  -29.7210  -11.8282   17.3881 H   0  0  0  0  0  0
  -29.6671  -13.5248   17.7906 H   0  0  0  0  0  0
  -27.8088  -11.3278   18.7724 H   0  0  0  0  0  0
  -27.3619  -12.6916   17.7828 H   0  0  0  0  0  0
  -27.7310  -14.2552   19.6220 H   0  0  0  0  0  0
  -28.6655  -11.8653   21.2791 H   0  0  0  0  0  0
  -28.4541  -13.4638   21.9025 H   0  0  0  0  0  0
  -25.2756   -9.5673   22.4751 H   0  0  0  0  0  0
  -23.9993   -7.4628   22.7469 H   0  0  0  0  0  0
  -21.0833   -8.8761   19.8956 H   0  0  0  0  0  0
  -22.3683  -10.9662   19.6162 H   0  0  0  0  0  0
  -21.1999   -7.6145   23.9720 H   0  0  0  0  0  0
  -21.1487   -6.0527   25.9083 H   0  0  0  0  0  0
  -22.0595   -2.7608   23.2859 H   0  0  0  0  0  0
  -22.4085  -11.9885   22.4796 H   0  0  0  0  0  0
  -21.1124  -13.1279   22.2598 H   0  0  0  0  0  0
  -24.6616  -15.8367   20.5119 H   0  0  0  0  0  0
  -26.2758  -15.6200   20.0603 H   0  0  0  0  0  0
  -26.7094  -32.5550   23.1151 H   0  0  0  0  0  0
  -25.0055  -33.9802   25.0469 H   0  0  0  0  0  0
  -22.6833  -31.3104   21.4133 H   0  0  0  0  0  0
  -23.3755  -35.9651   23.3309 H   0  0  0  0  0  0
  -24.3587  -36.8923   22.2043 H   0  0  0  0  0  0
  -23.7250  -37.6533   23.6631 H   0  0  0  0  0  0
  -26.0330  -31.6159   20.5941 H   0  0  0  0  0  0
  -26.8095  -30.8969   21.9768 H   0  0  0  0  0  0
  -28.0921  -29.1484   21.1441 H   0  0  0  0  0  0
  -26.0395  -26.0017   18.9901 H   0  0  0  0  0  0
  -23.9755  -27.2929   19.0478 H   0  0  0  0  0  0
  -23.7040  -30.5978   19.4037 H   0  0  0  0  0  0
  -22.7281  -29.2410   19.8744 H   0  0  0  0  0  0
  -25.1309  -36.1980   25.0824 H   0  0  0  0  0  0
  -20.9991  -28.3185   24.1440 H   0  0  0  0  0  0
  -20.5740  -26.2219   23.3566 H   0  0  0  0  0  0
  -21.6657  -26.7460   22.1153 H   0  0  0  0  0  0
  -19.6929  -25.6314   21.1222 H   0  0  0  0  0  0
  -19.6714  -27.3225   20.6764 H   0  0  0  0  0  0
  -17.4231  -26.6703   21.3997 H   0  0  0  0  0  0
  -18.0320  -26.0069   22.8997 H   0  0  0  0  0  0
  -19.7944  -30.7269   24.2288 H   0  0  0  0  0  0
  -17.5023  -31.6255   24.5191 H   0  0  0  0  0  0
  -15.5367  -30.2978   23.7664 H   0  0  0  0  0  0
  -15.8691  -28.0847   22.6989 H   0  0  0  0  0  0
  -24.5920  -30.7034   25.7775 H   0  0  0  0  0  0
  -24.8919  -32.2836   26.4918 H   0  0  0  0  0  0
  -25.8113  -30.8839   27.0186 H   0  0  0  0  0  0
  -26.2789  -29.6824   24.1135 H   0  0  0  0  0  0
  -27.4072  -29.7290   25.4497 H   0  0  0  0  0  0
  -27.8618  -30.4372   23.9163 H   0  0  0  0  0  0
  -27.2707  -33.3586   26.2075 H   0  0  0  0  0  0
  -28.3849  -32.6872   25.0265 H   0  0  0  0  0  0
  -28.0734  -31.8375   26.5325 H   0  0  0  0  0  0
  -28.2628  -38.0102   24.7526 H   0  0  0  0  0  0
  -28.1078  -36.2641   24.6288 H   0  0  0  0  0  0
  -27.2299  -37.1469   25.8865 H   0  0  0  0  0  0
  -20.9238  -29.8719   21.6965 H   0  0  0  0  0  0
  -26.0201  -38.2885   24.1396 H   0  0  0  0  0  0
  -30.2484  -20.4496   21.0916 H   0  0  0  0  0  0
  -28.2835  -16.6736   20.4706 H   0  0  0  0  0  0
  -22.9322  -20.3941   20.8914 H   0  0  0  0  0  0
  -23.6330  -20.8418   19.3583 H   0  0  0  0  0  0
  -25.0864  -19.2626   20.5495 H   0  0  0  0  0  0
  -25.1325  -20.2905   21.9591 H   0  0  0  0  0  0
  -24.8627  -24.2313   20.6067 H   0  0  0  0  0  0
  -24.8499  -23.2183   19.1867 H   0  0  0  0  0  0
  -23.7265  -22.5008   21.9234 H   0  0  0  0  0  0
  -26.2561  -21.0179   19.1992 H   0  0  0  0  0  0
  -26.3202  -22.6059   21.8079 H   0  0  0  0  0  0
  -32.4458  -20.4561   22.1098 H   0  0  0  0  0  0
  -33.3957  -18.9769   21.9650 H   0  0  0  0  0  0
  -32.4869  -19.3061   23.4465 H   0  0  0  0  0  0
  -20.2355  -23.1384   20.7957 H   0  0  0  0  0  0
  -21.2149  -22.6403   22.1700 H   0  0  0  0  0  0
  -20.9301  -21.5272   20.8319 H   0  0  0  0  0  0
  -27.1273  -18.6336   19.9485 H   0  0  0  0  0  0
  -28.2267  -19.6206   19.0071 H   0  0  0  0  0  0
  -22.2474  -23.0158   19.3003 H   0  0  0  0  0  0
  -22.4272  -24.1847   20.5794 H   0  0  0  0  0  0
  -26.9020  -25.0075   21.1200 H   0  0  0  0  0  0
  -28.4348  -24.3489   21.5850 H   0  0  0  0  0  0
  -28.0817  -25.3188   18.6896 H   0  0  0  0  0  0
  -29.5367  -25.1315   19.6139 H   0  0  0  0  0  0
  -29.3182  -14.8517   21.9352 H   0  0  0  0  0  0
  -27.4730  -20.2488   21.7582 H   0  0  0  0  0  0
  -27.2548  -23.3023   19.1290 H   0  0  0  0  0  0
  -28.1559  -22.5470   20.2479 H   0  0  0  0  0  0
  1 25  1  0  0  0
  1 30  2  0  0  0
  1 89  1  0  0  0
  2  3  1  0  0  0
  2 25  1  0  0  0
  2 92  1  0  0  0
  2 93  1  0  0  0
  3  4  1  0  0  0
  3 94  1  0  0  0
  3 95  1  0  0  0
  4  5  1  0  0  0
  4 96  1  0  0  0
  4 97  1  0  0  0
  5  6  1  0  0  0
  5 26  1  0  0  0
  5 98  1  0  0  0
  6 25  1  0  0  0
  6 99  1  0  0  0
  6100  1  0  0  0
  7  8  2  0  0  0
  7 26  1  0  0  0
  7 29  1  0  0  0
  8  9  1  0  0  0
  8 22  1  0  0  0
  9 10  1  0  0  0
  9 27  2  0  0  0
 10 11  2  0  0  0
 10 15  1  0  0  0
 11 12  1  0  0  0
 11101  1  0  0  0
 12 13  2  0  0  0
 12102  1  0  0  0
 13 14  1  0  0  0
 13 31  1  0  0  0
 14 15  2  0  0  0
 14103  1  0  0  0
 15104  1  0  0  0
 16 17  2  0  0  0
 16 21  1  0  0  0
 16 31  1  0  0  0
 17 18  1  0  0  0
 17105  1  0  0  0
 18 19  2  0  0  0
 18106  1  0  0  0
 19 20  1  0  0  0
 19 24  1  0  0  0
 20 21  2  0  0  0
 20107  1  0  0  0
 21 23  1  0  0  0
 22 28  1  0  0  0
 22 32  2  0  0  0
 26 27  1  0  0  0
 28108  1  0  0  0
 28109  1  0  0  0
 29110  1  0  0  0
 29111  1  0  0  0
 33 34  1  0  0  0
 33 66  1  0  0  0
 33 70  2  0  0  0
 34 36  1  0  0  0
 34 59  1  0  0  0
 34112  1  0  0  0
 35 44  2  0  0  0
 35 45  1  0  0  0
 35 68  1  0  0  0
 36 56  1  0  0  0
 36113  1  0  0  0
 37 39  1  0  0  0
 37 47  1  0  0  0
 37 66  1  0  0  0
 37114  1  0  0  0
 38 43  2  0  0  0
 38 46  1  0  0  0
 38 47  1  0  0  0
 39 64  1  0  0  0
 39 67  2  0  0  0
 40 52  1  0  0  0
 40 53  2  0  0  0
 40 58  1  0  0  0
 41115  1  0  0  0
 41116  1  0  0  0
 41117  1  0  0  0
 41 48  1  0  0  0
 42 43  1  0  0  0
 42 66  1  0  0  0
 42118  1  0  0  0
 42119  1  0  0  0
 43 44  1  0  0  0
 44120  1  0  0  0
 45 46  2  0  0  0
 45121  1  0  0  0
 46122  1  0  0  0
 47123  1  0  0  0
 47124  1  0  0  0
 48 56  1  0  0  0
 48 65  1  0  0  0
 48125  1  0  0  0
 49 50  1  0  0  0
 49 53  1  0  0  0
 49 64  1  0  0  0
 49126  1  0  0  0
 50 51  1  0  0  0
 50127  1  0  0  0
 50128  1  0  0  0
 51 52  1  0  0  0
 51129  1  0  0  0
 51130  1  0  0  0
 52131  1  0  0  0
 52132  1  0  0  0
 53 54  1  0  0  0
 54 55  2  0  0  0
 54133  1  0  0  0
 55 57  1  0  0  0
 55134  1  0  0  0
 56 69  2  0  0  0
 57 58  2  0  0  0
 57135  1  0  0  0
 58136  1  0  0  0
 59 60  1  0  0  0
 59 61  1  0  0  0
 59 62  1  0  0  0
 60137  1  0  0  0
 60138  1  0  0  0
 60139  1  0  0  0
 61140  1  0  0  0
 61141  1  0  0  0
 61142  1  0  0  0
 62143  1  0  0  0
 62144  1  0  0  0
 62145  1  0  0  0
 63 65  1  0  0  0
 63146  1  0  0  0
 63147  1  0  0  0
 63148  1  0  0  0
 64149  1  0  0  0
 65150  1  0  0  0
 68 87  1  0  0  0
 71 73  2  0  0  0
 71 74  1  0  0  0
 71151  1  0  0  0
 72 73  1  0  0  0
 72 75  2  0  0  0
 72152  1  0  0  0
 73 84  1  0  0  0
 74 82  1  0  0  0
 74 88  2  0  0  0
 75 88  1  0  0  0
 75 89  1  0  0  0
 76 77  1  0  0  0
 76 79  1  0  0  0
 76153  1  0  0  0
 76154  1  0  0  0
 77 80  1  0  0  0
 77155  1  0  0  0
 77156  1  0  0  0
 78 79  1  0  0  0
 78 81  1  0  0  0
 78157  1  0  0  0
 78158  1  0  0  0
 79 85  1  0  0  0
 79159  1  0  0  0
 80 81  1  0  0  0
 80 90  1  0  0  0
 80160  1  0  0  0
 81 91  1  0  0  0
 81161  1  0  0  0
 82162  1  0  0  0
 82163  1  0  0  0
 82164  1  0  0  0
 83 85  1  0  0  0
 83165  1  0  0  0
 83166  1  0  0  0
 83167  1  0  0  0
 84 90  1  0  0  0
 84168  1  0  0  0
 84169  1  0  0  0
 85170  1  0  0  0
 85171  1  0  0  0
 86 87  1  0  0  0
 86 91  1  0  0  0
 86172  1  0  0  0
 86173  1  0  0  0
 87174  1  0  0  0
 87175  1  0  0  0
 89176  1  0  0  0
 90177  1  0  0  0
 91178  1  0  0  0
 91179  1  0  0  0
M  CHG  1  91   1
M  ISO  4   1 100  68 101  87 101  89 100
M  END
> <chiral flag>
0

> <version>
0

> <s_m_source_file>
/data/baiqing/PycharmProjects/Reinvent-master-3.2/result/LINK_invent/BTK/process_docking_weight1_custom_sum_contain_oxygen_bond_distance_aromatic_linkinvent_7_9_3/rearranged_h_0126.sdf

> <i_m_source_file_index>
29

> <r_mmod_Potential_Energy-OPLS-2005>
-391.779663085938

> <r_mmod_Stretch_Energy-OPLS-2005>
32.7941055297852

> <r_mmod_Bend_Energy-OPLS-2005>
103.080261230469

> <r_mmod_Torsional_Energy-OPLS-2005>
256.537811279297

> <r_mmod_Improper_Torsional_Energy-OPLS-2005>
4.29391002655029

> <r_mmod_Van_der_Waal_Energy-OPLS-2005>
159.064178466797

> <r_mmod_Electrostatic_Energy-OPLS-2005>
-498.045349121094

> <r_mmod_Solvation_Energy-OPLS-2005>
-457.520629882812

> <b_mmod_Minimization_Converged-OPLS-2005>
0

> <r_mmod_RMS_Derivative-OPLS-2005>
1.25541424751282

$$$$
29
                    3D
 Structure written by MMmdl.
169178  0  0  1  0            999 V2000
  -30.6939  -14.4113   20.5645 C   0  0  0  0  0  0
  -30.4297  -12.2688   19.4048 C   0  0  0  0  0  0
  -29.4943  -12.4905   18.1968 C   0  0  0  0  0  0
  -28.0122  -12.3671   18.6081 C   0  0  0  0  0  0
  -27.6658  -13.1895   19.8780 C   0  0  2  0  0  0
  -28.7083  -12.9334   20.9934 C   0  0  0  0  0  0
  -25.2599  -13.8113   20.5654 C   0  0  0  0  0  0
  -24.1829  -13.0425   20.9173 C   0  0  0  0  0  0
  -24.6361  -11.6888   20.8732 C   0  0  0  0  0  0
  -23.9018  -10.4280   21.0403 C   0  0  0  0  0  0
  -24.3579   -9.4202   21.9181 C   0  0  0  0  0  0
  -23.6268   -8.2233   22.0738 C   0  0  0  0  0  0
  -22.4249   -8.0264   21.3534 C   0  0  0  0  0  0
  -21.9882   -9.0233   20.4639 C   0  0  0  0  0  0
  -22.7197  -10.2122   20.3050 C   0  0  0  0  0  0
  -21.6850   -6.0725   22.5279 C   0  0  0  0  0  0
  -21.4008   -6.5622   23.8210 C   0  0  0  0  0  0
  -21.3660   -5.6775   24.9171 C   0  0  0  0  0  0
  -21.6045   -4.3043   24.7224 C   0  0  0  0  0  0
  -21.8817   -3.8131   23.4345 C   0  0  0  0  0  0
  -21.9193   -4.6949   22.3404 C   0  0  0  0  0  0
  -22.7856  -13.5261   21.1836 C   0  0  0  0  0  0
  -22.1660   -4.2138   21.0985 F   0  0  0  0  0  0
  -21.5636   -3.4526   25.7737 F   0  0  0  0  0  0
  -30.0448  -13.2287   20.4435 N   0  0  0  0  0  0
  -26.3028  -12.9255   20.3360 N   0  0  0  0  0  0
  -25.9276  -11.6440   20.5736 N   0  0  0  0  0  0
  -22.0474  -12.8270   22.0387 N   0  0  0  0  0  0
  -25.4348  -15.1830   20.4046 N   0  0  0  0  0  0
  -31.8208  -14.6390   20.1157 O   0  0  0  0  0  0
  -21.6617   -6.8862   21.4241 O   0  0  0  0  0  0
  -22.3570  -14.5593   20.6707 O   0  0  0  0  0  0
  -24.6067  -31.8725   23.2149 C   0  0  0  0  0  0
  -25.8981  -32.4846   23.8429 C   0  0  1  0  0  0
  -27.2673  -27.4993   20.0895 C   0  0  0  0  0  0
  -25.5860  -33.8644   24.2348 N   0  0  0  0  0  0
  -23.3931  -30.4938   21.5527 C   0  0  2  0  0  0
  -24.8472  -28.9618   20.1217 C   0  0  0  0  0  0
  -22.7366  -29.4674   22.5020 C   0  0  0  0  0  0
  -18.0263  -28.1375   22.8499 C   0  0  0  0  0  0
  -24.1476  -36.7327   23.2645 C   0  0  0  0  0  0
  -25.9130  -30.8546   21.3623 C   0  0  0  0  0  0
  -25.9963  -29.4883   20.7207 C   0  0  0  0  0  0
  -27.2019  -28.7626   20.7191 C   0  0  0  0  0  0
  -26.0981  -26.9709   19.5015 C   0  0  0  0  0  0
  -24.8877  -27.6929   19.5159 C   0  0  0  0  0  0
  -23.6026  -29.8197   20.1685 C   0  0  0  0  0  0
  -25.4095  -36.3121   24.0346 C   0  0  1  0  0  0
  -20.5847  -28.3650   23.1345 C   0  0  2  0  0  0
  -20.6743  -26.9388   22.5438 C   0  0  0  0  0  0
  -19.5732  -26.6386   21.5217 C   0  0  0  0  0  0
  -18.1908  -26.7929   22.1618 C   0  0  0  0  0  0
  -19.1511  -28.8827   23.2922 C   0  0  0  0  0  0
  -18.9446  -30.1437   23.8926 C   0  0  0  0  0  0
  -17.6450  -30.6584   24.0577 C   0  0  0  0  0  0
  -25.9020  -34.9489   23.5141 C   0  0  0  0  0  0
  -16.5341  -29.9089   23.6328 C   0  0  0  0  0  0
  -16.7255  -28.6507   23.0343 C   0  0  0  0  0  0
  -26.4464  -31.6616   25.0728 C   0  0  0  0  0  0
  -25.3769  -31.3703   26.1507 C   0  0  0  0  0  0
  -27.0324  -30.3077   24.6068 C   0  0  0  0  0  0
  -27.6044  -32.4360   25.7458 C   0  0  0  0  0  0
  -27.5581  -37.1808   24.8463 C   0  0  0  0  0  0
  -21.4098  -29.3020   22.3750 N   0  0  0  0  0  0
  -26.4283  -37.3797   23.9417 N   0  0  0  0  0  0
  -24.6542  -31.0874   22.1021 N   0  0  0  0  0  0
  -23.4158  -28.8231   23.3057 O   0  0  0  0  0  0
  -28.4164  -26.7483   19.9852 O   0  0  0  0  0  0
  -26.5589  -34.8934   22.4706 O   0  0  0  0  0  0
  -23.5271  -32.1457   23.7576 O   0  0  0  0  0  0
  -30.8568  -24.1364   21.1859 C   0  0  0  0  0  0
  -30.4633  -22.7873   21.1849 C   0  0  0  0  0  0
  -29.8290  -24.3315   19.0023 C   0  0  0  0  0  0
  -30.5177  -24.9275   20.0735 C   0  0  0  0  0  0
  -29.7496  -22.2937   20.0786 C   0  0  0  0  0  0
  -31.0697  -18.6649   17.0336 C   0  0  0  0  0  0
  -31.6962  -17.3019   17.3847 C   0  0  0  0  0  0
  -30.2386  -18.8882   19.2797 C   0  0  1  0  0  0
  -30.8614  -17.5212   19.6859 C   0  0  1  0  0  0
  -30.8146  -26.4138   20.0388 C   0  0  0  0  0  0
  -30.1502  -19.9164   20.4217 C   0  0  0  0  0  0
  -30.0879  -16.8710   20.8817 C   0  0  0  0  0  0
  -29.6300  -27.2499   20.5500 C   0  0  0  0  0  0
  -29.4480  -23.0388   19.0054 N   0  0  0  0  0  0
  -31.0380  -19.5160   18.2236 N   0  0  0  0  0  0
  -29.2585  -20.9962   20.0252 N   0  0  0  0  0  0
  -29.8848  -15.4170   20.9105 N   0  0  0  0  0  0
  -30.9323  -16.6673   18.4782 N   0  3  0  0  0  0
  -31.4714  -12.3803   19.0973 H   0  0  0  0  0  0
  -30.3385  -11.2494   19.7855 H   0  0  0  0  0  0
  -29.7218  -11.7694   17.4103 H   0  0  0  0  0  0
  -29.6730  -13.4758   17.7646 H   0  0  0  0  0  0
  -27.8029  -11.3110   18.7844 H   0  0  0  0  0  0
  -27.3699  -12.6684   17.7797 H   0  0  0  0  0  0
  -27.7201  -14.2404   19.5962 H   0  0  0  0  0  0
  -28.6696  -11.8892   21.3111 H   0  0  0  0  0  0
  -28.4804  -13.5150   21.8883 H   0  0  0  0  0  0
  -25.2719   -9.5696   22.4754 H   0  0  0  0  0  0
  -23.9989   -7.4622   22.7441 H   0  0  0  0  0  0
  -21.0816   -8.8742   19.8943 H   0  0  0  0  0  0
  -22.3641  -10.9652   19.6157 H   0  0  0  0  0  0
  -21.1987   -7.6123   23.9715 H   0  0  0  0  0  0
  -21.1493   -6.0499   25.9079 H   0  0  0  0  0  0
  -22.0603   -2.7596   23.2842 H   0  0  0  0  0  0
  -22.4058  -11.9926   22.4786 H   0  0  0  0  0  0
  -21.1093  -13.1315   22.2569 H   0  0  0  0  0  0
  -24.6700  -15.8398   20.5092 H   0  0  0  0  0  0
  -26.2810  -15.6185   20.0624 H   0  0  0  0  0  0
  -26.7050  -32.5604   23.1206 H   0  0  0  0  0  0
  -24.9993  -33.9818   25.0479 H   0  0  0  0  0  0
  -22.6782  -31.3078   21.4119 H   0  0  0  0  0  0
  -23.3727  -35.9673   23.3324 H   0  0  0  0  0  0
  -24.3571  -36.8927   22.2057 H   0  0  0  0  0  0
  -23.7244  -37.6541   23.6656 H   0  0  0  0  0  0
  -26.0146  -31.6178   20.5901 H   0  0  0  0  0  0
  -26.8035  -30.9166   21.9746 H   0  0  0  0  0  0
  -28.0677  -29.1995   21.1932 H   0  0  0  0  0  0
  -26.1328  -26.0049   19.0190 H   0  0  0  0  0  0
  -24.0036  -27.2763   19.0519 H   0  0  0  0  0  0
  -23.7032  -30.5925   19.4052 H   0  0  0  0  0  0
  -22.7310  -29.2319   19.8775 H   0  0  0  0  0  0
  -25.1261  -36.1984   25.0837 H   0  0  0  0  0  0
  -20.9945  -28.3217   24.1464 H   0  0  0  0  0  0
  -20.5624  -26.2258   23.3619 H   0  0  0  0  0  0
  -21.6621  -26.7425   22.1249 H   0  0  0  0  0  0
  -19.6891  -25.6299   21.1237 H   0  0  0  0  0  0
  -19.6680  -27.3210   20.6757 H   0  0  0  0  0  0
  -17.4180  -26.6701   21.4013 H   0  0  0  0  0  0
  -18.0297  -26.0052   22.8993 H   0  0  0  0  0  0
  -19.7924  -30.7246   24.2305 H   0  0  0  0  0  0
  -17.5011  -31.6264   24.5178 H   0  0  0  0  0  0
  -15.5346  -30.3002   23.7632 H   0  0  0  0  0  0
  -15.8655  -28.0842   22.7033 H   0  0  0  0  0  0
  -24.5886  -30.7112   25.7855 H   0  0  0  0  0  0
  -24.9028  -32.2864   26.5041 H   0  0  0  0  0  0
  -25.8148  -30.8804   27.0212 H   0  0  0  0  0  0
  -26.2854  -29.6781   24.1216 H   0  0  0  0  0  0
  -27.4236  -29.7358   25.4493 H   0  0  0  0  0  0
  -27.8618  -30.4433   23.9121 H   0  0  0  0  0  0
  -27.2638  -33.3622   26.2102 H   0  0  0  0  0  0
  -28.3781  -32.7000   25.0236 H   0  0  0  0  0  0
  -28.0804  -31.8473   26.5309 H   0  0  0  0  0  0
  -28.2592  -38.0108   24.7502 H   0  0  0  0  0  0
  -28.1070  -36.2639   24.6264 H   0  0  0  0  0  0
  -27.2317  -37.1442   25.8870 H   0  0  0  0  0  0
  -20.9244  -29.8744   21.6983 H   0  0  0  0  0  0
  -26.0175  -38.2875   24.1412 H   0  0  0  0  0  0
  -31.3784  -24.5576   22.0336 H   0  0  0  0  0  0
  -30.6804  -22.1636   22.0413 H   0  0  0  0  0  0
  -29.5462  -24.9097   18.1342 H   0  0  0  0  0  0
  -30.0649  -18.5426   16.6237 H   0  0  0  0  0  0
  -31.6655  -19.1502   16.2583 H   0  0  0  0  0  0
  -32.7381  -17.4278   17.6848 H   0  0  0  0  0  0
  -31.7003  -16.6475   16.5116 H   0  0  0  0  0  0
  -29.2280  -18.7003   18.9091 H   0  0  0  0  0  0
  -31.8899  -17.6834   20.0179 H   0  0  0  0  0  0
  -31.0421  -26.6991   19.0107 H   0  0  0  0  0  0
  -31.7115  -26.6327   20.6194 H   0  0  0  0  0  0
  -31.1470  -20.2724   20.6893 H   0  0  0  0  0  0
  -29.7281  -19.4697   21.3219 H   0  0  0  0  0  0
  -29.0783  -17.2846   20.9091 H   0  0  0  0  0  0
  -30.5486  -17.1752   21.8222 H   0  0  0  0  0  0
  -29.8106  -28.2906   20.2813 H   0  0  0  0  0  0
  -29.5678  -27.1857   21.6374 H   0  0  0  0  0  0
  -30.6270  -20.4183   17.9950 H   0  0  0  0  0  0
  -28.7038  -20.8051   19.1999 H   0  0  0  0  0  0
  -28.9679  -15.1187   21.2117 H   0  0  0  0  0  0
  -31.3937  -15.8077   18.7590 H   0  0  0  0  0  0
  -30.0044  -16.4607   18.1501 H   0  0  0  0  0  0
  1 25  1  0  0  0
  1 30  2  0  0  0
  1 87  1  0  0  0
  2  3  1  0  0  0
  2 25  1  0  0  0
  2 89  1  0  0  0
  2 90  1  0  0  0
  3  4  1  0  0  0
  3 91  1  0  0  0
  3 92  1  0  0  0
  4  5  1  0  0  0
  4 93  1  0  0  0
  4 94  1  0  0  0
  5  6  1  0  0  0
  5 26  1  0  0  0
  5 95  1  0  0  0
  6 25  1  0  0  0
  6 96  1  0  0  0
  6 97  1  0  0  0
  7  8  2  0  0  0
  7 26  1  0  0  0
  7 29  1  0  0  0
  8  9  1  0  0  0
  8 22  1  0  0  0
  9 10  1  0  0  0
  9 27  2  0  0  0
 10 11  2  0  0  0
 10 15  1  0  0  0
 11 12  1  0  0  0
 11 98  1  0  0  0
 12 13  2  0  0  0
 12 99  1  0  0  0
 13 14  1  0  0  0
 13 31  1  0  0  0
 14 15  2  0  0  0
 14100  1  0  0  0
 15101  1  0  0  0
 16 17  2  0  0  0
 16 21  1  0  0  0
 16 31  1  0  0  0
 17 18  1  0  0  0
 17102  1  0  0  0
 18 19  2  0  0  0
 18103  1  0  0  0
 19 20  1  0  0  0
 19 24  1  0  0  0
 20 21  2  0  0  0
 20104  1  0  0  0
 21 23  1  0  0  0
 22 28  1  0  0  0
 22 32  2  0  0  0
 26 27  1  0  0  0
 28105  1  0  0  0
 28106  1  0  0  0
 29107  1  0  0  0
 29108  1  0  0  0
 33 34  1  0  0  0
 33 66  1  0  0  0
 33 70  2  0  0  0
 34 36  1  0  0  0
 34 59  1  0  0  0
 34109  1  0  0  0
 35 44  2  0  0  0
 35 45  1  0  0  0
 35 68  1  0  0  0
 36 56  1  0  0  0
 36110  1  0  0  0
 37 39  1  0  0  0
 37 47  1  0  0  0
 37 66  1  0  0  0
 37111  1  0  0  0
 38 43  2  0  0  0
 38 46  1  0  0  0
 38 47  1  0  0  0
 39 64  1  0  0  0
 39 67  2  0  0  0
 40 52  1  0  0  0
 40 53  2  0  0  0
 40 58  1  0  0  0
 41112  1  0  0  0
 41113  1  0  0  0
 41114  1  0  0  0
 41 48  1  0  0  0
 42 43  1  0  0  0
 42 66  1  0  0  0
 42115  1  0  0  0
 42116  1  0  0  0
 43 44  1  0  0  0
 44117  1  0  0  0
 45 46  2  0  0  0
 45118  1  0  0  0
 46119  1  0  0  0
 47120  1  0  0  0
 47121  1  0  0  0
 48 56  1  0  0  0
 48 65  1  0  0  0
 48122  1  0  0  0
 49 50  1  0  0  0
 49 53  1  0  0  0
 49 64  1  0  0  0
 49123  1  0  0  0
 50 51  1  0  0  0
 50124  1  0  0  0
 50125  1  0  0  0
 51 52  1  0  0  0
 51126  1  0  0  0
 51127  1  0  0  0
 52128  1  0  0  0
 52129  1  0  0  0
 53 54  1  0  0  0
 54 55  2  0  0  0
 54130  1  0  0  0
 55 57  1  0  0  0
 55131  1  0  0  0
 56 69  2  0  0  0
 57 58  2  0  0  0
 57132  1  0  0  0
 58133  1  0  0  0
 59 60  1  0  0  0
 59 61  1  0  0  0
 59 62  1  0  0  0
 60134  1  0  0  0
 60135  1  0  0  0
 60136  1  0  0  0
 61137  1  0  0  0
 61138  1  0  0  0
 61139  1  0  0  0
 62140  1  0  0  0
 62141  1  0  0  0
 62142  1  0  0  0
 63 65  1  0  0  0
 63143  1  0  0  0
 63144  1  0  0  0
 63145  1  0  0  0
 64146  1  0  0  0
 65147  1  0  0  0
 68 83  1  0  0  0
 71 72  2  0  0  0
 71 74  1  0  0  0
 71148  1  0  0  0
 72 75  1  0  0  0
 72149  1  0  0  0
 73 74  2  0  0  0
 73 84  1  0  0  0
 73150  1  0  0  0
 74 80  1  0  0  0
 75 84  2  0  0  0
 75 86  1  0  0  0
 76 77  1  0  0  0
 76 85  1  0  0  0
 76151  1  0  0  0
 76152  1  0  0  0
 77 88  1  0  0  0
 77153  1  0  0  0
 77154  1  0  0  0
 78 79  1  0  0  0
 78 81  1  0  0  0
 78 85  1  0  0  0
 78155  1  0  0  0
 79 82  1  0  0  0
 79 88  1  0  0  0
 79156  1  0  0  0
 80 83  1  0  0  0
 80157  1  0  0  0
 80158  1  0  0  0
 81 86  1  0  0  0
 81159  1  0  0  0
 81160  1  0  0  0
 82 87  1  0  0  0
 82161  1  0  0  0
 82162  1  0  0  0
 83163  1  0  0  0
 83164  1  0  0  0
 85165  1  0  0  0
 86166  1  0  0  0
 87167  1  0  0  0
 88168  1  0  0  0
 88169  1  0  0  0
M  CHG  1  88   1
M  ISO  4   1 100  68 101  83 101  87 100
M  END
> <chiral flag>
0

> <version>
0

> <s_m_source_file>
/data/baiqing/PycharmProjects/Reinvent-master-3.2/result/LINK_invent/BTK/process_docking_weight1_custom_sum_contain_oxygen_bond_distance_aromatic_linkinvent_7_9_3/rearranged_h_0126.sdf

> <i_m_source_file_index>
30

> <r_mmod_Potential_Energy-OPLS-2005>
-486.297302246094

> <r_mmod_Stretch_Energy-OPLS-2005>
33.5066719055176

> <r_mmod_Bend_Energy-OPLS-2005>
115.515815734863

> <r_mmod_Torsional_Energy-OPLS-2005>
258.574005126953

> <r_mmod_Improper_Torsional_Energy-OPLS-2005>
12.3626365661621

> <r_mmod_Van_der_Waal_Energy-OPLS-2005>
183.433181762695

> <r_mmod_Electrostatic_Energy-OPLS-2005>
-638.83935546875

> <r_mmod_Solvation_Energy-OPLS-2005>
-458.943023681641

> <b_mmod_Minimization_Converged-OPLS-2005>
0

> <r_mmod_RMS_Derivative-OPLS-2005>
2.20963978767395

$$$$
30
                    3D
 Structure written by MMmdl.
164173  0  0  1  0            999 V2000
  -30.3813  -15.3540   20.3674 C   0  0  0  0  0  0
  -30.4345  -12.8756   19.5090 C   0  0  0  0  0  0
  -29.5320  -12.5877   18.2820 C   0  0  0  0  0  0
  -28.0845  -12.2958   18.7165 C   0  0  0  0  0  0
  -27.6011  -13.2768   19.8128 C   0  0  2  0  0  0
  -28.6367  -13.4846   20.9357 C   0  0  0  0  0  0
  -25.2360  -13.8231   20.5764 C   0  0  0  0  0  0
  -24.1724  -13.0414   20.9273 C   0  0  0  0  0  0
  -24.6386  -11.6916   20.8769 C   0  0  0  0  0  0
  -23.9083  -10.4281   21.0408 C   0  0  0  0  0  0
  -24.3632   -9.4198   21.9185 C   0  0  0  0  0  0
  -23.6304   -8.2238   22.0753 C   0  0  0  0  0  0
  -22.4285   -8.0286   21.3549 C   0  0  0  0  0  0
  -21.9928   -9.0254   20.4644 C   0  0  0  0  0  0
  -22.7260  -10.2127   20.3049 C   0  0  0  0  0  0
  -21.6860   -6.0743   22.5284 C   0  0  0  0  0  0
  -21.4023   -6.5643   23.8220 C   0  0  0  0  0  0
  -21.3652   -5.6798   24.9180 C   0  0  0  0  0  0
  -21.6035   -4.3061   24.7234 C   0  0  0  0  0  0
  -21.8813   -3.8152   23.4354 C   0  0  0  0  0  0
  -21.9193   -4.6967   22.3411 C   0  0  0  0  0  0
  -22.7743  -13.5171   21.1917 C   0  0  0  0  0  0
  -22.1662   -4.2148   21.0995 F   0  0  0  0  0  0
  -21.5615   -3.4548   25.7746 F   0  0  0  0  0  0
  -29.8402  -14.0309   20.2839 N   0  0  0  0  0  0
  -26.2774  -12.9503   20.3206 N   0  0  0  0  0  0
  -25.9322  -11.6600   20.5716 N   0  0  0  0  0  0
  -22.0408  -12.8160   22.0476 N   0  0  0  0  0  0
  -25.3975  -15.1966   20.4206 N   0  0  0  0  0  0
  -31.6198  -15.3374   20.2554 O   0  0  0  0  0  0
  -21.6642   -6.8888   21.4249 O   0  0  0  0  0  0
  -22.3418  -14.5475   20.6757 O   0  0  0  0  0  0
  -24.6681  -31.8168   23.1613 C   0  0  0  0  0  0
  -25.9339  -32.4545   23.8090 C   0  0  1  0  0  0
  -27.2092  -26.8644   20.2033 C   0  0  0  0  0  0
  -25.5971  -33.8361   24.1983 N   0  0  0  0  0  0
  -23.4839  -30.4277   21.5126 C   0  0  2  0  0  0
  -24.9335  -28.7952   20.1213 C   0  0  0  0  0  0
  -22.7691  -29.4418   22.4741 C   0  0  0  0  0  0
  -18.0335  -28.1416   22.8435 C   0  0  0  0  0  0
  -24.1499  -36.7203   23.2649 C   0  0  0  0  0  0
  -26.0572  -30.6058   21.3987 C   0  0  0  0  0  0
  -26.1220  -29.1864   20.7502 C   0  0  0  0  0  0
  -27.2560  -28.2467   20.7562 C   0  0  0  0  0  0
  -25.9862  -26.6320   19.5350 C   0  0  0  0  0  0
  -24.8929  -27.5389   19.4950 C   0  0  0  0  0  0
  -23.7268  -29.7359   20.1439 C   0  0  0  0  0  0
  -25.4137  -36.2925   24.0287 C   0  0  1  0  0  0
  -20.5958  -28.3758   23.1160 C   0  0  2  0  0  0
  -20.6802  -26.9430   22.5389 C   0  0  0  0  0  0
  -19.5775  -26.6361   21.5208 C   0  0  0  0  0  0
  -18.1961  -26.7931   22.1615 C   0  0  0  0  0  0
  -19.1600  -28.8909   23.2789 C   0  0  0  0  0  0
  -18.9513  -30.1498   23.8829 C   0  0  0  0  0  0
  -17.6505  -30.6595   24.0559 C   0  0  0  0  0  0
  -25.9118  -34.9327   23.4969 C   0  0  0  0  0  0
  -16.5395  -29.9083   23.6355 C   0  0  0  0  0  0
  -16.7321  -28.6517   23.0339 C   0  0  0  0  0  0
  -26.4549  -31.6519   25.0663 C   0  0  0  0  0  0
  -25.3633  -31.3833   26.1298 C   0  0  0  0  0  0
  -27.0437  -30.2853   24.6462 C   0  0  0  0  0  0
  -27.6012  -32.4364   25.7463 C   0  0  0  0  0  0
  -27.5568  -37.1747   24.8457 C   0  0  0  0  0  0
  -21.4358  -29.3052   22.3508 N   0  0  0  0  0  0
  -26.4264  -37.3677   23.9418 N   0  0  0  0  0  0
  -24.7588  -30.9789   22.0775 N   0  0  0  0  0  0
  -23.4233  -28.8000   23.2996 O   0  0  0  0  0  0
  -28.2237  -25.7535   20.1897 O   0  0  0  0  0  0
  -26.5752  -34.8877   22.4580 O   0  0  0  0  0  0
  -23.5743  -32.1157   23.6674 O   0  0  0  0  0  0
  -30.6076  -19.8209   22.2594 C   0  0  0  0  0  0
  -30.4927  -18.5224   21.7069 C   0  0  0  0  0  0
  -29.9601  -20.9817   21.7454 C   0  0  0  0  0  0
  -29.1458  -20.9033   20.5869 C   0  0  0  0  0  0
  -29.6855  -18.2366   20.5941 C   0  0  0  0  0  0
  -29.9346  -23.7676   24.2554 C   0  0  0  0  0  0
  -31.4590  -24.3349   22.3230 C   0  0  0  0  0  0
  -29.9259  -22.3021   23.7872 C   0  0  0  0  0  0
  -31.4311  -22.8564   21.9070 C   0  0  0  0  0  0
  -31.2410  -24.4838   23.8416 C   0  0  0  0  0  0
  -28.6247  -22.4703   19.9117 C   0  0  0  0  0  0
  -28.0963  -24.1155   20.5609 C   0  0  0  0  0  0
  -29.0426  -19.4940   20.0800 N   0  0  0  0  0  0
  -30.1884  -22.2281   22.3488 N   0  0  0  0  0  0
  -29.5854  -16.6313   20.2788 N   0  0  0  0  0  0
  -31.2421  -25.9041   24.2384 N   0  3  0  0  0  0
  -31.4436  -13.1078   19.1673 H   0  0  0  0  0  0
  -30.5358  -11.9879   20.1376 H   0  0  0  0  0  0
  -29.9289  -11.7543   17.7013 H   0  0  0  0  0  0
  -29.5397  -13.4553   17.6204 H   0  0  0  0  0  0
  -28.0530  -11.2765   19.1015 H   0  0  0  0  0  0
  -27.4136  -12.3188   17.8556 H   0  0  0  0  0  0
  -27.5013  -14.2337   19.2986 H   0  0  0  0  0  0
  -28.8363  -12.5570   21.4746 H   0  0  0  0  0  0
  -28.2633  -14.1995   21.6714 H   0  0  0  0  0  0
  -25.2770   -9.5673   22.4770 H   0  0  0  0  0  0
  -24.0004   -7.4625   22.7475 H   0  0  0  0  0  0
  -21.0860   -8.8778   19.8955 H   0  0  0  0  0  0
  -22.3722  -10.9670   19.6160 H   0  0  0  0  0  0
  -21.2034   -7.6157   23.9727 H   0  0  0  0  0  0
  -21.1469   -6.0531   25.9079 H   0  0  0  0  0  0
  -22.0596   -2.7615   23.2863 H   0  0  0  0  0  0
  -22.4047  -11.9827   22.4865 H   0  0  0  0  0  0
  -21.1012  -13.1152   22.2672 H   0  0  0  0  0  0
  -24.6236  -15.8433   20.5275 H   0  0  0  0  0  0
  -26.2377  -15.6433   20.0799 H   0  0  0  0  0  0
  -26.7424  -32.5045   23.0813 H   0  0  0  0  0  0
  -25.0026  -33.9426   25.0060 H   0  0  0  0  0  0
  -22.8002  -31.2621   21.3350 H   0  0  0  0  0  0
  -23.3756  -35.9545   23.3269 H   0  0  0  0  0  0
  -24.3578  -36.8890   22.2076 H   0  0  0  0  0  0
  -23.7278  -37.6385   23.6738 H   0  0  0  0  0  0
  -26.2427  -31.3386   20.6128 H   0  0  0  0  0  0
  -26.9178  -30.6647   22.0539 H   0  0  0  0  0  0
  -28.1641  -28.5546   21.2552 H   0  0  0  0  0  0
  -25.8521  -25.6751   19.0516 H   0  0  0  0  0  0
  -23.9882  -27.2305   18.9885 H   0  0  0  0  0  0
  -23.8933  -30.5001   19.3828 H   0  0  0  0  0  0
  -22.8324  -29.1988   19.8233 H   0  0  0  0  0  0
  -25.1334  -36.1697   25.0775 H   0  0  0  0  0  0
  -21.0054  -28.3370   24.1284 H   0  0  0  0  0  0
  -20.5652  -26.2394   23.3639 H   0  0  0  0  0  0
  -21.6665  -26.7367   22.1221 H   0  0  0  0  0  0
  -19.6939  -25.6260   21.1279 H   0  0  0  0  0  0
  -19.6720  -27.3144   20.6713 H   0  0  0  0  0  0
  -17.4218  -26.6676   21.4029 H   0  0  0  0  0  0
  -18.0364  -26.0095   22.9033 H   0  0  0  0  0  0
  -19.8005  -30.7340   24.2137 H   0  0  0  0  0  0
  -17.5069  -31.6263   24.5187 H   0  0  0  0  0  0
  -15.5398  -30.2973   23.7710 H   0  0  0  0  0  0
  -15.8720  -28.0843   22.7045 H   0  0  0  0  0  0
  -24.5814  -30.7190   25.7588 H   0  0  0  0  0  0
  -24.8839  -32.3081   26.4528 H   0  0  0  0  0  0
  -25.7814  -30.9101   27.0190 H   0  0  0  0  0  0
  -26.3102  -29.6511   24.1473 H   0  0  0  0  0  0
  -27.3919  -29.7249   25.5144 H   0  0  0  0  0  0
  -27.9056  -30.3969   23.9885 H   0  0  0  0  0  0
  -27.2529  -33.3701   26.1882 H   0  0  0  0  0  0
  -28.3879  -32.6885   25.0341 H   0  0  0  0  0  0
  -28.0614  -31.8621   26.5507 H   0  0  0  0  0  0
  -28.2515  -38.0099   24.7522 H   0  0  0  0  0  0
  -28.1118  -36.2629   24.6226 H   0  0  0  0  0  0
  -27.2310  -37.1317   25.8860 H   0  0  0  0  0  0
  -20.9613  -29.8772   21.6660 H   0  0  0  0  0  0
  -26.0096  -38.2718   24.1446 H   0  0  0  0  0  0
  -31.2523  -19.9278   23.1194 H   0  0  0  0  0  0
  -31.0246  -17.7178   22.1940 H   0  0  0  0  0  0
  -29.8088  -23.8009   25.3376 H   0  0  0  0  0  0
  -29.0708  -24.2822   23.8336 H   0  0  0  0  0  0
  -30.6912  -24.8866   21.7798 H   0  0  0  0  0  0
  -32.4103  -24.7760   22.0255 H   0  0  0  0  0  0
  -28.9597  -21.8459   24.0152 H   0  0  0  0  0  0
  -30.6804  -21.7400   24.3414 H   0  0  0  0  0  0
  -32.2804  -22.3295   22.3466 H   0  0  0  0  0  0
  -31.5374  -22.7767   20.8232 H   0  0  0  0  0  0
  -32.0754  -24.0025   24.3546 H   0  0  0  0  0  0
  -27.8550  -22.1948   19.1922 H   0  0  0  0  0  0
  -29.4793  -22.7165   19.2852 H   0  0  0  0  0  0
  -28.5641  -24.1364   21.5401 H   0  0  0  0  0  0
  -27.0457  -23.9855   20.8182 H   0  0  0  0  0  0
  -28.6472  -16.3947   19.9988 H   0  0  0  0  0  0
  -30.4718  -26.3986   23.8254 H   0  0  0  0  0  0
  -32.0958  -26.3421   23.9390 H   0  0  0  0  0  0
  -31.1838  -25.9982   25.2373 H   0  0  0  0  0  0
  1 25  1  0  0  0
  1 30  2  0  0  0
  1 85  1  0  0  0
  2  3  1  0  0  0
  2 25  1  0  0  0
  2 87  1  0  0  0
  2 88  1  0  0  0
  3  4  1  0  0  0
  3 89  1  0  0  0
  3 90  1  0  0  0
  4  5  1  0  0  0
  4 91  1  0  0  0
  4 92  1  0  0  0
  5  6  1  0  0  0
  5 26  1  0  0  0
  5 93  1  0  0  0
  6 25  1  0  0  0
  6 94  1  0  0  0
  6 95  1  0  0  0
  7  8  2  0  0  0
  7 26  1  0  0  0
  7 29  1  0  0  0
  8  9  1  0  0  0
  8 22  1  0  0  0
  9 10  1  0  0  0
  9 27  2  0  0  0
 10 11  2  0  0  0
 10 15  1  0  0  0
 11 12  1  0  0  0
 11 96  1  0  0  0
 12 13  2  0  0  0
 12 97  1  0  0  0
 13 14  1  0  0  0
 13 31  1  0  0  0
 14 15  2  0  0  0
 14 98  1  0  0  0
 15 99  1  0  0  0
 16 17  2  0  0  0
 16 21  1  0  0  0
 16 31  1  0  0  0
 17 18  1  0  0  0
 17100  1  0  0  0
 18 19  2  0  0  0
 18101  1  0  0  0
 19 20  1  0  0  0
 19 24  1  0  0  0
 20 21  2  0  0  0
 20102  1  0  0  0
 21 23  1  0  0  0
 22 28  1  0  0  0
 22 32  2  0  0  0
 26 27  1  0  0  0
 28103  1  0  0  0
 28104  1  0  0  0
 29105  1  0  0  0
 29106  1  0  0  0
 33 34  1  0  0  0
 33 66  1  0  0  0
 33 70  2  0  0  0
 34 36  1  0  0  0
 34 59  1  0  0  0
 34107  1  0  0  0
 35 44  2  0  0  0
 35 45  1  0  0  0
 35 68  1  0  0  0
 36 56  1  0  0  0
 36108  1  0  0  0
 37 39  1  0  0  0
 37 47  1  0  0  0
 37 66  1  0  0  0
 37109  1  0  0  0
 38 43  2  0  0  0
 38 46  1  0  0  0
 38 47  1  0  0  0
 39 64  1  0  0  0
 39 67  2  0  0  0
 40 52  1  0  0  0
 40 53  2  0  0  0
 40 58  1  0  0  0
 41110  1  0  0  0
 41111  1  0  0  0
 41112  1  0  0  0
 41 48  1  0  0  0
 42 43  1  0  0  0
 42 66  1  0  0  0
 42113  1  0  0  0
 42114  1  0  0  0
 43 44  1  0  0  0
 44115  1  0  0  0
 45 46  2  0  0  0
 45116  1  0  0  0
 46117  1  0  0  0
 47118  1  0  0  0
 47119  1  0  0  0
 48 56  1  0  0  0
 48 65  1  0  0  0
 48120  1  0  0  0
 49 50  1  0  0  0
 49 53  1  0  0  0
 49 64  1  0  0  0
 49121  1  0  0  0
 50 51  1  0  0  0
 50122  1  0  0  0
 50123  1  0  0  0
 51 52  1  0  0  0
 51124  1  0  0  0
 51125  1  0  0  0
 52126  1  0  0  0
 52127  1  0  0  0
 53 54  1  0  0  0
 54 55  2  0  0  0
 54128  1  0  0  0
 55 57  1  0  0  0
 55129  1  0  0  0
 56 69  2  0  0  0
 57 58  2  0  0  0
 57130  1  0  0  0
 58131  1  0  0  0
 59 60  1  0  0  0
 59 61  1  0  0  0
 59 62  1  0  0  0
 60132  1  0  0  0
 60133  1  0  0  0
 60134  1  0  0  0
 61135  1  0  0  0
 61136  1  0  0  0
 61137  1  0  0  0
 62138  1  0  0  0
 62139  1  0  0  0
 62140  1  0  0  0
 63 65  1  0  0  0
 63141  1  0  0  0
 63142  1  0  0  0
 63143  1  0  0  0
 64144  1  0  0  0
 65145  1  0  0  0
 68 82  1  0  0  0
 71 72  2  0  0  0
 71 73  1  0  0  0
 71146  1  0  0  0
 72 75  1  0  0  0
 72147  1  0  0  0
 73 74  2  0  0  0
 73 84  1  0  0  0
 74 81  1  0  0  0
 74 83  1  0  0  0
 75 83  2  0  0  0
 75 85  1  0  0  0
 76 78  1  0  0  0
 76 80  1  0  0  0
 76148  1  0  0  0
 76149  1  0  0  0
 77 79  1  0  0  0
 77 80  1  0  0  0
 77150  1  0  0  0
 77151  1  0  0  0
 78 84  1  0  0  0
 78152  1  0  0  0
 78153  1  0  0  0
 79 84  1  0  0  0
 79154  1  0  0  0
 79155  1  0  0  0
 80 86  1  0  0  0
 80156  1  0  0  0
 81 82  1  0  0  0
 81157  1  0  0  0
 81158  1  0  0  0
 82159  1  0  0  0
 82160  1  0  0  0
 85161  1  0  0  0
 86162  1  0  0  0
 86163  1  0  0  0
 86164  1  0  0  0
M  CHG  1  86   1
M  ISO  4   1 100  68 101  82 101  85 100
M  END
> <chiral flag>
0

> <version>
0

> <s_m_source_file>
/data/baiqing/PycharmProjects/Reinvent-master-3.2/result/LINK_invent/BTK/process_docking_weight1_custom_sum_contain_oxygen_bond_distance_aromatic_linkinvent_7_9_3/rearranged_h_0126.sdf

> <i_m_source_file_index>
31

> <r_mmod_Potential_Energy-OPLS-2005>
1221.4736328125

> <r_mmod_Stretch_Energy-OPLS-2005>
695.416137695312

> <r_mmod_Bend_Energy-OPLS-2005>
484.522857666016

> <r_mmod_Torsional_Energy-OPLS-2005>
301.878387451172

> <r_mmod_Improper_Torsional_Energy-OPLS-2005>
12.701114654541

> <r_mmod_Van_der_Waal_Energy-OPLS-2005>
128.292785644531

> <r_mmod_Electrostatic_Energy-OPLS-2005>
-442.109222412109

> <r_mmod_Solvation_Energy-OPLS-2005>
-511.661651611328

> <b_mmod_Minimization_Converged-OPLS-2005>
0

> <r_mmod_RMS_Derivative-OPLS-2005>
2.21537160873413

$$$$
31
                    3D
 Structure written by MMmdl.
166175  0  0  1  0            999 V2000
  -30.7902  -14.2938   20.7305 C   0  0  0  0  0  0
  -30.4178  -12.2708   19.3766 C   0  0  0  0  0  0
  -29.4804  -12.5302   18.1841 C   0  0  0  0  0  0
  -28.0053  -12.3869   18.6022 C   0  0  0  0  0  0
  -27.6701  -13.1977   19.8808 C   0  0  2  0  0  0
  -28.7038  -12.9082   20.9903 C   0  0  0  0  0  0
  -25.2619  -13.8156   20.5653 C   0  0  0  0  0  0
  -24.1854  -13.0441   20.9146 C   0  0  0  0  0  0
  -24.6395  -11.6906   20.8709 C   0  0  0  0  0  0
  -23.9057  -10.4293   21.0394 C   0  0  0  0  0  0
  -24.3614   -9.4211   21.9173 C   0  0  0  0  0  0
  -23.6292   -8.2247   22.0750 C   0  0  0  0  0  0
  -22.4270   -8.0283   21.3546 C   0  0  0  0  0  0
  -21.9902   -9.0255   20.4648 C   0  0  0  0  0  0
  -22.7229  -10.2136   20.3052 C   0  0  0  0  0  0
  -21.6853   -6.0738   22.5280 C   0  0  0  0  0  0
  -21.4012   -6.5640   23.8214 C   0  0  0  0  0  0
  -21.3658   -5.6794   24.9175 C   0  0  0  0  0  0
  -21.6044   -4.3057   24.7226 C   0  0  0  0  0  0
  -21.8820   -3.8147   23.4348 C   0  0  0  0  0  0
  -21.9193   -4.6965   22.3402 C   0  0  0  0  0  0
  -22.7881  -13.5251   21.1822 C   0  0  0  0  0  0
  -22.1659   -4.2150   21.0982 F   0  0  0  0  0  0
  -21.5629   -3.4540   25.7739 F   0  0  0  0  0  0
  -30.0567  -13.1861   20.4660 N   0  0  0  0  0  0
  -26.3060  -12.9313   20.3364 N   0  0  0  0  0  0
  -25.9316  -11.6476   20.5733 N   0  0  0  0  0  0
  -22.0526  -12.8247   22.0387 N   0  0  0  0  0  0
  -25.4364  -15.1868   20.4079 N   0  0  0  0  0  0
  -31.7633  -14.6522   20.0583 O   0  0  0  0  0  0
  -21.6638   -6.8879   21.4243 O   0  0  0  0  0  0
  -22.3559  -14.5556   20.6677 O   0  0  0  0  0  0
  -24.6089  -31.8717   23.2130 C   0  0  0  0  0  0
  -25.9006  -32.4843   23.8417 C   0  0  1  0  0  0
  -27.2409  -27.4840   20.0926 C   0  0  0  0  0  0
  -25.5893  -33.8644   24.2362 N   0  0  0  0  0  0
  -23.3953  -30.4934   21.5512 C   0  0  2  0  0  0
  -24.8443  -28.9612   20.1215 C   0  0  0  0  0  0
  -22.7378  -29.4668   22.5010 C   0  0  0  0  0  0
  -18.0259  -28.1361   22.8490 C   0  0  0  0  0  0
  -24.1482  -36.7329   23.2631 C   0  0  0  0  0  0
  -25.9166  -30.8517   21.3587 C   0  0  0  0  0  0
  -25.9977  -29.4831   20.7218 C   0  0  0  0  0  0
  -27.1977  -28.7457   20.7195 C   0  0  0  0  0  0
  -26.0794  -26.9681   19.4841 C   0  0  0  0  0  0
  -24.8756  -27.6971   19.5066 C   0  0  0  0  0  0
  -23.6041  -29.8217   20.1665 C   0  0  0  0  0  0
  -25.4099  -36.3132   24.0345 C   0  0  1  0  0  0
  -20.5847  -28.3646   23.1328 C   0  0  2  0  0  0
  -20.6762  -26.9395   22.5407 C   0  0  0  0  0  0
  -19.5748  -26.6388   21.5194 C   0  0  0  0  0  0
  -18.1923  -26.7912   22.1606 C   0  0  0  0  0  0
  -19.1507  -28.8818   23.2909 C   0  0  0  0  0  0
  -18.9443  -30.1429   23.8916 C   0  0  0  0  0  0
  -17.6451  -30.6576   24.0569 C   0  0  0  0  0  0
  -25.9018  -34.9488   23.5144 C   0  0  0  0  0  0
  -16.5340  -29.9084   23.6322 C   0  0  0  0  0  0
  -16.7250  -28.6494   23.0346 C   0  0  0  0  0  0
  -26.4455  -31.6586   25.0708 C   0  0  0  0  0  0
  -25.3749  -31.3683   26.1484 C   0  0  0  0  0  0
  -27.0266  -30.3040   24.6009 C   0  0  0  0  0  0
  -27.6060  -32.4269   25.7456 C   0  0  0  0  0  0
  -27.5580  -37.1816   24.8467 C   0  0  0  0  0  0
  -21.4110  -29.3030   22.3754 N   0  0  0  0  0  0
  -26.4291  -37.3810   23.9414 N   0  0  0  0  0  0
  -24.6583  -31.0856   22.1009 N   0  0  0  0  0  0
  -23.4172  -28.8216   23.3037 O   0  0  0  0  0  0
  -28.4107  -26.7768   20.0155 O   0  0  0  0  0  0
  -26.5570  -34.8925   22.4699 O   0  0  0  0  0  0
  -23.5296  -32.1445   23.7552 O   0  0  0  0  0  0
  -29.4838  -22.5451   22.1682 C   0  0  0  0  0  0
  -28.1821  -22.5975   20.1135 C   0  0  0  0  0  0
  -29.4651  -23.9512   22.2215 C   0  0  0  0  0  0
  -28.1802  -24.0018   20.1580 C   0  0  0  0  0  0
  -28.8497  -21.8524   21.1121 C   0  0  0  0  0  0
  -28.8275  -24.6897   21.2054 C   0  0  0  0  0  0
  -28.2065  -19.6576   19.8816 C   0  0  0  0  0  0
  -28.5808  -19.6564   22.3983 C   0  0  0  0  0  0
  -28.5287  -18.1549   19.7568 C   0  0  0  0  0  0
  -28.2056  -18.1639   22.2712 C   0  0  0  0  0  0
  -28.9560  -20.3289   21.0517 C   0  0  2  0  0  0
  -28.9092  -17.4699   21.0909 C   0  0  2  0  0  0
  -28.8540  -26.2086   21.2429 C   0  0  0  0  0  0
  -30.4461  -17.3656   21.2934 C   0  0  0  0  0  0
  -30.8904  -16.2544   22.2624 C   0  0  0  0  0  0
  -30.4110  -14.9479   21.8322 N   0  0  0  0  0  0
  -31.4588  -12.3826   19.0677 H   0  0  0  0  0  0
  -30.3227  -11.2398   19.7200 H   0  0  0  0  0  0
  -29.7072  -11.8380   17.3719 H   0  0  0  0  0  0
  -29.6553  -13.5331   17.7908 H   0  0  0  0  0  0
  -27.8067  -11.3278   18.7709 H   0  0  0  0  0  0
  -27.3533  -12.6911   17.7827 H   0  0  0  0  0  0
  -27.7394  -14.2557   19.6259 H   0  0  0  0  0  0
  -28.6502  -11.8599   21.2876 H   0  0  0  0  0  0
  -28.4456  -13.4717   21.8866 H   0  0  0  0  0  0
  -25.2769   -9.5684   22.4733 H   0  0  0  0  0  0
  -24.0006   -7.4638   22.7466 H   0  0  0  0  0  0
  -21.0831   -8.8774   19.8955 H   0  0  0  0  0  0
  -22.3689  -10.9672   19.6153 H   0  0  0  0  0  0
  -21.2004   -7.6148   23.9717 H   0  0  0  0  0  0
  -21.1477   -6.0523   25.9080 H   0  0  0  0  0  0
  -22.0601   -2.7610   23.2849 H   0  0  0  0  0  0
  -22.4151  -11.9915   22.4779 H   0  0  0  0  0  0
  -21.1147  -13.1271   22.2601 H   0  0  0  0  0  0
  -24.6767  -15.8475   20.5275 H   0  0  0  0  0  0
  -26.3016  -15.6250   20.1188 H   0  0  0  0  0  0
  -26.7092  -32.5578   23.1205 H   0  0  0  0  0  0
  -25.0100  -33.9828   25.0546 H   0  0  0  0  0  0
  -22.6831  -31.3086   21.4101 H   0  0  0  0  0  0
  -23.3743  -35.9666   23.3308 H   0  0  0  0  0  0
  -24.3584  -36.8915   22.2041 H   0  0  0  0  0  0
  -23.7231  -37.6544   23.6614 H   0  0  0  0  0  0
  -26.0101  -31.6103   20.5804 H   0  0  0  0  0  0
  -26.8131  -30.9229   21.9625 H   0  0  0  0  0  0
  -28.0902  -29.1504   21.1764 H   0  0  0  0  0  0
  -26.1037  -26.0108   18.9853 H   0  0  0  0  0  0
  -23.9907  -27.2911   19.0369 H   0  0  0  0  0  0
  -23.7093  -30.5918   19.4011 H   0  0  0  0  0  0
  -22.7321  -29.2334   19.8743 H   0  0  0  0  0  0
  -25.1277  -36.2010   25.0841 H   0  0  0  0  0  0
  -20.9933  -28.3188   24.1447 H   0  0  0  0  0  0
  -20.5647  -26.2256   23.3587 H   0  0  0  0  0  0
  -21.6645  -26.7446   22.1219 H   0  0  0  0  0  0
  -19.6928  -25.6306   21.1209 H   0  0  0  0  0  0
  -19.6684  -27.3214   20.6736 H   0  0  0  0  0  0
  -17.4201  -26.6646   21.4000 H   0  0  0  0  0  0
  -18.0335  -26.0038   22.8984 H   0  0  0  0  0  0
  -19.7919  -30.7235   24.2297 H   0  0  0  0  0  0
  -17.5005  -31.6256   24.5172 H   0  0  0  0  0  0
  -15.5345  -30.3007   23.7622 H   0  0  0  0  0  0
  -15.8641  -28.0826   22.7060 H   0  0  0  0  0  0
  -24.5939  -30.6993   25.7847 H   0  0  0  0  0  0
  -24.8922  -32.2834   26.4911 H   0  0  0  0  0  0
  -25.8140  -30.8886   27.0244 H   0  0  0  0  0  0
  -26.2775  -29.6825   24.1078 H   0  0  0  0  0  0
  -27.4098  -29.7233   25.4411 H   0  0  0  0  0  0
  -27.8582  -30.4397   23.9097 H   0  0  0  0  0  0
  -27.2715  -33.3567   26.2069 H   0  0  0  0  0  0
  -28.3850  -32.6819   25.0259 H   0  0  0  0  0  0
  -28.0744  -31.8356   26.5336 H   0  0  0  0  0  0
  -28.2629  -38.0086   24.7525 H   0  0  0  0  0  0
  -28.1050  -36.2631   24.6289 H   0  0  0  0  0  0
  -27.2306  -37.1474   25.8871 H   0  0  0  0  0  0
  -20.9254  -29.8772   21.7011 H   0  0  0  0  0  0
  -26.0192  -38.2893   24.1420 H   0  0  0  0  0  0
  -30.0039  -22.0006   22.9437 H   0  0  0  0  0  0
  -27.6804  -22.1208   19.2842 H   0  0  0  0  0  0
  -29.9605  -24.4627   23.0354 H   0  0  0  0  0  0
  -27.6886  -24.5420   19.3637 H   0  0  0  0  0  0
  -27.1326  -19.7945   20.0178 H   0  0  0  0  0  0
  -28.4632  -20.1262   18.9309 H   0  0  0  0  0  0
  -29.4100  -19.7648   23.0986 H   0  0  0  0  0  0
  -27.7364  -20.1745   22.8545 H   0  0  0  0  0  0
  -29.3200  -18.0073   19.0203 H   0  0  0  0  0  0
  -27.6545  -17.6587   19.3326 H   0  0  0  0  0  0
  -27.1273  -18.0836   22.1230 H   0  0  0  0  0  0
  -28.4081  -17.6436   23.2083 H   0  0  0  0  0  0
  -30.0161  -20.1565   20.8675 H   0  0  0  0  0  0
  -28.5095  -16.4578   21.0231 H   0  0  0  0  0  0
  -29.8807  -26.5356   21.4166 H   0  0  0  0  0  0
  -28.2690  -26.5485   22.1002 H   0  0  0  0  0  0
  -30.8635  -18.3061   21.6486 H   0  0  0  0  0  0
  -30.9339  -17.1928   20.3331 H   0  0  0  0  0  0
  -30.5063  -16.4521   23.2637 H   0  0  0  0  0  0
  -31.9785  -16.2390   22.3458 H   0  0  0  0  0  0
  -29.6545  -14.5365   22.3594 H   0  0  0  0  0  0
  1 25  1  0  0  0
  1 30  2  0  0  0
  1 86  1  0  0  0
  2  3  1  0  0  0
  2 25  1  0  0  0
  2 87  1  0  0  0
  2 88  1  0  0  0
  3  4  1  0  0  0
  3 89  1  0  0  0
  3 90  1  0  0  0
  4  5  1  0  0  0
  4 91  1  0  0  0
  4 92  1  0  0  0
  5  6  1  0  0  0
  5 26  1  0  0  0
  5 93  1  0  0  0
  6 25  1  0  0  0
  6 94  1  0  0  0
  6 95  1  0  0  0
  7  8  2  0  0  0
  7 26  1  0  0  0
  7 29  1  0  0  0
  8  9  1  0  0  0
  8 22  1  0  0  0
  9 10  1  0  0  0
  9 27  2  0  0  0
 10 11  2  0  0  0
 10 15  1  0  0  0
 11 12  1  0  0  0
 11 96  1  0  0  0
 12 13  2  0  0  0
 12 97  1  0  0  0
 13 14  1  0  0  0
 13 31  1  0  0  0
 14 15  2  0  0  0
 14 98  1  0  0  0
 15 99  1  0  0  0
 16 17  2  0  0  0
 16 21  1  0  0  0
 16 31  1  0  0  0
 17 18  1  0  0  0
 17100  1  0  0  0
 18 19  2  0  0  0
 18101  1  0  0  0
 19 20  1  0  0  0
 19 24  1  0  0  0
 20 21  2  0  0  0
 20102  1  0  0  0
 21 23  1  0  0  0
 22 28  1  0  0  0
 22 32  2  0  0  0
 26 27  1  0  0  0
 28103  1  0  0  0
 28104  1  0  0  0
 29105  1  0  0  0
 29106  1  0  0  0
 33 34  1  0  0  0
 33 66  1  0  0  0
 33 70  2  0  0  0
 34 36  1  0  0  0
 34 59  1  0  0  0
 34107  1  0  0  0
 35 44  2  0  0  0
 35 45  1  0  0  0
 35 68  1  0  0  0
 36 56  1  0  0  0
 36108  1  0  0  0
 37 39  1  0  0  0
 37 47  1  0  0  0
 37 66  1  0  0  0
 37109  1  0  0  0
 38 43  2  0  0  0
 38 46  1  0  0  0
 38 47  1  0  0  0
 39 64  1  0  0  0
 39 67  2  0  0  0
 40 52  1  0  0  0
 40 53  2  0  0  0
 40 58  1  0  0  0
 41110  1  0  0  0
 41111  1  0  0  0
 41112  1  0  0  0
 41 48  1  0  0  0
 42 43  1  0  0  0
 42 66  1  0  0  0
 42113  1  0  0  0
 42114  1  0  0  0
 43 44  1  0  0  0
 44115  1  0  0  0
 45 46  2  0  0  0
 45116  1  0  0  0
 46117  1  0  0  0
 47118  1  0  0  0
 47119  1  0  0  0
 48 56  1  0  0  0
 48 65  1  0  0  0
 48120  1  0  0  0
 49 50  1  0  0  0
 49 53  1  0  0  0
 49 64  1  0  0  0
 49121  1  0  0  0
 50 51  1  0  0  0
 50122  1  0  0  0
 50123  1  0  0  0
 51 52  1  0  0  0
 51124  1  0  0  0
 51125  1  0  0  0
 52126  1  0  0  0
 52127  1  0  0  0
 53 54  1  0  0  0
 54 55  2  0  0  0
 54128  1  0  0  0
 55 57  1  0  0  0
 55129  1  0  0  0
 56 69  2  0  0  0
 57 58  2  0  0  0
 57130  1  0  0  0
 58131  1  0  0  0
 59 60  1  0  0  0
 59 61  1  0  0  0
 59 62  1  0  0  0
 60132  1  0  0  0
 60133  1  0  0  0
 60134  1  0  0  0
 61135  1  0  0  0
 61136  1  0  0  0
 61137  1  0  0  0
 62138  1  0  0  0
 62139  1  0  0  0
 62140  1  0  0  0
 63 65  1  0  0  0
 63141  1  0  0  0
 63142  1  0  0  0
 63143  1  0  0  0
 64144  1  0  0  0
 65145  1  0  0  0
 68 83  1  0  0  0
 71 73  2  0  0  0
 71 75  1  0  0  0
 71146  1  0  0  0
 72 74  1  0  0  0
 72 75  2  0  0  0
 72147  1  0  0  0
 73 76  1  0  0  0
 73148  1  0  0  0
 74 76  2  0  0  0
 74149  1  0  0  0
 75 81  1  0  0  0
 76 83  1  0  0  0
 77 79  1  0  0  0
 77 81  1  0  0  0
 77150  1  0  0  0
 77151  1  0  0  0
 78 80  1  0  0  0
 78 81  1  0  0  0
 78152  1  0  0  0
 78153  1  0  0  0
 79 82  1  0  0  0
 79154  1  0  0  0
 79155  1  0  0  0
 80 82  1  0  0  0
 80156  1  0  0  0
 80157  1  0  0  0
 81158  1  0  0  0
 82 84  1  0  0  0
 82159  1  0  0  0
 83160  1  0  0  0
 83161  1  0  0  0
 84 85  1  0  0  0
 84162  1  0  0  0
 84163  1  0  0  0
 85 86  1  0  0  0
 85164  1  0  0  0
 85165  1  0  0  0
 86166  1  0  0  0
M  ISO  4   1 100  68 101  83 101  86 100
M  END
> <chiral flag>
0

> <version>
0

> <s_m_source_file>
/data/baiqing/PycharmProjects/Reinvent-master-3.2/result/LINK_invent/BTK/process_docking_weight1_custom_sum_contain_oxygen_bond_distance_aromatic_linkinvent_7_9_3/rearranged_h_0126.sdf

> <i_m_source_file_index>
32

> <r_mmod_Potential_Energy-OPLS-2005>
21.4705181121826

> <r_mmod_Stretch_Energy-OPLS-2005>
32.3779411315918

> <r_mmod_Bend_Energy-OPLS-2005>
91.3384323120117

> <r_mmod_Torsional_Energy-OPLS-2005>
285.619720458984

> <r_mmod_Improper_Torsional_Energy-OPLS-2005>
2.09560227394104

> <r_mmod_Van_der_Waal_Energy-OPLS-2005>
165.690643310547

> <r_mmod_Electrostatic_Energy-OPLS-2005>
-366.527618408203

> <r_mmod_Solvation_Energy-OPLS-2005>
-195.976715087891

> <b_mmod_Minimization_Converged-OPLS-2005>
0

> <r_mmod_RMS_Derivative-OPLS-2005>
1.40897285938263

$$$$
32
                    3D
 Structure written by MMmdl.
168176  0  0  1  0            999 V2000
  -30.8195  -14.2945   20.7648 C   0  0  0  0  0  0
  -30.4079  -12.2965   19.3754 C   0  0  0  0  0  0
  -29.4699  -12.5367   18.1817 C   0  0  0  0  0  0
  -28.0016  -12.3752   18.6091 C   0  0  0  0  0  0
  -27.6626  -13.2031   19.8744 C   0  0  2  0  0  0
  -28.6980  -12.9561   20.9922 C   0  0  0  0  0  0
  -25.2589  -13.8166   20.5663 C   0  0  0  0  0  0
  -24.1834  -13.0444   20.9154 C   0  0  0  0  0  0
  -24.6385  -11.6906   20.8717 C   0  0  0  0  0  0
  -23.9049  -10.4295   21.0401 C   0  0  0  0  0  0
  -24.3608   -9.4217   21.9180 C   0  0  0  0  0  0
  -23.6285   -8.2248   22.0761 C   0  0  0  0  0  0
  -22.4267   -8.0281   21.3545 C   0  0  0  0  0  0
  -21.9903   -9.0251   20.4641 C   0  0  0  0  0  0
  -22.7226  -10.2133   20.3050 C   0  0  0  0  0  0
  -21.6850   -6.0732   22.5279 C   0  0  0  0  0  0
  -21.4012   -6.5635   23.8213 C   0  0  0  0  0  0
  -21.3655   -5.6787   24.9170 C   0  0  0  0  0  0
  -21.6043   -4.3052   24.7221 C   0  0  0  0  0  0
  -21.8821   -3.8145   23.4344 C   0  0  0  0  0  0
  -21.9196   -4.6961   22.3399 C   0  0  0  0  0  0
  -22.7867  -13.5249   21.1836 C   0  0  0  0  0  0
  -22.1660   -4.2154   21.0975 F   0  0  0  0  0  0
  -21.5631   -3.4537   25.7736 F   0  0  0  0  0  0
  -30.0483  -13.2224   20.4591 N   0  0  0  0  0  0
  -26.3023  -12.9324   20.3352 N   0  0  0  0  0  0
  -25.9304  -11.6487   20.5744 N   0  0  0  0  0  0
  -22.0507  -12.8231   22.0391 N   0  0  0  0  0  0
  -25.4347  -15.1876   20.4075 N   0  0  0  0  0  0
  -31.7653  -14.6791   20.0688 O   0  0  0  0  0  0
  -21.6634   -6.8876   21.4242 O   0  0  0  0  0  0
  -22.3551  -14.5564   20.6706 O   0  0  0  0  0  0
  -24.6089  -31.8697   23.2148 C   0  0  0  0  0  0
  -25.9013  -32.4828   23.8418 C   0  0  1  0  0  0
  -27.2354  -27.4899   20.0890 C   0  0  0  0  0  0
  -25.5902  -33.8630   24.2354 N   0  0  0  0  0  0
  -23.3938  -30.4949   21.5517 C   0  0  2  0  0  0
  -24.8419  -28.9683   20.1133 C   0  0  0  0  0  0
  -22.7365  -29.4682   22.5009 C   0  0  0  0  0  0
  -18.0259  -28.1389   22.8486 C   0  0  0  0  0  0
  -24.1478  -36.7329   23.2642 C   0  0  0  0  0  0
  -25.9151  -30.8544   21.3592 C   0  0  0  0  0  0
  -25.9959  -29.4920   20.7109 C   0  0  0  0  0  0
  -27.1966  -28.7573   20.7046 C   0  0  0  0  0  0
  -26.0769  -26.9719   19.4783 C   0  0  0  0  0  0
  -24.8743  -27.7040   19.4973 C   0  0  0  0  0  0
  -23.5983  -29.8245   20.1657 C   0  0  0  0  0  0
  -25.4106  -36.3123   24.0335 C   0  0  1  0  0  0
  -20.5839  -28.3667   23.1317 C   0  0  2  0  0  0
  -20.6754  -26.9400   22.5419 C   0  0  0  0  0  0
  -19.5732  -26.6385   21.5211 C   0  0  0  0  0  0
  -18.1901  -26.7942   22.1600 C   0  0  0  0  0  0
  -19.1504  -28.8847   23.2894 C   0  0  0  0  0  0
  -18.9437  -30.1463   23.8888 C   0  0  0  0  0  0
  -17.6442  -30.6585   24.0587 C   0  0  0  0  0  0
  -25.9025  -34.9481   23.5137 C   0  0  0  0  0  0
  -16.5336  -29.9085   23.6342 C   0  0  0  0  0  0
  -16.7251  -28.6521   23.0329 C   0  0  0  0  0  0
  -26.4461  -31.6584   25.0720 C   0  0  0  0  0  0
  -25.3754  -31.3679   26.1488 C   0  0  0  0  0  0
  -27.0285  -30.3029   24.6081 C   0  0  0  0  0  0
  -27.6054  -32.4292   25.7463 C   0  0  0  0  0  0
  -27.5572  -37.1828   24.8480 C   0  0  0  0  0  0
  -21.4104  -29.3038   22.3734 N   0  0  0  0  0  0
  -26.4305  -37.3796   23.9395 N   0  0  0  0  0  0
  -24.6572  -31.0846   22.1022 N   0  0  0  0  0  0
  -23.4151  -28.8221   23.3037 O   0  0  0  0  0  0
  -28.3806  -26.7399   20.0709 O   0  0  0  0  0  0
  -26.5578  -34.8918   22.4691 O   0  0  0  0  0  0
  -23.5297  -32.1416   23.7587 O   0  0  0  0  0  0
  -29.7751  -19.1264   22.6503 C   0  0  0  0  0  0
  -32.2737  -19.4248   23.0020 C   0  0  0  0  0  0
  -29.9304  -17.6241   22.9472 C   0  0  0  0  0  0
  -32.3890  -17.9264   23.3093 C   0  0  0  0  0  0
  -30.8733  -19.9906   23.3169 C   0  0  1  0  0  0
  -31.3284  -17.1212   22.5408 C   0  0  1  0  0  0
  -30.8070  -21.4582   22.8484 C   0  0  0  0  0  0
  -31.5245  -15.6113   22.7667 C   0  0  0  0  0  0
  -27.8463  -25.2978   21.9540 C   0  0  0  0  0  0
  -29.6272  -22.2799   23.3985 C   0  0  0  0  0  0
  -28.4158  -24.4434   23.0983 C   0  0  0  0  0  0
  -28.8298  -26.3276   21.3589 C   0  0  0  0  0  0
  -30.6027  -14.7822   21.9932 N   0  0  0  0  0  0
  -29.4531  -23.5128   22.6063 N   0  3  0  0  0  0
  -31.4491  -12.4029   19.0651 H   0  0  0  0  0  0
  -30.3105  -11.2694   19.7307 H   0  0  0  0  0  0
  -29.7020  -11.8405   17.3746 H   0  0  0  0  0  0
  -29.6291  -13.5391   17.7802 H   0  0  0  0  0  0
  -27.8239  -11.3159   18.8008 H   0  0  0  0  0  0
  -27.3379  -12.6522   17.7894 H   0  0  0  0  0  0
  -27.7195  -14.2556   19.5957 H   0  0  0  0  0  0
  -28.6479  -11.9222   21.3366 H   0  0  0  0  0  0
  -28.4403  -13.5686   21.8563 H   0  0  0  0  0  0
  -25.2753   -9.5692   22.4753 H   0  0  0  0  0  0
  -23.9993   -7.4648   22.7494 H   0  0  0  0  0  0
  -21.0834   -8.8759   19.8949 H   0  0  0  0  0  0
  -22.3683  -10.9666   19.6158 H   0  0  0  0  0  0
  -21.2002   -7.6143   23.9719 H   0  0  0  0  0  0
  -21.1471   -6.0513   25.9075 H   0  0  0  0  0  0
  -22.0604   -2.7609   23.2843 H   0  0  0  0  0  0
  -22.4117  -11.9875   22.4748 H   0  0  0  0  0  0
  -21.1140  -13.1264   22.2628 H   0  0  0  0  0  0
  -24.6768  -15.8518   20.5218 H   0  0  0  0  0  0
  -26.2999  -15.6218   20.1106 H   0  0  0  0  0  0
  -26.7093  -32.5577   23.1197 H   0  0  0  0  0  0
  -25.0110  -33.9807   25.0541 H   0  0  0  0  0  0
  -22.6820  -31.3116   21.4123 H   0  0  0  0  0  0
  -23.3744  -35.9656   23.3302 H   0  0  0  0  0  0
  -24.3564  -36.8945   22.2054 H   0  0  0  0  0  0
  -23.7219  -37.6523   23.6669 H   0  0  0  0  0  0
  -26.0138  -31.6200   20.5875 H   0  0  0  0  0  0
  -26.8084  -30.9139   21.9697 H   0  0  0  0  0  0
  -28.0902  -29.1634   21.1587 H   0  0  0  0  0  0
  -26.1039  -26.0016   19.0018 H   0  0  0  0  0  0
  -23.9871  -27.2964   19.0324 H   0  0  0  0  0  0
  -23.6946  -30.5961   19.4003 H   0  0  0  0  0  0
  -22.7263  -29.2342   19.8773 H   0  0  0  0  0  0
  -25.1284  -36.2001   25.0829 H   0  0  0  0  0  0
  -20.9928  -28.3245   24.1440 H   0  0  0  0  0  0
  -20.5656  -26.2276   23.3611 H   0  0  0  0  0  0
  -21.6628  -26.7448   22.1206 H   0  0  0  0  0  0
  -19.6889  -25.6294   21.1241 H   0  0  0  0  0  0
  -19.6684  -27.3210   20.6756 H   0  0  0  0  0  0
  -17.4180  -26.6721   21.3988 H   0  0  0  0  0  0
  -18.0277  -26.0071   22.8980 H   0  0  0  0  0  0
  -19.7910  -30.7307   24.2214 H   0  0  0  0  0  0
  -17.4983  -31.6258   24.5199 H   0  0  0  0  0  0
  -15.5336  -30.2977   23.7682 H   0  0  0  0  0  0
  -15.8652  -28.0864   22.7004 H   0  0  0  0  0  0
  -24.5907  -30.7052   25.7826 H   0  0  0  0  0  0
  -24.8996  -32.2844   26.4995 H   0  0  0  0  0  0
  -25.8129  -30.8791   27.0206 H   0  0  0  0  0  0
  -26.2818  -29.6768   24.1198 H   0  0  0  0  0  0
  -27.4117  -29.7279   25.4521 H   0  0  0  0  0  0
  -27.8615  -30.4326   23.9170 H   0  0  0  0  0  0
  -27.2708  -33.3609   26.2033 H   0  0  0  0  0  0
  -28.3871  -32.6814   25.0285 H   0  0  0  0  0  0
  -28.0712  -31.8420   26.5378 H   0  0  0  0  0  0
  -28.2643  -38.0069   24.7439 H   0  0  0  0  0  0
  -28.1007  -36.2595   24.6423 H   0  0  0  0  0  0
  -27.2268  -37.1623   25.8880 H   0  0  0  0  0  0
  -20.9270  -29.8751   21.6946 H   0  0  0  0  0  0
  -26.0198  -38.2885   24.1364 H   0  0  0  0  0  0
  -28.7869  -19.4506   22.9780 H   0  0  0  0  0  0
  -29.7985  -19.2713   21.5691 H   0  0  0  0  0  0
  -32.5111  -19.5893   21.9501 H   0  0  0  0  0  0
  -33.0297  -19.9682   23.5715 H   0  0  0  0  0  0
  -29.1556  -17.0697   22.4155 H   0  0  0  0  0  0
  -29.7620  -17.4395   24.0093 H   0  0  0  0  0  0
  -32.2787  -17.7608   24.3825 H   0  0  0  0  0  0
  -33.3896  -17.5802   23.0455 H   0  0  0  0  0  0
  -30.7341  -19.9571   24.3989 H   0  0  0  0  0  0
  -31.4654  -17.3168   21.4758 H   0  0  0  0  0  0
  -30.7890  -21.4680   21.7570 H   0  0  0  0  0  0
  -31.7277  -21.9696   23.1331 H   0  0  0  0  0  0
  -31.3880  -15.3743   23.8225 H   0  0  0  0  0  0
  -32.5528  -15.3292   22.5291 H   0  0  0  0  0  0
  -26.9622  -25.8239   22.3174 H   0  0  0  0  0  0
  -27.4848  -24.6360   21.1647 H   0  0  0  0  0  0
  -29.8002  -22.5265   24.4472 H   0  0  0  0  0  0
  -28.6991  -21.7109   23.3545 H   0  0  0  0  0  0
  -27.5973  -23.8684   23.5332 H   0  0  0  0  0  0
  -28.8163  -25.0666   23.8989 H   0  0  0  0  0  0
  -29.8147  -25.8826   21.2196 H   0  0  0  0  0  0
  -28.9685  -27.1709   22.0380 H   0  0  0  0  0  0
  -29.8191  -14.3864   22.4917 H   0  0  0  0  0  0
  -29.2051  -23.2321   21.6712 H   0  0  0  0  0  0
  -30.3347  -23.9978   22.5595 H   0  0  0  0  0  0
  1 25  1  0  0  0
  1 30  2  0  0  0
  1 83  1  0  0  0
  2  3  1  0  0  0
  2 25  1  0  0  0
  2 85  1  0  0  0
  2 86  1  0  0  0
  3  4  1  0  0  0
  3 87  1  0  0  0
  3 88  1  0  0  0
  4  5  1  0  0  0
  4 89  1  0  0  0
  4 90  1  0  0  0
  5  6  1  0  0  0
  5 26  1  0  0  0
  5 91  1  0  0  0
  6 25  1  0  0  0
  6 92  1  0  0  0
  6 93  1  0  0  0
  7  8  2  0  0  0
  7 26  1  0  0  0
  7 29  1  0  0  0
  8  9  1  0  0  0
  8 22  1  0  0  0
  9 10  1  0  0  0
  9 27  2  0  0  0
 10 11  2  0  0  0
 10 15  1  0  0  0
 11 12  1  0  0  0
 11 94  1  0  0  0
 12 13  2  0  0  0
 12 95  1  0  0  0
 13 14  1  0  0  0
 13 31  1  0  0  0
 14 15  2  0  0  0
 14 96  1  0  0  0
 15 97  1  0  0  0
 16 17  2  0  0  0
 16 21  1  0  0  0
 16 31  1  0  0  0
 17 18  1  0  0  0
 17 98  1  0  0  0
 18 19  2  0  0  0
 18 99  1  0  0  0
 19 20  1  0  0  0
 19 24  1  0  0  0
 20 21  2  0  0  0
 20100  1  0  0  0
 21 23  1  0  0  0
 22 28  1  0  0  0
 22 32  2  0  0  0
 26 27  1  0  0  0
 28101  1  0  0  0
 28102  1  0  0  0
 29103  1  0  0  0
 29104  1  0  0  0
 33 34  1  0  0  0
 33 66  1  0  0  0
 33 70  2  0  0  0
 34 36  1  0  0  0
 34 59  1  0  0  0
 34105  1  0  0  0
 35 44  2  0  0  0
 35 45  1  0  0  0
 35 68  1  0  0  0
 36 56  1  0  0  0
 36106  1  0  0  0
 37 39  1  0  0  0
 37 47  1  0  0  0
 37 66  1  0  0  0
 37107  1  0  0  0
 38 43  2  0  0  0
 38 46  1  0  0  0
 38 47  1  0  0  0
 39 64  1  0  0  0
 39 67  2  0  0  0
 40 52  1  0  0  0
 40 53  2  0  0  0
 40 58  1  0  0  0
 41108  1  0  0  0
 41109  1  0  0  0
 41110  1  0  0  0
 41 48  1  0  0  0
 42 43  1  0  0  0
 42 66  1  0  0  0
 42111  1  0  0  0
 42112  1  0  0  0
 43 44  1  0  0  0
 44113  1  0  0  0
 45 46  2  0  0  0
 45114  1  0  0  0
 46115  1  0  0  0
 47116  1  0  0  0
 47117  1  0  0  0
 48 56  1  0  0  0
 48 65  1  0  0  0
 48118  1  0  0  0
 49 50  1  0  0  0
 49 53  1  0  0  0
 49 64  1  0  0  0
 49119  1  0  0  0
 50 51  1  0  0  0
 50120  1  0  0  0
 50121  1  0  0  0
 51 52  1  0  0  0
 51122  1  0  0  0
 51123  1  0  0  0
 52124  1  0  0  0
 52125  1  0  0  0
 53 54  1  0  0  0
 54 55  2  0  0  0
 54126  1  0  0  0
 55 57  1  0  0  0
 55127  1  0  0  0
 56 69  2  0  0  0
 57 58  2  0  0  0
 57128  1  0  0  0
 58129  1  0  0  0
 59 60  1  0  0  0
 59 61  1  0  0  0
 59 62  1  0  0  0
 60130  1  0  0  0
 60131  1  0  0  0
 60132  1  0  0  0
 61133  1  0  0  0
 61134  1  0  0  0
 61135  1  0  0  0
 62136  1  0  0  0
 62137  1  0  0  0
 62138  1  0  0  0
 63 65  1  0  0  0
 63139  1  0  0  0
 63140  1  0  0  0
 63141  1  0  0  0
 64142  1  0  0  0
 65143  1  0  0  0
 68 82  1  0  0  0
 71 73  1  0  0  0
 71 75  1  0  0  0
 71144  1  0  0  0
 71145  1  0  0  0
 72 74  1  0  0  0
 72 75  1  0  0  0
 72146  1  0  0  0
 72147  1  0  0  0
 73 76  1  0  0  0
 73148  1  0  0  0
 73149  1  0  0  0
 74 76  1  0  0  0
 74150  1  0  0  0
 74151  1  0  0  0
 75 77  1  0  0  0
 75152  1  0  0  0
 76 78  1  0  0  0
 76153  1  0  0  0
 77 80  1  0  0  0
 77154  1  0  0  0
 77155  1  0  0  0
 78 83  1  0  0  0
 78156  1  0  0  0
 78157  1  0  0  0
 79 81  1  0  0  0
 79 82  1  0  0  0
 79158  1  0  0  0
 79159  1  0  0  0
 80 84  1  0  0  0
 80160  1  0  0  0
 80161  1  0  0  0
 81 84  1  0  0  0
 81162  1  0  0  0
 81163  1  0  0  0
 82164  1  0  0  0
 82165  1  0  0  0
 83166  1  0  0  0
 84167  1  0  0  0
 84168  1  0  0  0
M  CHG  1  84   1
M  ISO  4   1 100  68 101  82 101  83 100
M  END
> <chiral flag>
0

> <version>
0

> <s_m_source_file>
/data/baiqing/PycharmProjects/Reinvent-master-3.2/result/LINK_invent/BTK/process_docking_weight1_custom_sum_contain_oxygen_bond_distance_aromatic_linkinvent_7_9_3/rearranged_h_0126.sdf

> <i_m_source_file_index>
33

> <r_mmod_Potential_Energy-OPLS-2005>
-214.503067016602

> <r_mmod_Stretch_Energy-OPLS-2005>
29.7947196960449

> <r_mmod_Bend_Energy-OPLS-2005>
89.514030456543

> <r_mmod_Torsional_Energy-OPLS-2005>
254.552764892578

> <r_mmod_Improper_Torsional_Energy-OPLS-2005>
4.23271799087524

> <r_mmod_Van_der_Waal_Energy-OPLS-2005>
135.850479125977

> <r_mmod_Electrostatic_Energy-OPLS-2005>
-284.989105224609

> <r_mmod_Solvation_Energy-OPLS-2005>
-451.360076904297

> <b_mmod_Minimization_Converged-OPLS-2005>
0

> <r_mmod_RMS_Derivative-OPLS-2005>
1.66819453239441

$$$$
33
                    3D
 Structure written by MMmdl.
171180  0  0  1  0            999 V2000
  -30.3901  -15.3172   20.3811 C   0  0  0  0  0  0
  -30.4413  -12.8371   19.5646 C   0  0  0  0  0  0
  -29.5582  -12.6116   18.3086 C   0  0  0  0  0  0
  -28.1017  -12.3275   18.7126 C   0  0  0  0  0  0
  -27.6211  -13.2803   19.8347 C   0  0  2  0  0  0
  -28.6400  -13.4487   20.9835 C   0  0  0  0  0  0
  -25.2426  -13.8217   20.5580 C   0  0  0  0  0  0
  -24.1796  -13.0446   20.9194 C   0  0  0  0  0  0
  -24.6454  -11.6936   20.8744 C   0  0  0  0  0  0
  -23.9129  -10.4302   21.0398 C   0  0  0  0  0  0
  -24.3670   -9.4202   21.9169 C   0  0  0  0  0  0
  -23.6333   -8.2242   22.0751 C   0  0  0  0  0  0
  -22.4314   -8.0287   21.3534 C   0  0  0  0  0  0
  -21.9956   -9.0272   20.4643 C   0  0  0  0  0  0
  -22.7293  -10.2145   20.3052 C   0  0  0  0  0  0
  -21.6868   -6.0737   22.5266 C   0  0  0  0  0  0
  -21.4024   -6.5635   23.8200 C   0  0  0  0  0  0
  -21.3660   -5.6782   24.9159 C   0  0  0  0  0  0
  -21.6052   -4.3046   24.7203 C   0  0  0  0  0  0
  -21.8820   -3.8142   23.4322 C   0  0  0  0  0  0
  -21.9205   -4.6964   22.3386 C   0  0  0  0  0  0
  -22.7826  -13.5231   21.1849 C   0  0  0  0  0  0
  -22.1662   -4.2146   21.0961 F   0  0  0  0  0  0
  -21.5634   -3.4532   25.7713 F   0  0  0  0  0  0
  -29.8749  -13.9807   20.3869 N   0  0  0  0  0  0
  -26.2875  -12.9499   20.3186 N   0  0  0  0  0  0
  -25.9403  -11.6602   20.5723 N   0  0  0  0  0  0
  -22.0472  -12.8251   22.0426 N   0  0  0  0  0  0
  -25.4096  -15.1890   20.3733 N   0  0  0  0  0  0
  -31.5799  -15.3473   20.0310 O   0  0  0  0  0  0
  -21.6661   -6.8890   21.4233 O   0  0  0  0  0  0
  -22.3510  -14.5508   20.6635 O   0  0  0  0  0  0
  -24.6678  -31.8187   23.1662 C   0  0  0  0  0  0
  -25.9342  -32.4553   23.8141 C   0  0  1  0  0  0
  -27.2160  -26.8728   20.2160 C   0  0  0  0  0  0
  -25.5992  -33.8368   24.2034 N   0  0  0  0  0  0
  -23.4850  -30.4267   21.5165 C   0  0  2  0  0  0
  -24.9423  -28.8048   20.1130 C   0  0  0  0  0  0
  -22.7694  -29.4409   22.4775 C   0  0  0  0  0  0
  -18.0322  -28.1407   22.8469 C   0  0  0  0  0  0
  -24.1495  -36.7188   23.2647 C   0  0  0  0  0  0
  -26.0566  -30.6093   21.4073 C   0  0  0  0  0  0
  -26.1251  -29.1938   20.7539 C   0  0  0  0  0  0
  -27.2553  -28.2502   20.7790 C   0  0  0  0  0  0
  -26.0110  -26.6552   19.5093 C   0  0  0  0  0  0
  -24.9157  -27.5592   19.4650 C   0  0  0  0  0  0
  -23.7286  -29.7368   20.1443 C   0  0  0  0  0  0
  -25.4138  -36.2953   24.0296 C   0  0  1  0  0  0
  -20.5948  -28.3756   23.1186 C   0  0  2  0  0  0
  -20.6793  -26.9430   22.5410 C   0  0  0  0  0  0
  -19.5766  -26.6372   21.5222 C   0  0  0  0  0  0
  -18.1949  -26.7944   22.1628 C   0  0  0  0  0  0
  -19.1580  -28.8910   23.2810 C   0  0  0  0  0  0
  -18.9489  -30.1500   23.8835 C   0  0  0  0  0  0
  -17.6477  -30.6599   24.0548 C   0  0  0  0  0  0
  -25.9113  -34.9329   23.5004 C   0  0  0  0  0  0
  -16.5369  -29.9077   23.6349 C   0  0  0  0  0  0
  -16.7304  -28.6503   23.0367 C   0  0  0  0  0  0
  -26.4566  -31.6519   25.0697 C   0  0  0  0  0  0
  -25.3672  -31.3787   26.1344 C   0  0  0  0  0  0
  -27.0474  -30.2874   24.6492 C   0  0  0  0  0  0
  -27.6055  -32.4344   25.7502 C   0  0  0  0  0  0
  -27.5582  -37.1737   24.8447 C   0  0  0  0  0  0
  -21.4353  -29.3033   22.3526 N   0  0  0  0  0  0
  -26.4272  -37.3702   23.9427 N   0  0  0  0  0  0
  -24.7578  -30.9791   22.0829 N   0  0  0  0  0  0
  -23.4222  -28.7994   23.3046 O   0  0  0  0  0  0
  -28.1871  -25.7253   20.3348 O   0  0  0  0  0  0
  -26.5726  -34.8884   22.4597 O   0  0  0  0  0  0
  -23.5743  -32.1180   23.6723 O   0  0  0  0  0  0
  -30.4019  -20.2864   21.3584 C   0  0  0  0  0  0
  -30.5901  -21.6614   21.6853 C   0  0  0  0  0  0
  -29.3529  -19.8274   20.5352 C   0  0  0  0  0  0
  -28.4872  -21.0671   20.1651 C   0  0  0  0  0  0
  -28.7489  -22.5712   20.4977 C   0  0  0  0  0  0
  -23.5625  -16.5904   23.8916 C   0  0  0  0  0  0
  -23.4761  -17.6316   25.0163 C   0  0  0  0  0  0
  -24.4610  -17.2046   22.8106 C   0  0  0  0  0  0
  -24.4647  -18.7392   24.6369 C   0  0  0  0  0  0
  -24.4971  -18.7062   23.1056 C   0  0  0  0  0  0
  -29.4489  -18.1403   19.9882 C   0  0  0  0  0  0
  -27.2014  -20.7797   19.3879 C   0  0  0  0  0  0
  -27.8915  -24.0897   20.1181 C   0  0  0  0  0  0
  -25.6774  -19.4818   22.4728 C   0  0  0  0  0  0
  -25.7478  -19.3707   20.9290 C   0  0  0  0  0  0
  -29.8440  -22.7332   21.2793 N   0  0  0  0  0  0
  -29.6058  -16.5724   20.5990 N   0  0  0  0  0  0
  -25.9989  -20.6685   20.2562 N   0  3  0  0  0  0
  -31.4679  -13.0336   19.2540 H   0  0  0  0  0  0
  -30.4947  -11.9225   20.1578 H   0  0  0  0  0  0
  -29.9534  -11.7903   17.7097 H   0  0  0  0  0  0
  -29.5961  -13.4978   17.6724 H   0  0  0  0  0  0
  -28.0507  -11.2963   19.0611 H   0  0  0  0  0  0
  -27.4503  -12.3955   17.8401 H   0  0  0  0  0  0
  -27.5430  -14.2527   19.3480 H   0  0  0  0  0  0
  -28.8113  -12.5061   21.5061 H   0  0  0  0  0  0
  -28.2612  -14.1485   21.7297 H   0  0  0  0  0  0
  -25.2816   -9.5667   22.4740 H   0  0  0  0  0  0
  -24.0020   -7.4648   22.7499 H   0  0  0  0  0  0
  -21.0869   -8.8825   19.8983 H   0  0  0  0  0  0
  -22.3763  -10.9694   19.6167 H   0  0  0  0  0  0
  -21.2018   -7.6141   23.9700 H   0  0  0  0  0  0
  -21.1481   -6.0508   25.9057 H   0  0  0  0  0  0
  -22.0610   -2.7605   23.2819 H   0  0  0  0  0  0
  -22.4100  -11.9942   22.4855 H   0  0  0  0  0  0
  -21.1078  -13.1272   22.2552 H   0  0  0  0  0  0
  -24.6166  -15.8182   20.4065 H   0  0  0  0  0  0
  -26.2286  -15.5958   19.9434 H   0  0  0  0  0  0
  -26.7420  -32.5066   23.0852 H   0  0  0  0  0  0
  -25.0045  -33.9417   25.0132 H   0  0  0  0  0  0
  -22.8013  -31.2591   21.3392 H   0  0  0  0  0  0
  -23.3795  -35.9475   23.3223 H   0  0  0  0  0  0
  -24.3590  -36.8927   22.2080 H   0  0  0  0  0  0
  -23.7187  -37.6326   23.6757 H   0  0  0  0  0  0
  -26.2441  -31.3516   20.6300 H   0  0  0  0  0  0
  -26.9136  -30.6647   22.0671 H   0  0  0  0  0  0
  -28.1438  -28.5493   21.3189 H   0  0  0  0  0  0
  -25.8722  -25.7042   19.0162 H   0  0  0  0  0  0
  -24.0211  -27.2560   18.9391 H   0  0  0  0  0  0
  -23.8842  -30.5018   19.3819 H   0  0  0  0  0  0
  -22.8391  -29.1871   19.8305 H   0  0  0  0  0  0
  -25.1328  -36.1733   25.0783 H   0  0  0  0  0  0
  -21.0021  -28.3372   24.1316 H   0  0  0  0  0  0
  -20.5667  -26.2380   23.3660 H   0  0  0  0  0  0
  -21.6655  -26.7400   22.1212 H   0  0  0  0  0  0
  -19.6918  -25.6268   21.1289 H   0  0  0  0  0  0
  -19.6705  -27.3156   20.6732 H   0  0  0  0  0  0
  -17.4221  -26.6694   21.4026 H   0  0  0  0  0  0
  -18.0332  -26.0091   22.9028 H   0  0  0  0  0  0
  -19.7963  -30.7331   24.2174 H   0  0  0  0  0  0
  -17.5026  -31.6268   24.5160 H   0  0  0  0  0  0
  -15.5361  -30.2948   23.7706 H   0  0  0  0  0  0
  -15.8714  -28.0790   22.7114 H   0  0  0  0  0  0
  -24.5869  -30.7125   25.7632 H   0  0  0  0  0  0
  -24.8844  -32.2995   26.4631 H   0  0  0  0  0  0
  -25.7888  -30.9027   27.0206 H   0  0  0  0  0  0
  -26.3162  -29.6528   24.1475 H   0  0  0  0  0  0
  -27.3938  -29.7266   25.5179 H   0  0  0  0  0  0
  -27.9131  -30.4011   23.9968 H   0  0  0  0  0  0
  -27.2615  -33.3686   26.1945 H   0  0  0  0  0  0
  -28.3937  -32.6837   25.0386 H   0  0  0  0  0  0
  -28.0651  -31.8561   26.5524 H   0  0  0  0  0  0
  -28.2515  -38.0117   24.7609 H   0  0  0  0  0  0
  -28.1168  -36.2652   24.6131 H   0  0  0  0  0  0
  -27.2323  -37.1201   25.8851 H   0  0  0  0  0  0
  -20.9636  -29.8699   21.6611 H   0  0  0  0  0  0
  -26.0114  -38.2751   24.1487 H   0  0  0  0  0  0
  -31.1317  -19.5710   21.7145 H   0  0  0  0  0  0
  -31.4356  -21.9244   22.3036 H   0  0  0  0  0  0
  -22.5672  -16.3885   23.4912 H   0  0  0  0  0  0
  -23.9651  -15.6388   24.2431 H   0  0  0  0  0  0
  -23.6859  -17.2032   25.9974 H   0  0  0  0  0  0
  -22.4657  -18.0422   25.0510 H   0  0  0  0  0  0
  -24.0764  -16.9957   21.8137 H   0  0  0  0  0  0
  -25.4650  -16.7815   22.8830 H   0  0  0  0  0  0
  -25.4511  -18.5007   25.0401 H   0  0  0  0  0  0
  -24.1706  -19.7114   25.0343 H   0  0  0  0  0  0
  -23.5612  -19.1406   22.7452 H   0  0  0  0  0  0
  -30.2696  -18.1828   19.2702 H   0  0  0  0  0  0
  -28.5683  -18.0361   19.3559 H   0  0  0  0  0  0
  -27.3052  -19.8876   18.7695 H   0  0  0  0  0  0
  -27.0364  -21.5997   18.6881 H   0  0  0  0  0  0
  -26.9090  -23.9477   20.5678 H   0  0  0  0  0  0
  -27.7080  -24.0130   19.0467 H   0  0  0  0  0  0
  -26.6212  -19.1361   22.8989 H   0  0  0  0  0  0
  -25.5880  -20.5269   22.7706 H   0  0  0  0  0  0
  -24.7927  -19.0086   20.5474 H   0  0  0  0  0  0
  -26.4840  -18.6182   20.6447 H   0  0  0  0  0  0
  -28.7521  -16.3268   21.0776 H   0  0  0  0  0  0
  -25.2025  -20.8157   19.6532 H   0  0  0  0  0  0
  -25.9815  -21.4084   20.9359 H   0  0  0  0  0  0
  1 25  1  0  0  0
  1 30  2  0  0  0
  1 87  1  0  0  0
  2  3  1  0  0  0
  2 25  1  0  0  0
  2 89  1  0  0  0
  2 90  1  0  0  0
  3  4  1  0  0  0
  3 91  1  0  0  0
  3 92  1  0  0  0
  4  5  1  0  0  0
  4 93  1  0  0  0
  4 94  1  0  0  0
  5  6  1  0  0  0
  5 26  1  0  0  0
  5 95  1  0  0  0
  6 25  1  0  0  0
  6 96  1  0  0  0
  6 97  1  0  0  0
  7  8  2  0  0  0
  7 26  1  0  0  0
  7 29  1  0  0  0
  8  9  1  0  0  0
  8 22  1  0  0  0
  9 10  1  0  0  0
  9 27  2  0  0  0
 10 11  2  0  0  0
 10 15  1  0  0  0
 11 12  1  0  0  0
 11 98  1  0  0  0
 12 13  2  0  0  0
 12 99  1  0  0  0
 13 14  1  0  0  0
 13 31  1  0  0  0
 14 15  2  0  0  0
 14100  1  0  0  0
 15101  1  0  0  0
 16 17  2  0  0  0
 16 21  1  0  0  0
 16 31  1  0  0  0
 17 18  1  0  0  0
 17102  1  0  0  0
 18 19  2  0  0  0
 18103  1  0  0  0
 19 20  1  0  0  0
 19 24  1  0  0  0
 20 21  2  0  0  0
 20104  1  0  0  0
 21 23  1  0  0  0
 22 28  1  0  0  0
 22 32  2  0  0  0
 26 27  1  0  0  0
 28105  1  0  0  0
 28106  1  0  0  0
 29107  1  0  0  0
 29108  1  0  0  0
 33 34  1  0  0  0
 33 66  1  0  0  0
 33 70  2  0  0  0
 34 36  1  0  0  0
 34 59  1  0  0  0
 34109  1  0  0  0
 35 44  2  0  0  0
 35 45  1  0  0  0
 35 68  1  0  0  0
 36 56  1  0  0  0
 36110  1  0  0  0
 37 39  1  0  0  0
 37 47  1  0  0  0
 37 66  1  0  0  0
 37111  1  0  0  0
 38 43  2  0  0  0
 38 46  1  0  0  0
 38 47  1  0  0  0
 39 64  1  0  0  0
 39 67  2  0  0  0
 40 52  1  0  0  0
 40 53  2  0  0  0
 40 58  1  0  0  0
 41112  1  0  0  0
 41113  1  0  0  0
 41114  1  0  0  0
 41 48  1  0  0  0
 42 43  1  0  0  0
 42 66  1  0  0  0
 42115  1  0  0  0
 42116  1  0  0  0
 43 44  1  0  0  0
 44117  1  0  0  0
 45 46  2  0  0  0
 45118  1  0  0  0
 46119  1  0  0  0
 47120  1  0  0  0
 47121  1  0  0  0
 48 56  1  0  0  0
 48 65  1  0  0  0
 48122  1  0  0  0
 49 50  1  0  0  0
 49 53  1  0  0  0
 49 64  1  0  0  0
 49123  1  0  0  0
 50 51  1  0  0  0
 50124  1  0  0  0
 50125  1  0  0  0
 51 52  1  0  0  0
 51126  1  0  0  0
 51127  1  0  0  0
 52128  1  0  0  0
 52129  1  0  0  0
 53 54  1  0  0  0
 54 55  2  0  0  0
 54130  1  0  0  0
 55 57  1  0  0  0
 55131  1  0  0  0
 56 69  2  0  0  0
 57 58  2  0  0  0
 57132  1  0  0  0
 58133  1  0  0  0
 59 60  1  0  0  0
 59 61  1  0  0  0
 59 62  1  0  0  0
 60134  1  0  0  0
 60135  1  0  0  0
 60136  1  0  0  0
 61137  1  0  0  0
 61138  1  0  0  0
 61139  1  0  0  0
 62140  1  0  0  0
 62141  1  0  0  0
 62142  1  0  0  0
 63 65  1  0  0  0
 63143  1  0  0  0
 63144  1  0  0  0
 63145  1  0  0  0
 64146  1  0  0  0
 65147  1  0  0  0
 68 83  1  0  0  0
 71 72  2  0  0  0
 71 73  1  0  0  0
 71148  1  0  0  0
 72 86  1  0  0  0
 72149  1  0  0  0
 73 74  2  0  0  0
 73 81  1  0  0  0
 74 75  1  0  0  0
 74 82  1  0  0  0
 75 83  1  0  0  0
 75 86  2  0  0  0
 76 77  1  0  0  0
 76 78  1  0  0  0
 76150  1  0  0  0
 76151  1  0  0  0
 77 79  1  0  0  0
 77152  1  0  0  0
 77153  1  0  0  0
 78 80  1  0  0  0
 78154  1  0  0  0
 78155  1  0  0  0
 79 80  1  0  0  0
 79156  1  0  0  0
 79157  1  0  0  0
 80 84  1  0  0  0
 80158  1  0  0  0
 81 87  1  0  0  0
 81159  1  0  0  0
 81160  1  0  0  0
 82 88  1  0  0  0
 82161  1  0  0  0
 82162  1  0  0  0
 83163  1  0  0  0
 83164  1  0  0  0
 84 85  1  0  0  0
 84165  1  0  0  0
 84166  1  0  0  0
 85 88  1  0  0  0
 85167  1  0  0  0
 85168  1  0  0  0
 87169  1  0  0  0
 88170  1  0  0  0
 88171  1  0  0  0
M  CHG  1  88   1
M  ISO  4   1 100  68 101  83 101  87 100
M  END
> <chiral flag>
0

> <version>
0

> <s_m_source_file>
/data/baiqing/PycharmProjects/Reinvent-master-3.2/result/LINK_invent/BTK/process_docking_weight1_custom_sum_contain_oxygen_bond_distance_aromatic_linkinvent_7_9_3/rearranged_h_0126.sdf

> <i_m_source_file_index>
34

> <r_mmod_Potential_Energy-OPLS-2005>
1179.24365234375

> <r_mmod_Stretch_Energy-OPLS-2005>
658.76806640625

> <r_mmod_Bend_Energy-OPLS-2005>
491.332244873047

> <r_mmod_Torsional_Energy-OPLS-2005>
298.531616210938

> <r_mmod_Improper_Torsional_Energy-OPLS-2005>
6.62700796127319

> <r_mmod_Van_der_Waal_Energy-OPLS-2005>
105.423698425293

> <r_mmod_Electrostatic_Energy-OPLS-2005>
-390.555908203125

> <r_mmod_Solvation_Energy-OPLS-2005>
-524.710998535156

> <b_mmod_Minimization_Converged-OPLS-2005>
0

> <r_mmod_RMS_Derivative-OPLS-2005>
2.84530115127563

$$$$
34
                    3D
 Structure written by MMmdl.
170179  0  0  1  0            999 V2000
  -30.7068  -14.3950   20.5323 C   0  0  0  0  0  0
  -30.4257  -12.2489   19.4095 C   0  0  0  0  0  0
  -29.4912  -12.4863   18.2030 C   0  0  0  0  0  0
  -28.0133  -12.3540   18.6158 C   0  0  0  0  0  0
  -27.6704  -13.1771   19.8848 C   0  0  2  0  0  0
  -28.7162  -12.9303   21.0016 C   0  0  0  0  0  0
  -25.2677  -13.8080   20.5687 C   0  0  0  0  0  0
  -24.1872  -13.0417   20.9141 C   0  0  0  0  0  0
  -24.6363  -11.6854   20.8716 C   0  0  0  0  0  0
  -23.9013  -10.4279   21.0400 C   0  0  0  0  0  0
  -24.3582   -9.4193   21.9163 C   0  0  0  0  0  0
  -23.6279   -8.2207   22.0736 C   0  0  0  0  0  0
  -22.4255   -8.0268   21.3530 C   0  0  0  0  0  0
  -21.9862   -9.0243   20.4619 C   0  0  0  0  0  0
  -22.7190  -10.2121   20.3037 C   0  0  0  0  0  0
  -21.6861   -6.0731   22.5284 C   0  0  0  0  0  0
  -21.4005   -6.5655   23.8206 C   0  0  0  0  0  0
  -21.3645   -5.6812   24.9177 C   0  0  0  0  0  0
  -21.6037   -4.3072   24.7241 C   0  0  0  0  0  0
  -21.8816   -3.8154   23.4364 C   0  0  0  0  0  0
  -21.9196   -4.6955   22.3413 C   0  0  0  0  0  0
  -22.7915  -13.5259   21.1868 C   0  0  0  0  0  0
  -22.1665   -4.2120   21.0994 F   0  0  0  0  0  0
  -21.5622   -3.4544   25.7738 F   0  0  0  0  0  0
  -30.0558  -13.2096   20.4576 N   0  0  0  0  0  0
  -26.3076  -12.9182   20.3419 N   0  0  0  0  0  0
  -25.9283  -11.6378   20.5759 N   0  0  0  0  0  0
  -22.0572  -12.8159   22.0373 N   0  0  0  0  0  0
  -25.4529  -15.1758   20.4064 N   0  0  0  0  0  0
  -31.8553  -14.5834   20.1242 O   0  0  0  0  0  0
  -21.6649   -6.8843   21.4223 O   0  0  0  0  0  0
  -22.3599  -14.5643   20.6854 O   0  0  0  0  0  0
  -24.6092  -31.8705   23.2174 C   0  0  0  0  0  0
  -25.9001  -32.4853   23.8447 C   0  0  1  0  0  0
  -27.2233  -27.4781   20.0846 C   0  0  0  0  0  0
  -25.5879  -33.8657   24.2372 N   0  0  0  0  0  0
  -23.3958  -30.4942   21.5587 C   0  0  2  0  0  0
  -24.8370  -28.9602   20.1258 C   0  0  0  0  0  0
  -22.7402  -29.4654   22.5072 C   0  0  0  0  0  0
  -18.0256  -28.1385   22.8487 C   0  0  0  0  0  0
  -24.1472  -36.7315   23.2640 C   0  0  0  0  0  0
  -25.9189  -30.8458   21.3669 C   0  0  0  0  0  0
  -25.9936  -29.4804   20.7224 C   0  0  0  0  0  0
  -27.1917  -28.7398   20.7104 C   0  0  0  0  0  0
  -26.0522  -26.9493   19.5046 C   0  0  0  0  0  0
  -24.8571  -27.6888   19.5225 C   0  0  0  0  0  0
  -23.6018  -29.8274   20.1729 C   0  0  0  0  0  0
  -25.4096  -36.3137   24.0351 C   0  0  1  0  0  0
  -20.5840  -28.3641   23.1361 C   0  0  2  0  0  0
  -20.6746  -26.9390   22.5438 C   0  0  0  0  0  0
  -19.5737  -26.6385   21.5224 C   0  0  0  0  0  0
  -18.1905  -26.7938   22.1608 C   0  0  0  0  0  0
  -19.1506  -28.8844   23.2910 C   0  0  0  0  0  0
  -18.9427  -30.1448   23.8926 C   0  0  0  0  0  0
  -17.6426  -30.6577   24.0576 C   0  0  0  0  0  0
  -25.9021  -34.9502   23.5150 C   0  0  0  0  0  0
  -16.5320  -29.9078   23.6333 C   0  0  0  0  0  0
  -16.7240  -28.6500   23.0345 C   0  0  0  0  0  0
  -26.4455  -31.6639   25.0768 C   0  0  0  0  0  0
  -25.3758  -31.3714   26.1548 C   0  0  0  0  0  0
  -27.0269  -30.3095   24.6102 C   0  0  0  0  0  0
  -27.6049  -32.4376   25.7502 C   0  0  0  0  0  0
  -27.5584  -37.1803   24.8454 C   0  0  0  0  0  0
  -21.4135  -29.3009   22.3796 N   0  0  0  0  0  0
  -26.4277  -37.3824   23.9432 N   0  0  0  0  0  0
  -24.6598  -31.0841   22.1062 N   0  0  0  0  0  0
  -23.4195  -28.8199   23.3088 O   0  0  0  0  0  0
  -28.4075  -26.8040   19.9843 O   0  0  0  0  0  0
  -26.5575  -34.8934   22.4715 O   0  0  0  0  0  0
  -23.5299  -32.1450   23.7590 O   0  0  0  0  0  0
  -28.9918  -24.3234   18.4539 C   0  0  0  0  0  0
  -28.8930  -23.1788   17.6543 C   0  0  0  0  0  0
  -28.1566  -25.5847   16.5700 C   0  0  0  0  0  0
  -28.6506  -25.5605   17.8886 C   0  0  0  0  0  0
  -28.4563  -23.2989   16.3186 C   0  0  0  0  0  0
  -28.4987  -20.0836   16.6760 C   0  0  0  0  0  0
  -30.7077  -21.1990   15.8908 C   0  0  0  0  0  0
  -27.7591  -21.0242   15.7028 C   0  0  0  0  0  0
  -29.8516  -21.9748   14.8758 C   0  0  0  0  0  0
  -30.0165  -19.9010   16.3688 C   0  0  0  0  0  0
  -28.9272  -26.8320   18.6583 C   0  0  0  0  0  0
  -30.7690  -19.3048   17.5825 C   0  0  0  0  0  0
  -29.6182  -16.2894   19.5316 C   0  0  0  0  0  0
  -30.6725  -17.3530   19.1731 C   0  0  0  0  0  0
  -28.0621  -24.4781   15.7985 N   0  0  0  0  0  0
  -28.5163  -22.2342   15.4066 N   0  0  0  0  0  0
  -29.8840  -15.4348   20.6888 N   0  0  0  0  0  0
  -30.2579  -17.9578   17.8912 N   0  3  0  0  0  0
  -31.4690  -12.3463   19.1016 H   0  0  0  0  0  0
  -30.3225  -11.2295   19.7799 H   0  0  0  0  0  0
  -29.7139  -11.7759   17.4059 H   0  0  0  0  0  0
  -29.6676  -13.4752   17.7790 H   0  0  0  0  0  0
  -27.8154  -11.2974   18.8050 H   0  0  0  0  0  0
  -27.3633  -12.6412   17.7871 H   0  0  0  0  0  0
  -27.7196  -14.2221   19.5917 H   0  0  0  0  0  0
  -28.6745  -11.8855   21.3178 H   0  0  0  0  0  0
  -28.5055  -13.5263   21.8907 H   0  0  0  0  0  0
  -25.2732   -9.5665   22.4718 H   0  0  0  0  0  0
  -23.9989   -7.4596   22.7469 H   0  0  0  0  0  0
  -21.0763   -8.8754   19.8931 H   0  0  0  0  0  0
  -22.3643  -10.9664   19.6126 H   0  0  0  0  0  0
  -21.1980   -7.6156   23.9702 H   0  0  0  0  0  0
  -21.1472   -6.0546   25.9077 H   0  0  0  0  0  0
  -22.0591   -2.7604   23.2901 H   0  0  0  0  0  0
  -22.4275  -11.9751   22.4559 H   0  0  0  0  0  0
  -21.1254  -13.1185   22.2824 H   0  0  0  0  0  0
  -24.6941  -15.8469   20.4742 H   0  0  0  0  0  0
  -26.3137  -15.5847   20.0686 H   0  0  0  0  0  0
  -26.7079  -32.5568   23.1223 H   0  0  0  0  0  0
  -25.0102  -33.9853   25.0566 H   0  0  0  0  0  0
  -22.6819  -31.3089   21.4235 H   0  0  0  0  0  0
  -23.3757  -35.9618   23.3298 H   0  0  0  0  0  0
  -24.3568  -36.8927   22.2051 H   0  0  0  0  0  0
  -23.7177  -37.6502   23.6657 H   0  0  0  0  0  0
  -26.0280  -31.6104   20.5969 H   0  0  0  0  0  0
  -26.8091  -30.8994   21.9817 H   0  0  0  0  0  0
  -28.0944  -29.1456   21.1479 H   0  0  0  0  0  0
  -26.0723  -25.9806   19.0250 H   0  0  0  0  0  0
  -23.9662  -27.2846   19.0614 H   0  0  0  0  0  0
  -23.7154  -30.6030   19.4146 H   0  0  0  0  0  0
  -22.7248  -29.2498   19.8751 H   0  0  0  0  0  0
  -25.1264  -36.2011   25.0840 H   0  0  0  0  0  0
  -20.9902  -28.3165   24.1492 H   0  0  0  0  0  0
  -20.5658  -26.2238   23.3604 H   0  0  0  0  0  0
  -21.6618  -26.7443   22.1229 H   0  0  0  0  0  0
  -19.6896  -25.6296   21.1254 H   0  0  0  0  0  0
  -19.6709  -27.3203   20.6765 H   0  0  0  0  0  0
  -17.4197  -26.6713   21.3981 H   0  0  0  0  0  0
  -18.0264  -26.0063   22.8980 H   0  0  0  0  0  0
  -19.7906  -30.7263   24.2304 H   0  0  0  0  0  0
  -17.4978  -31.6274   24.5146 H   0  0  0  0  0  0
  -15.5324  -30.2987   23.7656 H   0  0  0  0  0  0
  -15.8634  -28.0834   22.7049 H   0  0  0  0  0  0
  -24.5948  -30.7021   25.7920 H   0  0  0  0  0  0
  -24.8931  -32.2842   26.5053 H   0  0  0  0  0  0
  -25.8153  -30.8889   27.0286 H   0  0  0  0  0  0
  -26.2772  -29.6883   24.1177 H   0  0  0  0  0  0
  -27.4067  -29.7309   25.4530 H   0  0  0  0  0  0
  -27.8614  -30.4443   23.9217 H   0  0  0  0  0  0
  -27.2668  -33.3656   26.2136 H   0  0  0  0  0  0
  -28.3806  -32.6977   25.0287 H   0  0  0  0  0  0
  -28.0790  -31.8489   26.5365 H   0  0  0  0  0  0
  -28.2589  -38.0118   24.7559 H   0  0  0  0  0  0
  -28.1091  -36.2660   24.6199 H   0  0  0  0  0  0
  -27.2325  -37.1352   25.8860 H   0  0  0  0  0  0
  -20.9306  -29.8745   21.7031 H   0  0  0  0  0  0
  -26.0172  -38.2891   24.1492 H   0  0  0  0  0  0
  -29.3791  -24.2534   19.4605 H   0  0  0  0  0  0
  -29.2418  -22.2526   18.0756 H   0  0  0  0  0  0
  -27.8644  -26.5141   16.1016 H   0  0  0  0  0  0
  -28.0011  -19.1140   16.6426 H   0  0  0  0  0  0
  -28.3294  -20.4280   17.6948 H   0  0  0  0  0  0
  -30.9614  -21.8495   16.7280 H   0  0  0  0  0  0
  -31.6686  -20.9558   15.4326 H   0  0  0  0  0  0
  -26.7796  -21.2912   16.0989 H   0  0  0  0  0  0
  -27.5747  -20.5009   14.7627 H   0  0  0  0  0  0
  -29.7602  -21.3915   13.9574 H   0  0  0  0  0  0
  -30.3341  -22.9122   14.5943 H   0  0  0  0  0  0
  -30.0865  -19.2056   15.5326 H   0  0  0  0  0  0
  -28.5759  -27.6988   18.0918 H   0  0  0  0  0  0
  -30.0089  -26.9419   18.7263 H   0  0  0  0  0  0
  -30.6433  -19.9554   18.4505 H   0  0  0  0  0  0
  -31.8436  -19.2527   17.3870 H   0  0  0  0  0  0
  -29.4774  -15.6423   18.6629 H   0  0  0  0  0  0
  -28.6534  -16.7724   19.6849 H   0  0  0  0  0  0
  -31.6720  -16.9314   19.0549 H   0  0  0  0  0  0
  -30.7300  -18.1036   19.9650 H   0  0  0  0  0  0
  -29.0582  -15.2233   21.2326 H   0  0  0  0  0  0
  -30.5134  -17.3307   17.1443 H   0  0  0  0  0  0
  -29.2532  -18.0190   17.9100 H   0  0  0  0  0  0
  1 25  1  0  0  0
  1 30  2  0  0  0
  1 87  1  0  0  0
  2  3  1  0  0  0
  2 25  1  0  0  0
  2 89  1  0  0  0
  2 90  1  0  0  0
  3  4  1  0  0  0
  3 91  1  0  0  0
  3 92  1  0  0  0
  4  5  1  0  0  0
  4 93  1  0  0  0
  4 94  1  0  0  0
  5  6  1  0  0  0
  5 26  1  0  0  0
  5 95  1  0  0  0
  6 25  1  0  0  0
  6 96  1  0  0  0
  6 97  1  0  0  0
  7  8  2  0  0  0
  7 26  1  0  0  0
  7 29  1  0  0  0
  8  9  1  0  0  0
  8 22  1  0  0  0
  9 10  1  0  0  0
  9 27  2  0  0  0
 10 11  2  0  0  0
 10 15  1  0  0  0
 11 12  1  0  0  0
 11 98  1  0  0  0
 12 13  2  0  0  0
 12 99  1  0  0  0
 13 14  1  0  0  0
 13 31  1  0  0  0
 14 15  2  0  0  0
 14100  1  0  0  0
 15101  1  0  0  0
 16 17  2  0  0  0
 16 21  1  0  0  0
 16 31  1  0  0  0
 17 18  1  0  0  0
 17102  1  0  0  0
 18 19  2  0  0  0
 18103  1  0  0  0
 19 20  1  0  0  0
 19 24  1  0  0  0
 20 21  2  0  0  0
 20104  1  0  0  0
 21 23  1  0  0  0
 22 28  1  0  0  0
 22 32  2  0  0  0
 26 27  1  0  0  0
 28105  1  0  0  0
 28106  1  0  0  0
 29107  1  0  0  0
 29108  1  0  0  0
 33 34  1  0  0  0
 33 66  1  0  0  0
 33 70  2  0  0  0
 34 36  1  0  0  0
 34 59  1  0  0  0
 34109  1  0  0  0
 35 44  2  0  0  0
 35 45  1  0  0  0
 35 68  1  0  0  0
 36 56  1  0  0  0
 36110  1  0  0  0
 37 39  1  0  0  0
 37 47  1  0  0  0
 37 66  1  0  0  0
 37111  1  0  0  0
 38 43  2  0  0  0
 38 46  1  0  0  0
 38 47  1  0  0  0
 39 64  1  0  0  0
 39 67  2  0  0  0
 40 52  1  0  0  0
 40 53  2  0  0  0
 40 58  1  0  0  0
 41112  1  0  0  0
 41113  1  0  0  0
 41114  1  0  0  0
 41 48  1  0  0  0
 42 43  1  0  0  0
 42 66  1  0  0  0
 42115  1  0  0  0
 42116  1  0  0  0
 43 44  1  0  0  0
 44117  1  0  0  0
 45 46  2  0  0  0
 45118  1  0  0  0
 46119  1  0  0  0
 47120  1  0  0  0
 47121  1  0  0  0
 48 56  1  0  0  0
 48 65  1  0  0  0
 48122  1  0  0  0
 49 50  1  0  0  0
 49 53  1  0  0  0
 49 64  1  0  0  0
 49123  1  0  0  0
 50 51  1  0  0  0
 50124  1  0  0  0
 50125  1  0  0  0
 51 52  1  0  0  0
 51126  1  0  0  0
 51127  1  0  0  0
 52128  1  0  0  0
 52129  1  0  0  0
 53 54  1  0  0  0
 54 55  2  0  0  0
 54130  1  0  0  0
 55 57  1  0  0  0
 55131  1  0  0  0
 56 69  2  0  0  0
 57 58  2  0  0  0
 57132  1  0  0  0
 58133  1  0  0  0
 59 60  1  0  0  0
 59 61  1  0  0  0
 59 62  1  0  0  0
 60134  1  0  0  0
 60135  1  0  0  0
 60136  1  0  0  0
 61137  1  0  0  0
 61138  1  0  0  0
 61139  1  0  0  0
 62140  1  0  0  0
 62141  1  0  0  0
 62142  1  0  0  0
 63 65  1  0  0  0
 63143  1  0  0  0
 63144  1  0  0  0
 63145  1  0  0  0
 64146  1  0  0  0
 65147  1  0  0  0
 68 81  1  0  0  0
 71 72  2  0  0  0
 71 74  1  0  0  0
 71148  1  0  0  0
 72 75  1  0  0  0
 72149  1  0  0  0
 73 74  2  0  0  0
 73 85  1  0  0  0
 73150  1  0  0  0
 74 81  1  0  0  0
 75 85  2  0  0  0
 75 86  1  0  0  0
 76 78  1  0  0  0
 76 80  1  0  0  0
 76151  1  0  0  0
 76152  1  0  0  0
 77 79  1  0  0  0
 77 80  1  0  0  0
 77153  1  0  0  0
 77154  1  0  0  0
 78 86  1  0  0  0
 78155  1  0  0  0
 78156  1  0  0  0
 79 86  1  0  0  0
 79157  1  0  0  0
 79158  1  0  0  0
 80 82  1  0  0  0
 80159  1  0  0  0
 81160  1  0  0  0
 81161  1  0  0  0
 82 88  1  0  0  0
 82162  1  0  0  0
 82163  1  0  0  0
 83 84  1  0  0  0
 83 87  1  0  0  0
 83164  1  0  0  0
 83165  1  0  0  0
 84 88  1  0  0  0
 84166  1  0  0  0
 84167  1  0  0  0
 87168  1  0  0  0
 88169  1  0  0  0
 88170  1  0  0  0
M  CHG  1  88   1
M  ISO  4   1 100  68 101  81 101  87 100
M  END
> <chiral flag>
0

> <version>
0

> <s_m_source_file>
/data/baiqing/PycharmProjects/Reinvent-master-3.2/result/LINK_invent/BTK/process_docking_weight1_custom_sum_contain_oxygen_bond_distance_aromatic_linkinvent_7_9_3/rearranged_h_0126.sdf

> <i_m_source_file_index>
35

> <r_mmod_Potential_Energy-OPLS-2005>
-333.054077148438

> <r_mmod_Stretch_Energy-OPLS-2005>
31.7652072906494

> <r_mmod_Bend_Energy-OPLS-2005>
104.206909179688

> <r_mmod_Torsional_Energy-OPLS-2005>
344.770324707031

> <r_mmod_Improper_Torsional_Energy-OPLS-2005>
20.2921180725098

> <r_mmod_Van_der_Waal_Energy-OPLS-2005>
166.389709472656

> <r_mmod_Electrostatic_Energy-OPLS-2005>
-490.543701171875

> <r_mmod_Solvation_Energy-OPLS-2005>
-521.449157714844

> <b_mmod_Minimization_Converged-OPLS-2005>
0

> <r_mmod_RMS_Derivative-OPLS-2005>
4.74026870727539

$$$$
35
                    3D
 Structure written by MMmdl.
167175  0  0  1  0            999 V2000
  -30.8016  -14.3660   20.6774 C   0  0  0  0  0  0
  -30.4138  -12.2930   19.3987 C   0  0  0  0  0  0
  -29.4828  -12.5198   18.1952 C   0  0  0  0  0  0
  -28.0111  -12.3688   18.6187 C   0  0  0  0  0  0
  -27.6671  -13.2074   19.8772 C   0  0  2  0  0  0
  -28.7081  -12.9814   20.9972 C   0  0  0  0  0  0
  -25.2612  -13.8160   20.5683 C   0  0  0  0  0  0
  -24.1857  -13.0435   20.9161 C   0  0  0  0  0  0
  -24.6412  -11.6901   20.8731 C   0  0  0  0  0  0
  -23.9076  -10.4291   21.0403 C   0  0  0  0  0  0
  -24.3626   -9.4201   21.9180 C   0  0  0  0  0  0
  -23.6295   -8.2245   22.0749 C   0  0  0  0  0  0
  -22.4278   -8.0287   21.3548 C   0  0  0  0  0  0
  -21.9911   -9.0261   20.4649 C   0  0  0  0  0  0
  -22.7243  -10.2136   20.3051 C   0  0  0  0  0  0
  -21.6851   -6.0740   22.5278 C   0  0  0  0  0  0
  -21.4016   -6.5643   23.8211 C   0  0  0  0  0  0
  -21.3656   -5.6793   24.9174 C   0  0  0  0  0  0
  -21.6042   -4.3056   24.7219 C   0  0  0  0  0  0
  -21.8819   -3.8146   23.4338 C   0  0  0  0  0  0
  -21.9196   -4.6967   22.3397 C   0  0  0  0  0  0
  -22.7882  -13.5244   21.1836 C   0  0  0  0  0  0
  -22.1664   -4.2155   21.0971 F   0  0  0  0  0  0
  -21.5625   -3.4533   25.7727 F   0  0  0  0  0  0
  -30.0529  -13.2542   20.4524 N   0  0  0  0  0  0
  -26.3063  -12.9339   20.3393 N   0  0  0  0  0  0
  -25.9345  -11.6496   20.5771 N   0  0  0  0  0  0
  -22.0530  -12.8231   22.0391 N   0  0  0  0  0  0
  -25.4336  -15.1877   20.4113 N   0  0  0  0  0  0
  -31.8157  -14.6406   20.0305 O   0  0  0  0  0  0
  -21.6639   -6.8880   21.4244 O   0  0  0  0  0  0
  -22.3562  -14.5559   20.6705 O   0  0  0  0  0  0
  -24.6158  -31.8677   23.2128 C   0  0  0  0  0  0
  -25.9056  -32.4817   23.8414 C   0  0  1  0  0  0
  -27.2270  -27.4402   20.0791 C   0  0  0  0  0  0
  -25.5927  -33.8621   24.2342 N   0  0  0  0  0  0
  -23.4015  -30.4969   21.5533 C   0  0  2  0  0  0
  -24.8439  -28.9731   20.1100 C   0  0  0  0  0  0
  -22.7399  -29.4672   22.4988 C   0  0  0  0  0  0
  -18.0274  -28.1354   22.8490 C   0  0  0  0  0  0
  -24.1503  -36.7328   23.2638 C   0  0  0  0  0  0
  -25.9321  -30.8348   21.3677 C   0  0  0  0  0  0
  -26.0053  -29.4728   20.7093 C   0  0  0  0  0  0
  -27.1980  -28.7132   20.6944 C   0  0  0  0  0  0
  -26.0459  -26.9717   19.4509 C   0  0  0  0  0  0
  -24.8582  -27.7207   19.4788 C   0  0  0  0  0  0
  -23.6065  -29.8380   20.1649 C   0  0  0  0  0  0
  -25.4117  -36.3113   24.0331 C   0  0  1  0  0  0
  -20.5865  -28.3652   23.1307 C   0  0  2  0  0  0
  -20.6761  -26.9385   22.5417 C   0  0  0  0  0  0
  -19.5751  -26.6372   21.5207 C   0  0  0  0  0  0
  -18.1921  -26.7911   22.1602 C   0  0  0  0  0  0
  -19.1520  -28.8827   23.2897 C   0  0  0  0  0  0
  -18.9454  -30.1440   23.8903 C   0  0  0  0  0  0
  -17.6451  -30.6561   24.0578 C   0  0  0  0  0  0
  -25.9042  -34.9475   23.5129 C   0  0  0  0  0  0
  -16.5346  -29.9063   23.6321 C   0  0  0  0  0  0
  -16.7262  -28.6480   23.0340 C   0  0  0  0  0  0
  -26.4482  -31.6586   25.0728 C   0  0  0  0  0  0
  -25.3757  -31.3686   26.1490 C   0  0  0  0  0  0
  -27.0277  -30.3015   24.6105 C   0  0  0  0  0  0
  -27.6092  -32.4288   25.7436 C   0  0  0  0  0  0
  -27.5597  -37.1813   24.8461 C   0  0  0  0  0  0
  -21.4135  -29.3032   22.3726 N   0  0  0  0  0  0
  -26.4306  -37.3789   23.9404 N   0  0  0  0  0  0
  -24.6681  -31.0806   22.1027 N   0  0  0  0  0  0
  -23.4178  -28.8206   23.3026 O   0  0  0  0  0  0
  -28.3977  -26.7031   20.1156 O   0  0  0  0  0  0
  -26.5591  -34.8920   22.4683 O   0  0  0  0  0  0
  -23.5348  -32.1418   23.7530 O   0  0  0  0  0  0
  -30.4111  -21.7173   21.0379 C   0  0  0  0  0  0
  -30.7783  -20.3559   21.0537 C   0  0  0  0  0  0
  -29.0398  -22.0619   21.0758 C   0  0  0  0  0  0
  -28.1052  -20.9990   21.1090 C   0  0  0  0  0  0
  -29.7689  -19.3778   21.1379 C   0  0  0  0  0  0
  -25.9633  -20.5569   19.8477 C   0  0  0  0  0  0
  -31.3261  -17.4663   21.4955 C   0  0  0  0  0  0
  -31.2461  -16.1718   22.3279 C   0  0  0  0  0  0
  -25.8910  -20.8496   22.3892 C   0  0  0  0  0  0
  -28.3185  -25.3104   19.7753 C   0  0  0  0  0  0
  -29.3282  -24.4211   20.5298 C   0  0  0  0  0  0
  -26.5958  -21.2475   21.0720 C   0  0  1  0  0  0
  -28.4689  -19.6978   21.1652 N   0  0  0  0  0  0
  -30.0052  -18.0039   21.2035 N   0  0  0  0  0  0
  -30.4277  -15.1184   21.7198 N   0  0  0  0  0  0
  -26.3019  -21.6730   23.5429 N   0  3  0  0  0  0
  -28.5719  -23.3589   21.1210 O   0  0  0  0  0  0
  -31.4573  -12.3791   19.0911 H   0  0  0  0  0  0
  -30.3040  -11.2761   19.7795 H   0  0  0  0  0  0
  -29.7172  -11.8114   17.4000 H   0  0  0  0  0  0
  -29.6487  -13.5149   17.7796 H   0  0  0  0  0  0
  -27.8321  -11.3113   18.8196 H   0  0  0  0  0  0
  -27.3507  -12.6371   17.7942 H   0  0  0  0  0  0
  -27.7176  -14.2566   19.5846 H   0  0  0  0  0  0
  -28.6680  -11.9497   21.3512 H   0  0  0  0  0  0
  -28.4587  -13.5954   21.8626 H   0  0  0  0  0  0
  -25.2773   -9.5670   22.4749 H   0  0  0  0  0  0
  -24.0000   -7.4632   22.7466 H   0  0  0  0  0  0
  -21.0838   -8.8791   19.8958 H   0  0  0  0  0  0
  -22.3713  -10.9681   19.6157 H   0  0  0  0  0  0
  -21.2014   -7.6151   23.9717 H   0  0  0  0  0  0
  -21.1475   -6.0520   25.9074 H   0  0  0  0  0  0
  -22.0602   -2.7612   23.2834 H   0  0  0  0  0  0
  -22.4143  -11.9882   22.4758 H   0  0  0  0  0  0
  -21.1152  -13.1259   22.2628 H   0  0  0  0  0  0
  -24.6689  -15.8442   20.5194 H   0  0  0  0  0  0
  -26.2960  -15.6281   20.1148 H   0  0  0  0  0  0
  -26.7125  -32.5528   23.1180 H   0  0  0  0  0  0
  -25.0116  -33.9794   25.0517 H   0  0  0  0  0  0
  -22.6916  -31.3152   21.4180 H   0  0  0  0  0  0
  -23.3749  -35.9675   23.3303 H   0  0  0  0  0  0
  -24.3616  -36.8922   22.2054 H   0  0  0  0  0  0
  -23.7269  -37.6547   23.6639 H   0  0  0  0  0  0
  -26.0531  -31.6040   20.6026 H   0  0  0  0  0  0
  -26.8169  -30.8781   21.9907 H   0  0  0  0  0  0
  -28.0946  -29.0967   21.1613 H   0  0  0  0  0  0
  -26.0070  -26.0352   18.9154 H   0  0  0  0  0  0
  -23.9696  -27.3384   18.9969 H   0  0  0  0  0  0
  -23.7134  -30.6166   19.4088 H   0  0  0  0  0  0
  -22.7299  -29.2593   19.8691 H   0  0  0  0  0  0
  -25.1285  -36.1991   25.0819 H   0  0  0  0  0  0
  -20.9962  -28.3210   24.1423 H   0  0  0  0  0  0
  -20.5652  -26.2254   23.3599 H   0  0  0  0  0  0
  -21.6635  -26.7410   22.1225 H   0  0  0  0  0  0
  -19.6916  -25.6289   21.1223 H   0  0  0  0  0  0
  -19.6703  -27.3204   20.6759 H   0  0  0  0  0  0
  -17.4205  -26.6701   21.3983 H   0  0  0  0  0  0
  -18.0297  -26.0011   22.8957 H   0  0  0  0  0  0
  -19.7930  -30.7274   24.2246 H   0  0  0  0  0  0
  -17.4998  -31.6239   24.5197 H   0  0  0  0  0  0
  -15.5349  -30.2986   23.7617 H   0  0  0  0  0  0
  -15.8654  -28.0818   22.7030 H   0  0  0  0  0  0
  -24.6017  -30.6893   25.7894 H   0  0  0  0  0  0
  -24.8836  -32.2804   26.4877 H   0  0  0  0  0  0
  -25.8147  -30.8978   27.0295 H   0  0  0  0  0  0
  -26.2783  -29.6781   24.1209 H   0  0  0  0  0  0
  -27.4070  -29.7258   25.4564 H   0  0  0  0  0  0
  -27.8623  -30.4300   23.9202 H   0  0  0  0  0  0
  -27.2765  -33.3598   26.2037 H   0  0  0  0  0  0
  -28.3864  -32.6831   25.0211 H   0  0  0  0  0  0
  -28.0803  -31.8389   26.5306 H   0  0  0  0  0  0
  -28.2637  -38.0100   24.7496 H   0  0  0  0  0  0
  -28.1059  -36.2626   24.6274 H   0  0  0  0  0  0
  -27.2314  -37.1465   25.8867 H   0  0  0  0  0  0
  -20.9286  -29.8786   21.6983 H   0  0  0  0  0  0
  -26.0196  -38.2865   24.1397 H   0  0  0  0  0  0
  -31.1810  -22.4747   21.0178 H   0  0  0  0  0  0
  -31.8260  -20.0958   21.0151 H   0  0  0  0  0  0
  -26.4332  -20.9002   18.9261 H   0  0  0  0  0  0
  -24.8972  -20.7693   19.7740 H   0  0  0  0  0  0
  -26.0818  -19.4739   19.8940 H   0  0  0  0  0  0
  -31.8497  -17.2917   20.5547 H   0  0  0  0  0  0
  -31.9191  -18.1908   22.0545 H   0  0  0  0  0  0
  -30.8382  -16.3951   23.3135 H   0  0  0  0  0  0
  -32.2559  -15.7934   22.5010 H   0  0  0  0  0  0
  -26.0801  -19.7982   22.6129 H   0  0  0  0  0  0
  -24.8114  -20.9519   22.2730 H   0  0  0  0  0  0
  -27.3389  -24.9050   20.0272 H   0  0  0  0  0  0
  -28.4373  -25.1916   18.6977 H   0  0  0  0  0  0
  -29.8221  -24.9804   21.3243 H   0  0  0  0  0  0
  -30.0978  -24.0794   19.8363 H   0  0  0  0  0  0
  -26.4199  -22.3127   20.9222 H   0  0  0  0  0  0
  -29.2106  -17.3937   21.3500 H   0  0  0  0  0  0
  -29.6045  -14.8217   22.2219 H   0  0  0  0  0  0
  -27.2876  -21.5915   23.7167 H   0  0  0  0  0  0
  -25.8155  -21.3659   24.3671 H   0  0  0  0  0  0
  -26.0774  -22.6407   23.3922 H   0  0  0  0  0  0
  1 25  1  0  0  0
  1 30  2  0  0  0
  1 85  1  0  0  0
  2  3  1  0  0  0
  2 25  1  0  0  0
  2 88  1  0  0  0
  2 89  1  0  0  0
  3  4  1  0  0  0
  3 90  1  0  0  0
  3 91  1  0  0  0
  4  5  1  0  0  0
  4 92  1  0  0  0
  4 93  1  0  0  0
  5  6  1  0  0  0
  5 26  1  0  0  0
  5 94  1  0  0  0
  6 25  1  0  0  0
  6 95  1  0  0  0
  6 96  1  0  0  0
  7  8  2  0  0  0
  7 26  1  0  0  0
  7 29  1  0  0  0
  8  9  1  0  0  0
  8 22  1  0  0  0
  9 10  1  0  0  0
  9 27  2  0  0  0
 10 11  2  0  0  0
 10 15  1  0  0  0
 11 12  1  0  0  0
 11 97  1  0  0  0
 12 13  2  0  0  0
 12 98  1  0  0  0
 13 14  1  0  0  0
 13 31  1  0  0  0
 14 15  2  0  0  0
 14 99  1  0  0  0
 15100  1  0  0  0
 16 17  2  0  0  0
 16 21  1  0  0  0
 16 31  1  0  0  0
 17 18  1  0  0  0
 17101  1  0  0  0
 18 19  2  0  0  0
 18102  1  0  0  0
 19 20  1  0  0  0
 19 24  1  0  0  0
 20 21  2  0  0  0
 20103  1  0  0  0
 21 23  1  0  0  0
 22 28  1  0  0  0
 22 32  2  0  0  0
 26 27  1  0  0  0
 28104  1  0  0  0
 28105  1  0  0  0
 29106  1  0  0  0
 29107  1  0  0  0
 33 34  1  0  0  0
 33 66  1  0  0  0
 33 70  2  0  0  0
 34 36  1  0  0  0
 34 59  1  0  0  0
 34108  1  0  0  0
 35 44  2  0  0  0
 35 45  1  0  0  0
 35 68  1  0  0  0
 36 56  1  0  0  0
 36109  1  0  0  0
 37 39  1  0  0  0
 37 47  1  0  0  0
 37 66  1  0  0  0
 37110  1  0  0  0
 38 43  2  0  0  0
 38 46  1  0  0  0
 38 47  1  0  0  0
 39 64  1  0  0  0
 39 67  2  0  0  0
 40 52  1  0  0  0
 40 53  2  0  0  0
 40 58  1  0  0  0
 41111  1  0  0  0
 41112  1  0  0  0
 41113  1  0  0  0
 41 48  1  0  0  0
 42 43  1  0  0  0
 42 66  1  0  0  0
 42114  1  0  0  0
 42115  1  0  0  0
 43 44  1  0  0  0
 44116  1  0  0  0
 45 46  2  0  0  0
 45117  1  0  0  0
 46118  1  0  0  0
 47119  1  0  0  0
 47120  1  0  0  0
 48 56  1  0  0  0
 48 65  1  0  0  0
 48121  1  0  0  0
 49 50  1  0  0  0
 49 53  1  0  0  0
 49 64  1  0  0  0
 49122  1  0  0  0
 50 51  1  0  0  0
 50123  1  0  0  0
 50124  1  0  0  0
 51 52  1  0  0  0
 51125  1  0  0  0
 51126  1  0  0  0
 52127  1  0  0  0
 52128  1  0  0  0
 53 54  1  0  0  0
 54 55  2  0  0  0
 54129  1  0  0  0
 55 57  1  0  0  0
 55130  1  0  0  0
 56 69  2  0  0  0
 57 58  2  0  0  0
 57131  1  0  0  0
 58132  1  0  0  0
 59 60  1  0  0  0
 59 61  1  0  0  0
 59 62  1  0  0  0
 60133  1  0  0  0
 60134  1  0  0  0
 60135  1  0  0  0
 61136  1  0  0  0
 61137  1  0  0  0
 61138  1  0  0  0
 62139  1  0  0  0
 62140  1  0  0  0
 62141  1  0  0  0
 63 65  1  0  0  0
 63142  1  0  0  0
 63143  1  0  0  0
 63144  1  0  0  0
 64145  1  0  0  0
 65146  1  0  0  0
 68 80  1  0  0  0
 71 72  2  0  0  0
 71 73  1  0  0  0
 71147  1  0  0  0
 72 75  1  0  0  0
 72148  1  0  0  0
 73 74  2  0  0  0
 73 87  1  0  0  0
 74 82  1  0  0  0
 74 83  1  0  0  0
 75 83  2  0  0  0
 75 84  1  0  0  0
 76149  1  0  0  0
 76150  1  0  0  0
 76151  1  0  0  0
 76 82  1  0  0  0
 77 78  1  0  0  0
 77 84  1  0  0  0
 77152  1  0  0  0
 77153  1  0  0  0
 78 85  1  0  0  0
 78154  1  0  0  0
 78155  1  0  0  0
 79 82  1  0  0  0
 79 86  1  0  0  0
 79156  1  0  0  0
 79157  1  0  0  0
 80 81  1  0  0  0
 80158  1  0  0  0
 80159  1  0  0  0
 81 87  1  0  0  0
 81160  1  0  0  0
 81161  1  0  0  0
 82162  1  0  0  0
 84163  1  0  0  0
 85164  1  0  0  0
 86165  1  0  0  0
 86166  1  0  0  0
 86167  1  0  0  0
M  CHG  1  86   1
M  ISO  4   1 100  68 101  80 101  85 100
M  END
> <chiral flag>
0

> <version>
0

> <s_m_source_file>
/data/baiqing/PycharmProjects/Reinvent-master-3.2/result/LINK_invent/BTK/process_docking_weight1_custom_sum_contain_oxygen_bond_distance_aromatic_linkinvent_7_9_3/rearranged_h_0126.sdf

> <i_m_source_file_index>
36

> <r_mmod_Potential_Energy-OPLS-2005>
-574.715698242188

> <r_mmod_Stretch_Energy-OPLS-2005>
35.479850769043

> <r_mmod_Bend_Energy-OPLS-2005>
118.771453857422

> <r_mmod_Torsional_Energy-OPLS-2005>
210.487991333008

> <r_mmod_Improper_Torsional_Energy-OPLS-2005>
3.38454723358154

> <r_mmod_Van_der_Waal_Energy-OPLS-2005>
171.050735473633

> <r_mmod_Electrostatic_Energy-OPLS-2005>
-630.296508789062

> <r_mmod_Solvation_Energy-OPLS-2005>
-493.549591064453

> <b_mmod_Minimization_Converged-OPLS-2005>
0

> <r_mmod_RMS_Derivative-OPLS-2005>
2.00396609306335

$$$$
36
                    3D
 Structure written by MMmdl.
164173  0  0  1  0            999 V2000
  -30.7031  -14.4750   20.5712 C   0  0  0  0  0  0
  -30.4223  -12.3049   19.4355 C   0  0  0  0  0  0
  -29.5012  -12.5037   18.2145 C   0  0  0  0  0  0
  -28.0206  -12.3614   18.6209 C   0  0  0  0  0  0
  -27.6610  -13.2053   19.8728 C   0  0  2  0  0  0
  -28.6988  -12.9937   20.9986 C   0  0  0  0  0  0
  -25.2582  -13.8156   20.5659 C   0  0  0  0  0  0
  -24.1835  -13.0442   20.9176 C   0  0  0  0  0  0
  -24.6381  -11.6905   20.8717 C   0  0  0  0  0  0
  -23.9036  -10.4292   21.0381 C   0  0  0  0  0  0
  -24.3594   -9.4214   21.9160 C   0  0  0  0  0  0
  -23.6278   -8.2246   22.0740 C   0  0  0  0  0  0
  -22.4255   -8.0282   21.3543 C   0  0  0  0  0  0
  -21.9874   -9.0246   20.4643 C   0  0  0  0  0  0
  -22.7201  -10.2126   20.3043 C   0  0  0  0  0  0
  -21.6859   -6.0725   22.5271 C   0  0  0  0  0  0
  -21.4023   -6.5627   23.8205 C   0  0  0  0  0  0
  -21.3659   -5.6779   24.9167 C   0  0  0  0  0  0
  -21.6040   -4.3042   24.7222 C   0  0  0  0  0  0
  -21.8824   -3.8141   23.4338 C   0  0  0  0  0  0
  -21.9197   -4.6952   22.3388 C   0  0  0  0  0  0
  -22.7861  -13.5246   21.1846 C   0  0  0  0  0  0
  -22.1662   -4.2139   21.0961 F   0  0  0  0  0  0
  -21.5624   -3.4523   25.7736 F   0  0  0  0  0  0
  -30.0331  -13.2942   20.4540 N   0  0  0  0  0  0
  -26.3011  -12.9317   20.3328 N   0  0  0  0  0  0
  -25.9306  -11.6482   20.5735 N   0  0  0  0  0  0
  -22.0491  -12.8255   22.0405 N   0  0  0  0  0  0
  -25.4312  -15.1872   20.4047 N   0  0  0  0  0  0
  -31.8411  -14.6223   20.1141 O   0  0  0  0  0  0
  -21.6640   -6.8867   21.4233 O   0  0  0  0  0  0
  -22.3547  -14.5537   20.6671 O   0  0  0  0  0  0
  -24.6172  -31.8705   23.2142 C   0  0  0  0  0  0
  -25.9073  -32.4831   23.8422 C   0  0  1  0  0  0
  -27.2110  -27.4164   20.0797 C   0  0  0  0  0  0
  -25.5931  -33.8630   24.2352 N   0  0  0  0  0  0
  -23.4026  -30.5003   21.5570 C   0  0  2  0  0  0
  -24.8400  -28.9746   20.1124 C   0  0  0  0  0  0
  -22.7417  -29.4678   22.4992 C   0  0  0  0  0  0
  -18.0279  -28.1385   22.8480 C   0  0  0  0  0  0
  -24.1486  -36.7308   23.2628 C   0  0  0  0  0  0
  -25.9370  -30.8274   21.3726 C   0  0  0  0  0  0
  -26.0070  -29.4649   20.7112 C   0  0  0  0  0  0
  -27.1947  -28.6927   20.6948 C   0  0  0  0  0  0
  -26.0164  -26.9562   19.4692 C   0  0  0  0  0  0
  -24.8400  -27.7191   19.4919 C   0  0  0  0  0  0
  -23.6076  -29.8473   20.1671 C   0  0  0  0  0  0
  -25.4101  -36.3115   24.0338 C   0  0  1  0  0  0
  -20.5868  -28.3670   23.1307 C   0  0  2  0  0  0
  -20.6768  -26.9404   22.5410 C   0  0  0  0  0  0
  -19.5747  -26.6387   21.5202 C   0  0  0  0  0  0
  -18.1925  -26.7935   22.1613 C   0  0  0  0  0  0
  -19.1526  -28.8844   23.2892 C   0  0  0  0  0  0
  -18.9458  -30.1439   23.8913 C   0  0  0  0  0  0
  -17.6457  -30.6585   24.0569 C   0  0  0  0  0  0
  -25.9036  -34.9480   23.5138 C   0  0  0  0  0  0
  -16.5349  -29.9088   23.6321 C   0  0  0  0  0  0
  -16.7265  -28.6508   23.0344 C   0  0  0  0  0  0
  -26.4486  -31.6612   25.0752 C   0  0  0  0  0  0
  -25.3756  -31.3755   26.1516 C   0  0  0  0  0  0
  -27.0284  -30.3035   24.6149 C   0  0  0  0  0  0
  -27.6090  -32.4316   25.7487 C   0  0  0  0  0  0
  -27.5589  -37.1789   24.8447 C   0  0  0  0  0  0
  -21.4146  -29.3040   22.3720 N   0  0  0  0  0  0
  -26.4283  -37.3803   23.9420 N   0  0  0  0  0  0
  -24.6711  -31.0797   22.1050 N   0  0  0  0  0  0
  -23.4192  -28.8194   23.3013 O   0  0  0  0  0  0
  -28.3669  -26.6492   20.0982 O   0  0  0  0  0  0
  -26.5589  -34.8932   22.4689 O   0  0  0  0  0  0
  -23.5367  -32.1476   23.7520 O   0  0  0  0  0  0
  -28.9091  -18.9088   20.1330 C   0  0  0  0  0  0
  -28.8948  -17.5965   20.6504 C   0  0  0  0  0  0
  -30.1386  -19.4983   19.7710 C   0  0  0  0  0  0
  -31.3106  -18.7636   20.0635 C   0  0  0  0  0  0
  -30.1021  -16.8766   20.7775 C   0  0  0  0  0  0
  -31.5338  -22.7263   18.9484 C   0  0  0  0  0  0
  -29.2297  -22.9321   19.4656 C   0  0  0  0  0  0
  -31.8333  -24.0893   19.5995 C   0  0  0  0  0  0
  -29.4400  -24.3773   20.0242 C   0  0  2  0  0  0
  -32.6945  -19.3147   19.7851 C   0  0  0  0  0  0
  -30.1611  -20.7741   18.9224 C   0  0  0  0  0  0
  -28.2243  -25.2698   19.6969 C   0  0  0  0  0  0
  -31.2835  -17.5022   20.5557 N   0  0  0  0  0  0
  -30.4079  -22.0527   19.6185 N   0  0  0  0  0  0
  -29.9880  -15.4916   21.1027 N   0  0  0  0  0  0
  -30.6668  -24.9772   19.4527 N   0  3  0  0  0  0
  -31.4682  -12.3943   19.1372 H   0  0  0  0  0  0
  -30.3162  -11.2958   19.8370 H   0  0  0  0  0  0
  -29.7443  -11.7787   17.4366 H   0  0  0  0  0  0
  -29.6741  -13.4905   17.7811 H   0  0  0  0  0  0
  -27.8360  -11.3054   18.8234 H   0  0  0  0  0  0
  -27.3732  -12.6280   17.7849 H   0  0  0  0  0  0
  -27.7054  -14.2515   19.5703 H   0  0  0  0  0  0
  -28.6727  -11.9587   21.3429 H   0  0  0  0  0  0
  -28.4543  -13.5964   21.8745 H   0  0  0  0  0  0
  -25.2738   -9.5693   22.4728 H   0  0  0  0  0  0
  -23.9999   -7.4633   22.7455 H   0  0  0  0  0  0
  -21.0799   -8.8749   19.8950 H   0  0  0  0  0  0
  -22.3642  -10.9653   19.6152 H   0  0  0  0  0  0
  -21.2012   -7.6137   23.9704 H   0  0  0  0  0  0
  -21.1478   -6.0510   25.9067 H   0  0  0  0  0  0
  -22.0602   -2.7608   23.2846 H   0  0  0  0  0  0
  -22.4096  -11.9935   22.4821 H   0  0  0  0  0  0
  -21.1101  -13.1287   22.2589 H   0  0  0  0  0  0
  -24.6605  -15.8381   20.5015 H   0  0  0  0  0  0
  -26.2642  -15.6147   20.0212 H   0  0  0  0  0  0
  -26.7138  -32.5529   23.1174 H   0  0  0  0  0  0
  -25.0122  -33.9792   25.0528 H   0  0  0  0  0  0
  -22.6919  -31.3187   21.4273 H   0  0  0  0  0  0
  -23.3768  -35.9617   23.3261 H   0  0  0  0  0  0
  -24.3602  -36.8952   22.2049 H   0  0  0  0  0  0
  -23.7214  -37.6494   23.6661 H   0  0  0  0  0  0
  -26.0620  -31.5968   20.6096 H   0  0  0  0  0  0
  -26.8216  -30.8701   21.9963 H   0  0  0  0  0  0
  -28.0934  -29.0655   21.1661 H   0  0  0  0  0  0
  -25.9461  -26.0062   18.9621 H   0  0  0  0  0  0
  -23.9429  -27.3383   19.0223 H   0  0  0  0  0  0
  -23.7229  -30.6310   19.4175 H   0  0  0  0  0  0
  -22.7266  -29.2798   19.8626 H   0  0  0  0  0  0
  -25.1267  -36.1977   25.0831 H   0  0  0  0  0  0
  -20.9954  -28.3244   24.1429 H   0  0  0  0  0  0
  -20.5670  -26.2276   23.3596 H   0  0  0  0  0  0
  -21.6646  -26.7451   22.1210 H   0  0  0  0  0  0
  -19.6911  -25.6305   21.1219 H   0  0  0  0  0  0
  -19.6683  -27.3204   20.6735 H   0  0  0  0  0  0
  -17.4191  -26.6678   21.4018 H   0  0  0  0  0  0
  -18.0320  -26.0076   22.9008 H   0  0  0  0  0  0
  -19.7931  -30.7250   24.2302 H   0  0  0  0  0  0
  -17.5015  -31.6262   24.5167 H   0  0  0  0  0  0
  -15.5353  -30.2996   23.7638 H   0  0  0  0  0  0
  -15.8664  -28.0823   22.7066 H   0  0  0  0  0  0
  -24.5899  -30.7124   25.7879 H   0  0  0  0  0  0
  -24.8987  -32.2931   26.4975 H   0  0  0  0  0  0
  -25.8114  -30.8924   27.0271 H   0  0  0  0  0  0
  -26.2814  -29.6814   24.1205 H   0  0  0  0  0  0
  -27.4023  -29.7263   25.4615 H   0  0  0  0  0  0
  -27.8678  -30.4317   23.9311 H   0  0  0  0  0  0
  -27.2748  -33.3618   26.2092 H   0  0  0  0  0  0
  -28.3873  -32.6876   25.0284 H   0  0  0  0  0  0
  -28.0788  -31.8428   26.5373 H   0  0  0  0  0  0
  -28.2577  -38.0118   24.7568 H   0  0  0  0  0  0
  -28.1124  -36.2664   24.6175 H   0  0  0  0  0  0
  -27.2334  -37.1323   25.8855 H   0  0  0  0  0  0
  -20.9304  -29.8790   21.6967 H   0  0  0  0  0  0
  -26.0176  -38.2870   24.1489 H   0  0  0  0  0  0
  -27.9777  -19.4244   19.9446 H   0  0  0  0  0  0
  -27.9442  -17.1304   20.8706 H   0  0  0  0  0  0
  -32.4295  -22.1080   19.0047 H   0  0  0  0  0  0
  -31.3243  -22.8619   17.8845 H   0  0  0  0  0  0
  -28.9555  -22.9953   18.4090 H   0  0  0  0  0  0
  -28.3797  -22.4676   19.9698 H   0  0  0  0  0  0
  -32.6969  -24.5521   19.1206 H   0  0  0  0  0  0
  -32.0831  -23.9667   20.6539 H   0  0  0  0  0  0
  -29.5532  -24.3269   21.1082 H   0  0  0  0  0  0
  -32.8582  -19.4301   18.7138 H   0  0  0  0  0  0
  -33.4722  -18.6589   20.1772 H   0  0  0  0  0  0
  -32.8151  -20.2848   20.2660 H   0  0  0  0  0  0
  -29.2254  -20.8115   18.3590 H   0  0  0  0  0  0
  -30.9119  -20.6093   18.1465 H   0  0  0  0  0  0
  -27.3612  -24.8226   20.1939 H   0  0  0  0  0  0
  -28.0357  -25.2356   18.6211 H   0  0  0  0  0  0
  -29.0954  -15.2091   21.4724 H   0  0  0  0  0  0
  -30.5290  -25.1699   18.4736 H   0  0  0  0  0  0
  -30.8511  -25.8550   19.9141 H   0  0  0  0  0  0
  1 25  1  0  0  0
  1 30  2  0  0  0
  1 85  1  0  0  0
  2  3  1  0  0  0
  2 25  1  0  0  0
  2 87  1  0  0  0
  2 88  1  0  0  0
  3  4  1  0  0  0
  3 89  1  0  0  0
  3 90  1  0  0  0
  4  5  1  0  0  0
  4 91  1  0  0  0
  4 92  1  0  0  0
  5  6  1  0  0  0
  5 26  1  0  0  0
  5 93  1  0  0  0
  6 25  1  0  0  0
  6 94  1  0  0  0
  6 95  1  0  0  0
  7  8  2  0  0  0
  7 26  1  0  0  0
  7 29  1  0  0  0
  8  9  1  0  0  0
  8 22  1  0  0  0
  9 10  1  0  0  0
  9 27  2  0  0  0
 10 11  2  0  0  0
 10 15  1  0  0  0
 11 12  1  0  0  0
 11 96  1  0  0  0
 12 13  2  0  0  0
 12 97  1  0  0  0
 13 14  1  0  0  0
 13 31  1  0  0  0
 14 15  2  0  0  0
 14 98  1  0  0  0
 15 99  1  0  0  0
 16 17  2  0  0  0
 16 21  1  0  0  0
 16 31  1  0  0  0
 17 18  1  0  0  0
 17100  1  0  0  0
 18 19  2  0  0  0
 18101  1  0  0  0
 19 20  1  0  0  0
 19 24  1  0  0  0
 20 21  2  0  0  0
 20102  1  0  0  0
 21 23  1  0  0  0
 22 28  1  0  0  0
 22 32  2  0  0  0
 26 27  1  0  0  0
 28103  1  0  0  0
 28104  1  0  0  0
 29105  1  0  0  0
 29106  1  0  0  0
 33 34  1  0  0  0
 33 66  1  0  0  0
 33 70  2  0  0  0
 34 36  1  0  0  0
 34 59  1  0  0  0
 34107  1  0  0  0
 35 44  2  0  0  0
 35 45  1  0  0  0
 35 68  1  0  0  0
 36 56  1  0  0  0
 36108  1  0  0  0
 37 39  1  0  0  0
 37 47  1  0  0  0
 37 66  1  0  0  0
 37109  1  0  0  0
 38 43  2  0  0  0
 38 46  1  0  0  0
 38 47  1  0  0  0
 39 64  1  0  0  0
 39 67  2  0  0  0
 40 52  1  0  0  0
 40 53  2  0  0  0
 40 58  1  0  0  0
 41110  1  0  0  0
 41111  1  0  0  0
 41112  1  0  0  0
 41 48  1  0  0  0
 42 43  1  0  0  0
 42 66  1  0  0  0
 42113  1  0  0  0
 42114  1  0  0  0
 43 44  1  0  0  0
 44115  1  0  0  0
 45 46  2  0  0  0
 45116  1  0  0  0
 46117  1  0  0  0
 47118  1  0  0  0
 47119  1  0  0  0
 48 56  1  0  0  0
 48 65  1  0  0  0
 48120  1  0  0  0
 49 50  1  0  0  0
 49 53  1  0  0  0
 49 64  1  0  0  0
 49121  1  0  0  0
 50 51  1  0  0  0
 50122  1  0  0  0
 50123  1  0  0  0
 51 52  1  0  0  0
 51124  1  0  0  0
 51125  1  0  0  0
 52126  1  0  0  0
 52127  1  0  0  0
 53 54  1  0  0  0
 54 55  2  0  0  0
 54128  1  0  0  0
 55 57  1  0  0  0
 55129  1  0  0  0
 56 69  2  0  0  0
 57 58  2  0  0  0
 57130  1  0  0  0
 58131  1  0  0  0
 59 60  1  0  0  0
 59 61  1  0  0  0
 59 62  1  0  0  0
 60132  1  0  0  0
 60133  1  0  0  0
 60134  1  0  0  0
 61135  1  0  0  0
 61136  1  0  0  0
 61137  1  0  0  0
 62138  1  0  0  0
 62139  1  0  0  0
 62140  1  0  0  0
 63 65  1  0  0  0
 63141  1  0  0  0
 63142  1  0  0  0
 63143  1  0  0  0
 64144  1  0  0  0
 65145  1  0  0  0
 68 82  1  0  0  0
 71 72  2  0  0  0
 71 73  1  0  0  0
 71146  1  0  0  0
 72 75  1  0  0  0
 72147  1  0  0  0
 73 74  2  0  0  0
 73 81  1  0  0  0
 74 80  1  0  0  0
 74 83  1  0  0  0
 75 83  2  0  0  0
 75 85  1  0  0  0
 76 78  1  0  0  0
 76 84  1  0  0  0
 76148  1  0  0  0
 76149  1  0  0  0
 77 79  1  0  0  0
 77 84  1  0  0  0
 77150  1  0  0  0
 77151  1  0  0  0
 78 86  1  0  0  0
 78152  1  0  0  0
 78153  1  0  0  0
 79 82  1  0  0  0
 79 86  1  0  0  0
 79154  1  0  0  0
 80155  1  0  0  0
 80156  1  0  0  0
 80157  1  0  0  0
 81 84  1  0  0  0
 81158  1  0  0  0
 81159  1  0  0  0
 82160  1  0  0  0
 82161  1  0  0  0
 85162  1  0  0  0
 86163  1  0  0  0
 86164  1  0  0  0
M  CHG  1  86   1
M  ISO  4   1 100  68 101  82 101  85 100
M  END
> <chiral flag>
0

> <version>
0

> <s_m_source_file>
/data/baiqing/PycharmProjects/Reinvent-master-3.2/result/LINK_invent/BTK/process_docking_weight1_custom_sum_contain_oxygen_bond_distance_aromatic_linkinvent_7_9_3/rearranged_h_0126.sdf

> <i_m_source_file_index>
37

> <r_mmod_Potential_Energy-OPLS-2005>
-267.946746826172

> <r_mmod_Stretch_Energy-OPLS-2005>
42.1523895263672

> <r_mmod_Bend_Energy-OPLS-2005>
100.804756164551

> <r_mmod_Torsional_Energy-OPLS-2005>
252.014602661133

> <r_mmod_Improper_Torsional_Energy-OPLS-2005>
5.68735694885254

> <r_mmod_Van_der_Waal_Energy-OPLS-2005>
173.871826171875

> <r_mmod_Electrostatic_Energy-OPLS-2005>
-373.077087402344

> <r_mmod_Solvation_Energy-OPLS-2005>
-485.644439697266

> <b_mmod_Minimization_Converged-OPLS-2005>
0

> <r_mmod_RMS_Derivative-OPLS-2005>
2.0962769985199

$$$$
37
                    3D
 Structure written by MMmdl.
157166  0  0  1  0            999 V2000
  -30.5016  -15.0088   20.3990 C   0  0  0  0  0  0
  -30.4405  -12.6163   19.5343 C   0  0  0  0  0  0
  -29.5334  -12.5426   18.2803 C   0  0  0  0  0  0
  -28.0663  -12.3197   18.6881 C   0  0  0  0  0  0
  -27.6306  -13.2552   19.8455 C   0  0  2  0  0  0
  -28.6643  -13.2990   20.9942 C   0  0  0  0  0  0
  -25.2446  -13.8226   20.5709 C   0  0  0  0  0  0
  -24.1768  -13.0447   20.9227 C   0  0  0  0  0  0
  -24.6394  -11.6938   20.8756 C   0  0  0  0  0  0
  -23.9088  -10.4303   21.0404 C   0  0  0  0  0  0
  -24.3641   -9.4213   21.9170 C   0  0  0  0  0  0
  -23.6315   -8.2246   22.0739 C   0  0  0  0  0  0
  -22.4295   -8.0280   21.3537 C   0  0  0  0  0  0
  -21.9929   -9.0261   20.4649 C   0  0  0  0  0  0
  -22.7256  -10.2141   20.3062 C   0  0  0  0  0  0
  -21.6858   -6.0738   22.5272 C   0  0  0  0  0  0
  -21.4020   -6.5644   23.8207 C   0  0  0  0  0  0
  -21.3666   -5.6794   24.9168 C   0  0  0  0  0  0
  -21.6043   -4.3053   24.7213 C   0  0  0  0  0  0
  -21.8821   -3.8147   23.4332 C   0  0  0  0  0  0
  -21.9200   -4.6967   22.3392 C   0  0  0  0  0  0
  -22.7790  -13.5211   21.1865 C   0  0  0  0  0  0
  -22.1665   -4.2157   21.0967 F   0  0  0  0  0  0
  -21.5632   -3.4530   25.7724 F   0  0  0  0  0  0
  -29.9443  -13.7241   20.4117 N   0  0  0  0  0  0
  -26.2878  -12.9474   20.3242 N   0  0  0  0  0  0
  -25.9333  -11.6602   20.5749 N   0  0  0  0  0  0
  -22.0446  -12.8209   22.0436 N   0  0  0  0  0  0
  -25.4107  -15.1952   20.4139 N   0  0  0  0  0  0
  -31.6748  -15.0893   20.0175 O   0  0  0  0  0  0
  -21.6650   -6.8881   21.4234 O   0  0  0  0  0  0
  -22.3471  -14.5508   20.6689 O   0  0  0  0  0  0
  -24.6457  -31.8374   23.1808 C   0  0  0  0  0  0
  -25.9215  -32.4656   23.8219 C   0  0  1  0  0  0
  -27.2260  -27.0893   20.1606 C   0  0  0  0  0  0
  -25.5947  -33.8464   24.2142 N   0  0  0  0  0  0
  -23.4529  -30.4503   21.5254 C   0  0  2  0  0  0
  -24.9053  -28.8617   20.1017 C   0  0  0  0  0  0
  -22.7577  -29.4503   22.4826 C   0  0  0  0  0  0
  -18.0304  -28.1398   22.8472 C   0  0  0  0  0  0
  -24.1497  -36.7244   23.2644 C   0  0  0  0  0  0
  -26.0083  -30.6940   21.3858 C   0  0  0  0  0  0
  -26.0771  -29.2993   20.7290 C   0  0  0  0  0  0
  -27.2297  -28.4255   20.7449 C   0  0  0  0  0  0
  -26.0351  -26.7564   19.4827 C   0  0  0  0  0  0
  -24.9000  -27.6072   19.4623 C   0  0  0  0  0  0
  -23.6821  -29.7697   20.1463 C   0  0  0  0  0  0
  -25.4128  -36.3014   24.0314 C   0  0  1  0  0  0
  -20.5916  -28.3725   23.1226 C   0  0  2  0  0  0
  -20.6787  -26.9423   22.5406 C   0  0  0  0  0  0
  -19.5765  -26.6380   21.5211 C   0  0  0  0  0  0
  -18.1945  -26.7937   22.1616 C   0  0  0  0  0  0
  -19.1560  -28.8878   23.2843 C   0  0  0  0  0  0
  -18.9480  -30.1471   23.8871 C   0  0  0  0  0  0
  -17.6477  -30.6593   24.0556 C   0  0  0  0  0  0
  -25.9078  -34.9388   23.5048 C   0  0  0  0  0  0
  -16.5366  -29.9087   23.6336 C   0  0  0  0  0  0
  -16.7289  -28.6507   23.0357 C   0  0  0  0  0  0
  -26.4528  -31.6553   25.0687 C   0  0  0  0  0  0
  -25.3710  -31.3739   26.1384 C   0  0  0  0  0  0
  -27.0417  -30.2956   24.6295 C   0  0  0  0  0  0
  -27.6059  -32.4325   25.7466 C   0  0  0  0  0  0
  -27.5574  -37.1776   24.8467 C   0  0  0  0  0  0
  -21.4263  -29.3037   22.3583 N   0  0  0  0  0  0
  -26.4286  -37.3732   23.9404 N   0  0  0  0  0  0
  -24.7221  -31.0170   22.0863 N   0  0  0  0  0  0
  -23.4199  -28.8076   23.3013 O   0  0  0  0  0  0
  -28.2910  -26.1202   20.3244 O   0  0  0  0  0  0
  -26.5676  -34.8902   22.4634 O   0  0  0  0  0  0
  -23.5569  -32.1273   23.7004 O   0  0  0  0  0  0
  -28.6918  -20.3255   20.1396 C   0  0  0  0  0  0
  -30.8922  -19.6442   20.8461 C   0  0  0  0  0  0
  -28.9716  -21.7833   20.3404 C   0  0  0  0  0  0
  -30.2883  -22.0790   20.7447 C   0  0  0  0  0  0
  -29.6431  -19.1932   20.3674 C   0  0  0  0  0  0
  -31.2153  -21.0233   21.0185 C   0  0  0  0  0  0
  -27.9820  -23.1104   20.2298 C   0  0  0  0  0  0
  -30.6526  -23.5708   20.8870 C   0  0  0  0  0  0
  -30.0603  -24.4849   19.7700 C   0  0  0  0  0  0
  -28.5167  -24.6533   19.7795 C   0  0  2  0  0  0
  -32.6214  -21.3524   21.4965 C   0  0  0  0  0  0
  -29.5189  -17.5907   19.8964 C   0  0  0  0  0  0
  -29.7144  -16.1847   20.6352 N   0  0  0  0  0  0
  -31.4789  -12.7655   19.2349 H   0  0  0  0  0  0
  -30.4255  -11.6677   20.0739 H   0  0  0  0  0  0
  -29.8641  -11.7405   17.6186 H   0  0  0  0  0  0
  -29.6175  -13.4681   17.7091 H   0  0  0  0  0  0
  -27.9708  -11.2802   19.0037 H   0  0  0  0  0  0
  -27.4076  -12.4405   17.8274 H   0  0  0  0  0  0
  -27.5906  -14.2549   19.4115 H   0  0  0  0  0  0
  -28.7536  -12.3273   21.4808 H   0  0  0  0  0  0
  -28.3472  -14.0013   21.7673 H   0  0  0  0  0  0
  -25.2787   -9.5684   22.4747 H   0  0  0  0  0  0
  -24.0021   -7.4647   22.7468 H   0  0  0  0  0  0
  -21.0839   -8.8792   19.8987 H   0  0  0  0  0  0
  -22.3694  -10.9686   19.6188 H   0  0  0  0  0  0
  -21.2008   -7.6154   23.9704 H   0  0  0  0  0  0
  -21.1487   -6.0525   25.9071 H   0  0  0  0  0  0
  -22.0596   -2.7612   23.2819 H   0  0  0  0  0  0
  -22.4075  -11.9900   22.4869 H   0  0  0  0  0  0
  -21.1058  -13.1233   22.2624 H   0  0  0  0  0  0
  -24.6372  -15.8412   20.5214 H   0  0  0  0  0  0
  -26.2473  -15.6363   20.0548 H   0  0  0  0  0  0
  -26.7281  -32.5247   23.0941 H   0  0  0  0  0  0
  -25.0056  -33.9567   25.0265 H   0  0  0  0  0  0
  -22.7593  -31.2782   21.3644 H   0  0  0  0  0  0
  -23.3767  -35.9571   23.3289 H   0  0  0  0  0  0
  -24.3582  -36.8892   22.2063 H   0  0  0  0  0  0
  -23.7249  -37.6432   23.6693 H   0  0  0  0  0  0
  -26.1684  -31.4440   20.6101 H   0  0  0  0  0  0
  -26.8771  -30.7472   22.0305 H   0  0  0  0  0  0
  -28.1160  -28.7471   21.2730 H   0  0  0  0  0  0
  -25.9544  -25.7878   19.0112 H   0  0  0  0  0  0
  -24.0038  -27.2674   18.9618 H   0  0  0  0  0  0
  -23.8220  -30.5409   19.3881 H   0  0  0  0  0  0
  -22.7964  -29.2136   19.8355 H   0  0  0  0  0  0
  -25.1323  -36.1832   25.0808 H   0  0  0  0  0  0
  -21.0015  -28.3326   24.1344 H   0  0  0  0  0  0
  -20.5675  -26.2339   23.3631 H   0  0  0  0  0  0
  -21.6655  -26.7426   22.1205 H   0  0  0  0  0  0
  -19.6924  -25.6287   21.1252 H   0  0  0  0  0  0
  -19.6703  -27.3180   20.6734 H   0  0  0  0  0  0
  -17.4216  -26.6685   21.4018 H   0  0  0  0  0  0
  -18.0340  -26.0081   22.9013 H   0  0  0  0  0  0
  -19.7958  -30.7287   24.2237 H   0  0  0  0  0  0
  -17.5034  -31.6271   24.5167 H   0  0  0  0  0  0
  -15.5367  -30.2983   23.7676 H   0  0  0  0  0  0
  -15.8691  -28.0816   22.7092 H   0  0  0  0  0  0
  -24.5902  -30.7079   25.7690 H   0  0  0  0  0  0
  -24.8889  -32.2920   26.4754 H   0  0  0  0  0  0
  -25.7999  -30.8939   27.0193 H   0  0  0  0  0  0
  -26.3048  -29.6649   24.1315 H   0  0  0  0  0  0
  -27.4047  -29.7280   25.4870 H   0  0  0  0  0  0
  -27.8939  -30.4196   23.9612 H   0  0  0  0  0  0
  -27.2666  -33.3652   26.1977 H   0  0  0  0  0  0
  -28.3900  -32.6839   25.0314 H   0  0  0  0  0  0
  -28.0705  -31.8498   26.5426 H   0  0  0  0  0  0
  -28.2591  -38.0071   24.7510 H   0  0  0  0  0  0
  -28.1069  -36.2601   24.6305 H   0  0  0  0  0  0
  -27.2289  -37.1441   25.8868 H   0  0  0  0  0  0
  -20.9488  -29.8724   21.6731 H   0  0  0  0  0  0
  -26.0150  -38.2799   24.1402 H   0  0  0  0  0  0
  -27.7095  -20.0644   19.7702 H   0  0  0  0  0  0
  -31.6576  -18.9008   21.0235 H   0  0  0  0  0  0
  -27.5268  -23.2121   21.2147 H   0  0  0  0  0  0
  -27.1559  -22.8357   19.5730 H   0  0  0  0  0  0
  -31.7333  -23.7032   20.8802 H   0  0  0  0  0  0
  -30.3122  -23.9179   21.8637 H   0  0  0  0  0  0
  -30.3668  -24.0732   18.8078 H   0  0  0  0  0  0
  -30.5288  -25.4676   19.8239 H   0  0  0  0  0  0
  -28.2312  -24.7467   18.7313 H   0  0  0  0  0  0
  -33.1747  -20.4573   21.7837 H   0  0  0  0  0  0
  -32.5912  -22.0090   22.3665 H   0  0  0  0  0  0
  -33.1876  -21.8504   20.7091 H   0  0  0  0  0  0
  -30.1668  -17.5211   19.0221 H   0  0  0  0  0  0
  -28.5149  -17.5213   19.4772 H   0  0  0  0  0  0
  -28.8752  -15.9404   21.1404 H   0  0  0  0  0  0
  1 25  1  0  0  0
  1 30  2  0  0  0
  1 83  1  0  0  0
  2  3  1  0  0  0
  2 25  1  0  0  0
  2 84  1  0  0  0
  2 85  1  0  0  0
  3  4  1  0  0  0
  3 86  1  0  0  0
  3 87  1  0  0  0
  4  5  1  0  0  0
  4 88  1  0  0  0
  4 89  1  0  0  0
  5  6  1  0  0  0
  5 26  1  0  0  0
  5 90  1  0  0  0
  6 25  1  0  0  0
  6 91  1  0  0  0
  6 92  1  0  0  0
  7  8  2  0  0  0
  7 26  1  0  0  0
  7 29  1  0  0  0
  8  9  1  0  0  0
  8 22  1  0  0  0
  9 10  1  0  0  0
  9 27  2  0  0  0
 10 11  2  0  0  0
 10 15  1  0  0  0
 11 12  1  0  0  0
 11 93  1  0  0  0
 12 13  2  0  0  0
 12 94  1  0  0  0
 13 14  1  0  0  0
 13 31  1  0  0  0
 14 15  2  0  0  0
 14 95  1  0  0  0
 15 96  1  0  0  0
 16 17  2  0  0  0
 16 21  1  0  0  0
 16 31  1  0  0  0
 17 18  1  0  0  0
 17 97  1  0  0  0
 18 19  2  0  0  0
 18 98  1  0  0  0
 19 20  1  0  0  0
 19 24  1  0  0  0
 20 21  2  0  0  0
 20 99  1  0  0  0
 21 23  1  0  0  0
 22 28  1  0  0  0
 22 32  2  0  0  0
 26 27  1  0  0  0
 28100  1  0  0  0
 28101  1  0  0  0
 29102  1  0  0  0
 29103  1  0  0  0
 33 34  1  0  0  0
 33 66  1  0  0  0
 33 70  2  0  0  0
 34 36  1  0  0  0
 34 59  1  0  0  0
 34104  1  0  0  0
 35 44  2  0  0  0
 35 45  1  0  0  0
 35 68  1  0  0  0
 36 56  1  0  0  0
 36105  1  0  0  0
 37 39  1  0  0  0
 37 47  1  0  0  0
 37 66  1  0  0  0
 37106  1  0  0  0
 38 43  2  0  0  0
 38 46  1  0  0  0
 38 47  1  0  0  0
 39 64  1  0  0  0
 39 67  2  0  0  0
 40 52  1  0  0  0
 40 53  2  0  0  0
 40 58  1  0  0  0
 41107  1  0  0  0
 41108  1  0  0  0
 41109  1  0  0  0
 41 48  1  0  0  0
 42 43  1  0  0  0
 42 66  1  0  0  0
 42110  1  0  0  0
 42111  1  0  0  0
 43 44  1  0  0  0
 44112  1  0  0  0
 45 46  2  0  0  0
 45113  1  0  0  0
 46114  1  0  0  0
 47115  1  0  0  0
 47116  1  0  0  0
 48 56  1  0  0  0
 48 65  1  0  0  0
 48117  1  0  0  0
 49 50  1  0  0  0
 49 53  1  0  0  0
 49 64  1  0  0  0
 49118  1  0  0  0
 50 51  1  0  0  0
 50119  1  0  0  0
 50120  1  0  0  0
 51 52  1  0  0  0
 51121  1  0  0  0
 51122  1  0  0  0
 52123  1  0  0  0
 52124  1  0  0  0
 53 54  1  0  0  0
 54 55  2  0  0  0
 54125  1  0  0  0
 55 57  1  0  0  0
 55126  1  0  0  0
 56 69  2  0  0  0
 57 58  2  0  0  0
 57127  1  0  0  0
 58128  1  0  0  0
 59 60  1  0  0  0
 59 61  1  0  0  0
 59 62  1  0  0  0
 60129  1  0  0  0
 60130  1  0  0  0
 60131  1  0  0  0
 61132  1  0  0  0
 61133  1  0  0  0
 61134  1  0  0  0
 62135  1  0  0  0
 62136  1  0  0  0
 62137  1  0  0  0
 63 65  1  0  0  0
 63138  1  0  0  0
 63139  1  0  0  0
 63140  1  0  0  0
 64141  1  0  0  0
 65142  1  0  0  0
 68 80  1  0  0  0
 71 73  2  0  0  0
 71 75  1  0  0  0
 71143  1  0  0  0
 72 75  2  0  0  0
 72 76  1  0  0  0
 72144  1  0  0  0
 73 74  1  0  0  0
 73 77  1  0  0  0
 74 76  2  0  0  0
 74 78  1  0  0  0
 75 82  1  0  0  0
 76 81  1  0  0  0
 77 80  1  0  0  0
 77145  1  0  0  0
 77146  1  0  0  0
 78 79  1  0  0  0
 78147  1  0  0  0
 78148  1  0  0  0
 79 80  1  0  0  0
 79149  1  0  0  0
 79150  1  0  0  0
 80151  1  0  0  0
 81152  1  0  0  0
 81153  1  0  0  0
 81154  1  0  0  0
 82 83  1  0  0  0
 82155  1  0  0  0
 82156  1  0  0  0
 83157  1  0  0  0
M  ISO  4   1 100  68 101  80 101  83 100
M  END
> <chiral flag>
0

> <version>
0

> <s_m_source_file>
/data/baiqing/PycharmProjects/Reinvent-master-3.2/result/LINK_invent/BTK/process_docking_weight1_custom_sum_contain_oxygen_bond_distance_aromatic_linkinvent_7_9_3/rearranged_h_0126.sdf

> <i_m_source_file_index>
38

> <r_mmod_Potential_Energy-OPLS-2005>
630.986389160156

> <r_mmod_Stretch_Energy-OPLS-2005>
300.872131347656

> <r_mmod_Bend_Energy-OPLS-2005>
342.292602539062

> <r_mmod_Torsional_Energy-OPLS-2005>
243.105834960938

> <r_mmod_Improper_Torsional_Energy-OPLS-2005>
7.72077226638794

> <r_mmod_Van_der_Waal_Energy-OPLS-2005>
131.794708251953

> <r_mmod_Electrostatic_Energy-OPLS-2005>
-416.180877685547

> <r_mmod_Solvation_Energy-OPLS-2005>
-217.149490356445

> <b_mmod_Minimization_Converged-OPLS-2005>
0

> <r_mmod_RMS_Derivative-OPLS-2005>
1.83648324012756

$$$$
38
                    3D
 Structure written by MMmdl.
164172  0  0  1  0            999 V2000
  -30.6920  -14.5463   20.5253 C   0  0  0  0  0  0
  -30.4182  -12.3410   19.4409 C   0  0  0  0  0  0
  -29.4980  -12.5022   18.2130 C   0  0  0  0  0  0
  -28.0179  -12.3650   18.6227 C   0  0  0  0  0  0
  -27.6548  -13.2219   19.8654 C   0  0  2  0  0  0
  -28.6992  -13.0612   20.9921 C   0  0  0  0  0  0
  -25.2566  -13.8195   20.5706 C   0  0  0  0  0  0
  -24.1835  -13.0450   20.9210 C   0  0  0  0  0  0
  -24.6404  -11.6927   20.8738 C   0  0  0  0  0  0
  -23.9077  -10.4299   21.0394 C   0  0  0  0  0  0
  -24.3619   -9.4210   21.9173 C   0  0  0  0  0  0
  -23.6301   -8.2240   22.0741 C   0  0  0  0  0  0
  -22.4285   -8.0278   21.3538 C   0  0  0  0  0  0
  -21.9929   -9.0255   20.4636 C   0  0  0  0  0  0
  -22.7252  -10.2137   20.3045 C   0  0  0  0  0  0
  -21.6854   -6.0742   22.5281 C   0  0  0  0  0  0
  -21.4010   -6.5638   23.8216 C   0  0  0  0  0  0
  -21.3658   -5.6784   24.9172 C   0  0  0  0  0  0
  -21.6049   -4.3050   24.7213 C   0  0  0  0  0  0
  -21.8820   -3.8148   23.4329 C   0  0  0  0  0  0
  -21.9190   -4.6971   22.3391 C   0  0  0  0  0  0
  -22.7853  -13.5232   21.1868 C   0  0  0  0  0  0
  -22.1664   -4.2159   21.0967 F   0  0  0  0  0  0
  -21.5624   -3.4531   25.7724 F   0  0  0  0  0  0
  -30.0195  -13.3642   20.4237 N   0  0  0  0  0  0
  -26.3005  -12.9393   20.3347 N   0  0  0  0  0  0
  -25.9334  -11.6538   20.5753 N   0  0  0  0  0  0
  -22.0488  -12.8219   22.0414 N   0  0  0  0  0  0
  -25.4263  -15.1913   20.4118 N   0  0  0  0  0  0
  -31.8526  -14.6683   20.1258 O   0  0  0  0  0  0
  -21.6634   -6.8887   21.4245 O   0  0  0  0  0  0
  -22.3536  -14.5535   20.6705 O   0  0  0  0  0  0
  -24.6199  -31.8643   23.2059 C   0  0  0  0  0  0
  -25.9064  -32.4809   23.8374 C   0  0  1  0  0  0
  -27.2260  -27.3779   20.1205 C   0  0  0  0  0  0
  -25.5899  -33.8606   24.2301 N   0  0  0  0  0  0
  -23.4118  -30.4882   21.5460 C   0  0  2  0  0  0
  -24.8589  -28.9475   20.1128 C   0  0  0  0  0  0
  -22.7449  -29.4651   22.4948 C   0  0  0  0  0  0
  -18.0284  -28.1394   22.8491 C   0  0  0  0  0  0
  -24.1484  -36.7311   23.2637 C   0  0  0  0  0  0
  -25.9458  -30.8156   21.3659 C   0  0  0  0  0  0
  -26.0232  -29.4456   20.7129 C   0  0  0  0  0  0
  -27.2139  -28.6717   20.7072 C   0  0  0  0  0  0
  -26.0477  -26.9141   19.4990 C   0  0  0  0  0  0
  -24.8693  -27.6849   19.4962 C   0  0  0  0  0  0
  -23.6240  -29.8217   20.1607 C   0  0  0  0  0  0
  -25.4106  -36.3103   24.0334 C   0  0  1  0  0  0
  -20.5883  -28.3692   23.1299 C   0  0  2  0  0  0
  -20.6778  -26.9423   22.5415 C   0  0  0  0  0  0
  -19.5751  -26.6393   21.5223 C   0  0  0  0  0  0
  -18.1931  -26.7937   22.1632 C   0  0  0  0  0  0
  -19.1535  -28.8857   23.2895 C   0  0  0  0  0  0
  -18.9458  -30.1462   23.8906 C   0  0  0  0  0  0
  -17.6460  -30.6594   24.0572 C   0  0  0  0  0  0
  -25.9041  -34.9471   23.5121 C   0  0  0  0  0  0
  -16.5351  -29.9101   23.6325 C   0  0  0  0  0  0
  -16.7272  -28.6522   23.0336 C   0  0  0  0  0  0
  -26.4465  -31.6599   25.0722 C   0  0  0  0  0  0
  -25.3717  -31.3724   26.1463 C   0  0  0  0  0  0
  -27.0292  -30.3031   24.6128 C   0  0  0  0  0  0
  -27.6027  -32.4327   25.7496 C   0  0  0  0  0  0
  -27.5582  -37.1810   24.8459 C   0  0  0  0  0  0
  -21.4168  -29.3049   22.3691 N   0  0  0  0  0  0
  -26.4287  -37.3794   23.9415 N   0  0  0  0  0  0
  -24.6778  -31.0717   22.0973 N   0  0  0  0  0  0
  -23.4203  -28.8197   23.3009 O   0  0  0  0  0  0
  -28.3476  -26.5595   20.1433 O   0  0  0  0  0  0
  -26.5615  -34.8933   22.4690 O   0  0  0  0  0  0
  -23.5378  -32.1402   23.7427 O   0  0  0  0  0  0
  -27.9916  -20.6044   22.7888 C   0  0  0  0  0  0
  -28.3526  -18.4121   22.6232 C   0  0  0  0  0  0
  -27.7678  -19.3507   23.4217 C   0  0  0  0  0  0
  -28.6772  -20.4160   21.6149 C   0  0  0  0  0  0
  -29.0597  -21.4996   20.6283 C   0  0  0  0  0  0
  -27.0064  -19.1011   24.7034 C   0  0  0  0  0  0
  -29.6037  -18.2032   20.4784 C   0  0  0  0  0  0
  -30.5128  -17.0289   21.0095 C   0  0  0  0  0  0
  -28.8363  -24.0120   20.1431 C   0  0  0  0  0  0
  -27.8466  -19.3255   25.9734 C   0  0  0  0  0  0
  -28.1723  -25.2700   20.8091 C   0  0  0  0  0  0
  -28.9383  -19.0183   21.5207 N   0  0  0  0  0  0
  -28.6251  -22.7547   20.9115 N   0  0  0  0  0  0
  -29.9827  -15.6342   20.9197 N   0  0  0  0  0  0
  -29.0197  -18.4358   26.0371 N   0  3  0  0  0  0
  -29.7190  -21.2555   19.6181 O   0  0  0  0  0  0
  -31.4651  -12.4299   19.1450 H   0  0  0  0  0  0
  -30.3120  -11.3444   19.8729 H   0  0  0  0  0  0
  -29.7482  -11.7577   17.4565 H   0  0  0  0  0  0
  -29.6621  -13.4774   17.7514 H   0  0  0  0  0  0
  -27.8308  -11.3112   18.8319 H   0  0  0  0  0  0
  -27.3699  -12.6275   17.7844 H   0  0  0  0  0  0
  -27.6807  -14.2630   19.5430 H   0  0  0  0  0  0
  -28.6889  -12.0442   21.3836 H   0  0  0  0  0  0
  -28.4645  -13.7107   21.8365 H   0  0  0  0  0  0
  -25.2755   -9.5683   22.4758 H   0  0  0  0  0  0
  -24.0011   -7.4624   22.7453 H   0  0  0  0  0  0
  -21.0865   -8.8768   19.8946 H   0  0  0  0  0  0
  -22.3699  -10.9675   19.6156 H   0  0  0  0  0  0
  -21.1995   -7.6148   23.9728 H   0  0  0  0  0  0
  -21.1496   -6.0507   25.9083 H   0  0  0  0  0  0
  -22.0605   -2.7616   23.2815 H   0  0  0  0  0  0
  -22.4077  -11.9858   22.4792 H   0  0  0  0  0  0
  -21.1101  -13.1246   22.2602 H   0  0  0  0  0  0
  -24.6567  -15.8433   20.5159 H   0  0  0  0  0  0
  -26.2712  -15.6324   20.0719 H   0  0  0  0  0  0
  -26.7140  -32.5502   23.1141 H   0  0  0  0  0  0
  -25.0040  -33.9755   25.0440 H   0  0  0  0  0  0
  -22.7040  -31.3079   21.4047 H   0  0  0  0  0  0
  -23.3747  -35.9642   23.3291 H   0  0  0  0  0  0
  -24.3583  -36.8936   22.2055 H   0  0  0  0  0  0
  -23.7232  -37.6513   23.6655 H   0  0  0  0  0  0
  -26.0645  -31.5790   20.5955 H   0  0  0  0  0  0
  -26.8321  -30.8696   21.9864 H   0  0  0  0  0  0
  -28.1103  -29.0497   21.1792 H   0  0  0  0  0  0
  -26.0354  -25.9425   19.0262 H   0  0  0  0  0  0
  -23.9775  -27.2984   19.0224 H   0  0  0  0  0  0
  -23.7397  -30.5968   19.4020 H   0  0  0  0  0  0
  -22.7460  -29.2470   19.8610 H   0  0  0  0  0  0
  -25.1279  -36.1965   25.0826 H   0  0  0  0  0  0
  -20.9986  -28.3271   24.1416 H   0  0  0  0  0  0
  -20.5701  -26.2308   23.3613 H   0  0  0  0  0  0
  -21.6645  -26.7473   22.1195 H   0  0  0  0  0  0
  -19.6919  -25.6308   21.1248 H   0  0  0  0  0  0
  -19.6687  -27.3209   20.6758 H   0  0  0  0  0  0
  -17.4206  -26.6687   21.4027 H   0  0  0  0  0  0
  -18.0328  -26.0079   22.9028 H   0  0  0  0  0  0
  -19.7935  -30.7278   24.2276 H   0  0  0  0  0  0
  -17.5014  -31.6267   24.5182 H   0  0  0  0  0  0
  -15.5353  -30.3008   23.7635 H   0  0  0  0  0  0
  -15.8673  -28.0856   22.7024 H   0  0  0  0  0  0
  -24.5870  -30.7099   25.7794 H   0  0  0  0  0  0
  -24.8936  -32.2890   26.4922 H   0  0  0  0  0  0
  -25.8054  -30.8872   27.0215 H   0  0  0  0  0  0
  -26.2850  -29.6815   24.1132 H   0  0  0  0  0  0
  -27.3988  -29.7246   25.4607 H   0  0  0  0  0  0
  -27.8719  -30.4331   23.9334 H   0  0  0  0  0  0
  -27.2624  -33.3610   26.2093 H   0  0  0  0  0  0
  -28.3825  -32.6917   25.0323 H   0  0  0  0  0  0
  -28.0703  -31.8441   26.5397 H   0  0  0  0  0  0
  -28.2581  -38.0126   24.7529 H   0  0  0  0  0  0
  -28.1094  -36.2659   24.6242 H   0  0  0  0  0  0
  -27.2310  -37.1416   25.8863 H   0  0  0  0  0  0
  -20.9345  -29.8769   21.6901 H   0  0  0  0  0  0
  -26.0171  -38.2868   24.1425 H   0  0  0  0  0  0
  -27.6477  -21.5615   23.1563 H   0  0  0  0  0  0
  -28.3955  -17.3367   22.7400 H   0  0  0  0  0  0
  -26.6063  -18.0859   24.6885 H   0  0  0  0  0  0
  -26.1406  -19.7636   24.7225 H   0  0  0  0  0  0
  -28.8405  -17.8217   19.7986 H   0  0  0  0  0  0
  -30.2319  -18.8598   19.8805 H   0  0  0  0  0  0
  -30.8191  -17.2230   22.0377 H   0  0  0  0  0  0
  -31.4400  -17.0864   20.4372 H   0  0  0  0  0  0
  -29.9078  -24.1795   20.0329 H   0  0  0  0  0  0
  -28.4401  -23.8782   19.1356 H   0  0  0  0  0  0
  -27.2287  -19.1573   26.8563 H   0  0  0  0  0  0
  -28.1812  -20.3630   26.0203 H   0  0  0  0  0  0
  -28.5912  -25.3851   21.8099 H   0  0  0  0  0  0
  -27.1168  -25.0472   20.9719 H   0  0  0  0  0  0
  -28.0812  -22.8384   21.7584 H   0  0  0  0  0  0
  -29.0213  -15.4806   21.1837 H   0  0  0  0  0  0
  -28.7353  -17.4738   26.0814 H   0  0  0  0  0  0
  -29.5634  -18.6437   26.8557 H   0  0  0  0  0  0
  -29.5978  -18.5704   25.2273 H   0  0  0  0  0  0
  1 25  1  0  0  0
  1 30  2  0  0  0
  1 84  1  0  0  0
  2  3  1  0  0  0
  2 25  1  0  0  0
  2 87  1  0  0  0
  2 88  1  0  0  0
  3  4  1  0  0  0
  3 89  1  0  0  0
  3 90  1  0  0  0
  4  5  1  0  0  0
  4 91  1  0  0  0
  4 92  1  0  0  0
  5  6  1  0  0  0
  5 26  1  0  0  0
  5 93  1  0  0  0
  6 25  1  0  0  0
  6 94  1  0  0  0
  6 95  1  0  0  0
  7  8  2  0  0  0
  7 26  1  0  0  0
  7 29  1  0  0  0
  8  9  1  0  0  0
  8 22  1  0  0  0
  9 10  1  0  0  0
  9 27  2  0  0  0
 10 11  2  0  0  0
 10 15  1  0  0  0
 11 12  1  0  0  0
 11 96  1  0  0  0
 12 13  2  0  0  0
 12 97  1  0  0  0
 13 14  1  0  0  0
 13 31  1  0  0  0
 14 15  2  0  0  0
 14 98  1  0  0  0
 15 99  1  0  0  0
 16 17  2  0  0  0
 16 21  1  0  0  0
 16 31  1  0  0  0
 17 18  1  0  0  0
 17100  1  0  0  0
 18 19  2  0  0  0
 18101  1  0  0  0
 19 20  1  0  0  0
 19 24  1  0  0  0
 20 21  2  0  0  0
 20102  1  0  0  0
 21 23  1  0  0  0
 22 28  1  0  0  0
 22 32  2  0  0  0
 26 27  1  0  0  0
 28103  1  0  0  0
 28104  1  0  0  0
 29105  1  0  0  0
 29106  1  0  0  0
 33 34  1  0  0  0
 33 66  1  0  0  0
 33 70  2  0  0  0
 34 36  1  0  0  0
 34 59  1  0  0  0
 34107  1  0  0  0
 35 44  2  0  0  0
 35 45  1  0  0  0
 35 68  1  0  0  0
 36 56  1  0  0  0
 36108  1  0  0  0
 37 39  1  0  0  0
 37 47  1  0  0  0
 37 66  1  0  0  0
 37109  1  0  0  0
 38 43  2  0  0  0
 38 46  1  0  0  0
 38 47  1  0  0  0
 39 64  1  0  0  0
 39 67  2  0  0  0
 40 52  1  0  0  0
 40 53  2  0  0  0
 40 58  1  0  0  0
 41110  1  0  0  0
 41111  1  0  0  0
 41112  1  0  0  0
 41 48  1  0  0  0
 42 43  1  0  0  0
 42 66  1  0  0  0
 42113  1  0  0  0
 42114  1  0  0  0
 43 44  1  0  0  0
 44115  1  0  0  0
 45 46  2  0  0  0
 45116  1  0  0  0
 46117  1  0  0  0
 47118  1  0  0  0
 47119  1  0  0  0
 48 56  1  0  0  0
 48 65  1  0  0  0
 48120  1  0  0  0
 49 50  1  0  0  0
 49 53  1  0  0  0
 49 64  1  0  0  0
 49121  1  0  0  0
 50 51  1  0  0  0
 50122  1  0  0  0
 50123  1  0  0  0
 51 52  1  0  0  0
 51124  1  0  0  0
 51125  1  0  0  0
 52126  1  0  0  0
 52127  1  0  0  0
 53 54  1  0  0  0
 54 55  2  0  0  0
 54128  1  0  0  0
 55 57  1  0  0  0
 55129  1  0  0  0
 56 69  2  0  0  0
 57 58  2  0  0  0
 57130  1  0  0  0
 58131  1  0  0  0
 59 60  1  0  0  0
 59 61  1  0  0  0
 59 62  1  0  0  0
 60132  1  0  0  0
 60133  1  0  0  0
 60134  1  0  0  0
 61135  1  0  0  0
 61136  1  0  0  0
 61137  1  0  0  0
 62138  1  0  0  0
 62139  1  0  0  0
 62140  1  0  0  0
 63 65  1  0  0  0
 63141  1  0  0  0
 63142  1  0  0  0
 63143  1  0  0  0
 64144  1  0  0  0
 65145  1  0  0  0
 68 81  1  0  0  0
 71 73  1  0  0  0
 71 74  2  0  0  0
 71146  1  0  0  0
 72 73  2  0  0  0
 72 82  1  0  0  0
 72147  1  0  0  0
 73 76  1  0  0  0
 74 75  1  0  0  0
 74 82  1  0  0  0
 75 83  1  0  0  0
 75 86  2  0  0  0
 76 80  1  0  0  0
 76148  1  0  0  0
 76149  1  0  0  0
 77 78  1  0  0  0
 77 82  1  0  0  0
 77150  1  0  0  0
 77151  1  0  0  0
 78 84  1  0  0  0
 78152  1  0  0  0
 78153  1  0  0  0
 79 81  1  0  0  0
 79 83  1  0  0  0
 79154  1  0  0  0
 79155  1  0  0  0
 80 85  1  0  0  0
 80156  1  0  0  0
 80157  1  0  0  0
 81158  1  0  0  0
 81159  1  0  0  0
 83160  1  0  0  0
 84161  1  0  0  0
 85162  1  0  0  0
 85163  1  0  0  0
 85164  1  0  0  0
M  CHG  1  85   1
M  ISO  4   1 100  68 101  81 101  84 100
M  END
> <chiral flag>
0

> <version>
0

> <s_m_source_file>
/data/baiqing/PycharmProjects/Reinvent-master-3.2/result/LINK_invent/BTK/process_docking_weight1_custom_sum_contain_oxygen_bond_distance_aromatic_linkinvent_7_9_3/rearranged_h_0126.sdf

> <i_m_source_file_index>
39

> <r_mmod_Potential_Energy-OPLS-2005>
-346.347259521484

> <r_mmod_Stretch_Energy-OPLS-2005>
56.4983215332031

> <r_mmod_Bend_Energy-OPLS-2005>
122.348426818848

> <r_mmod_Torsional_Energy-OPLS-2005>
256.674652099609

> <r_mmod_Improper_Torsional_Energy-OPLS-2005>
3.95210433006287

> <r_mmod_Van_der_Waal_Energy-OPLS-2005>
125.524452209473

> <r_mmod_Electrostatic_Energy-OPLS-2005>
-400.282257080078

> <r_mmod_Solvation_Energy-OPLS-2005>
-538.290588378906

> <b_mmod_Minimization_Converged-OPLS-2005>
0

> <r_mmod_RMS_Derivative-OPLS-2005>
1.65763878822327

$$$$
39
                    3D
 Structure written by MMmdl.
157165  0  0  1  0            999 V2000
  -30.5169  -15.0357   20.4004 C   0  0  0  0  0  0
  -30.4382  -12.6451   19.5197 C   0  0  0  0  0  0
  -29.5287  -12.5475   18.2724 C   0  0  0  0  0  0
  -28.0656  -12.3089   18.6901 C   0  0  0  0  0  0
  -27.6244  -13.2562   19.8355 C   0  0  2  0  0  0
  -28.6610  -13.3285   20.9765 C   0  0  0  0  0  0
  -25.2433  -13.8228   20.5722 C   0  0  0  0  0  0
  -24.1763  -13.0439   20.9242 C   0  0  0  0  0  0
  -24.6390  -11.6925   20.8767 C   0  0  0  0  0  0
  -23.9081  -10.4293   21.0406 C   0  0  0  0  0  0
  -24.3633   -9.4208   21.9178 C   0  0  0  0  0  0
  -23.6314   -8.2238   22.0737 C   0  0  0  0  0  0
  -22.4290   -8.0273   21.3531 C   0  0  0  0  0  0
  -21.9923   -9.0248   20.4633 C   0  0  0  0  0  0
  -22.7254  -10.2130   20.3049 C   0  0  0  0  0  0
  -21.6859   -6.0740   22.5280 C   0  0  0  0  0  0
  -21.4024   -6.5644   23.8214 C   0  0  0  0  0  0
  -21.3667   -5.6793   24.9176 C   0  0  0  0  0  0
  -21.6033   -4.3049   24.7224 C   0  0  0  0  0  0
  -21.8825   -3.8150   23.4346 C   0  0  0  0  0  0
  -21.9201   -4.6970   22.3407 C   0  0  0  0  0  0
  -22.7780  -13.5197   21.1881 C   0  0  0  0  0  0
  -22.1667   -4.2161   21.0982 F   0  0  0  0  0  0
  -21.5627   -3.4530   25.7734 F   0  0  0  0  0  0
  -29.9283  -13.7626   20.3745 N   0  0  0  0  0  0
  -26.2857  -12.9472   20.3227 N   0  0  0  0  0  0
  -25.9322  -11.6595   20.5739 N   0  0  0  0  0  0
  -22.0435  -12.8194   22.0449 N   0  0  0  0  0  0
  -25.4094  -15.1956   20.4148 N   0  0  0  0  0  0
  -31.7218  -15.0715   20.1284 O   0  0  0  0  0  0
  -21.6642   -6.8876   21.4235 O   0  0  0  0  0  0
  -22.3456  -14.5489   20.6707 O   0  0  0  0  0  0
  -24.6495  -31.8381   23.1832 C   0  0  0  0  0  0
  -25.9239  -32.4665   23.8238 C   0  0  1  0  0  0
  -27.2028  -27.0625   20.1643 C   0  0  0  0  0  0
  -25.5964  -33.8474   24.2151 N   0  0  0  0  0  0
  -23.4568  -30.4568   21.5305 C   0  0  2  0  0  0
  -24.9050  -28.8731   20.1121 C   0  0  0  0  0  0
  -22.7607  -29.4515   22.4837 C   0  0  0  0  0  0
  -18.0309  -28.1403   22.8477 C   0  0  0  0  0  0
  -24.1496  -36.7251   23.2640 C   0  0  0  0  0  0
  -26.0191  -30.6888   21.3931 C   0  0  0  0  0  0
  -26.0861  -29.2922   20.7377 C   0  0  0  0  0  0
  -27.2375  -28.4046   20.7437 C   0  0  0  0  0  0
  -26.0007  -26.7733   19.4829 C   0  0  0  0  0  0
  -24.8796  -27.6299   19.4660 C   0  0  0  0  0  0
  -23.6868  -29.7862   20.1514 C   0  0  0  0  0  0
  -25.4127  -36.3017   24.0307 C   0  0  1  0  0  0
  -20.5927  -28.3732   23.1229 C   0  0  2  0  0  0
  -20.6798  -26.9429   22.5414 C   0  0  0  0  0  0
  -19.5776  -26.6383   21.5221 C   0  0  0  0  0  0
  -18.1954  -26.7944   22.1626 C   0  0  0  0  0  0
  -19.1567  -28.8889   23.2846 C   0  0  0  0  0  0
  -18.9477  -30.1486   23.8870 C   0  0  0  0  0  0
  -17.6471  -30.6602   24.0558 C   0  0  0  0  0  0
  -25.9083  -34.9391   23.5042 C   0  0  0  0  0  0
  -16.5365  -29.9089   23.6338 C   0  0  0  0  0  0
  -16.7288  -28.6508   23.0357 C   0  0  0  0  0  0
  -26.4531  -31.6555   25.0704 C   0  0  0  0  0  0
  -25.3685  -31.3765   26.1376 C   0  0  0  0  0  0
  -27.0390  -30.2932   24.6338 C   0  0  0  0  0  0
  -27.6061  -32.4324   25.7487 C   0  0  0  0  0  0
  -27.5589  -37.1765   24.8453 C   0  0  0  0  0  0
  -21.4287  -29.3042   22.3587 N   0  0  0  0  0  0
  -26.4286  -37.3740   23.9420 N   0  0  0  0  0  0
  -24.7291  -31.0174   22.0902 N   0  0  0  0  0  0
  -23.4218  -28.8062   23.3011 O   0  0  0  0  0  0
  -28.2216  -26.0196   20.2017 O   0  0  0  0  0  0
  -26.5680  -34.8900   22.4627 O   0  0  0  0  0  0
  -23.5601  -32.1284   23.7008 O   0  0  0  0  0  0
  -29.8622  -23.2043   19.2857 C   0  0  0  0  0  0
  -28.5278  -21.6939   20.5759 C   0  0  0  0  0  0
  -28.7566  -23.1137   20.1467 C   0  0  0  0  0  0
  -30.6028  -22.0553   18.8956 C   0  0  0  0  0  0
  -29.3439  -20.5083   20.1761 C   0  0  0  0  0  0
  -32.7164  -23.3739   15.8282 C   0  0  0  0  0  0
  -27.8553  -24.4938   20.4549 C   0  0  0  0  0  0
  -31.7519  -22.1791   17.8953 C   0  0  0  0  0  0
  -31.6700  -23.3988   16.9493 C   0  0  0  0  0  0
  -30.1260  -17.7997   20.2456 C   0  0  0  0  0  0
  -30.3642  -20.7819   19.3341 N   0  0  0  0  0  0
  -29.1911  -19.0535   20.5370 N   0  0  0  0  0  0
  -29.7549  -16.2555   20.5198 N   0  0  0  0  0  0
  -31.4721  -12.8054   19.2109 H   0  0  0  0  0  0
  -30.4400  -11.7057   20.0741 H   0  0  0  0  0  0
  -29.8701  -11.7472   17.6150 H   0  0  0  0  0  0
  -29.5990  -13.4730   17.7003 H   0  0  0  0  0  0
  -27.9850  -11.2733   19.0205 H   0  0  0  0  0  0
  -27.4014  -12.4073   17.8302 H   0  0  0  0  0  0
  -27.5742  -14.2495   19.3873 H   0  0  0  0  0  0
  -28.7668  -12.3637   21.4760 H   0  0  0  0  0  0
  -28.3424  -14.0399   21.7394 H   0  0  0  0  0  0
  -25.2774   -9.5693   22.4758 H   0  0  0  0  0  0
  -24.0033   -7.4628   22.7445 H   0  0  0  0  0  0
  -21.0859   -8.8763   19.8944 H   0  0  0  0  0  0
  -22.3699  -10.9667   19.6166 H   0  0  0  0  0  0
  -21.2006   -7.6147   23.9725 H   0  0  0  0  0  0
  -21.1487   -6.0515   25.9081 H   0  0  0  0  0  0
  -22.0594   -2.7611   23.2838 H   0  0  0  0  0  0
  -22.4079  -11.9905   22.4898 H   0  0  0  0  0  0
  -21.1025  -13.1177   22.2608 H   0  0  0  0  0  0
  -24.6368  -15.8452   20.5150 H   0  0  0  0  0  0
  -26.2485  -15.6333   20.0586 H   0  0  0  0  0  0
  -26.7305  -32.5242   23.0963 H   0  0  0  0  0  0
  -25.0057  -33.9571   25.0262 H   0  0  0  0  0  0
  -22.7637  -31.2848   21.3729 H   0  0  0  0  0  0
  -23.3770  -35.9567   23.3254 H   0  0  0  0  0  0
  -24.3603  -36.8938   22.2071 H   0  0  0  0  0  0
  -23.7229  -37.6421   23.6712 H   0  0  0  0  0  0
  -26.1842  -31.4397   20.6187 H   0  0  0  0  0  0
  -26.8859  -30.7413   22.0396 H   0  0  0  0  0  0
  -28.1358  -28.7201   21.2537 H   0  0  0  0  0  0
  -25.8962  -25.8392   18.9532 H   0  0  0  0  0  0
  -23.9835  -27.3105   18.9515 H   0  0  0  0  0  0
  -23.8307  -30.5599   19.3967 H   0  0  0  0  0  0
  -22.7993  -29.2345   19.8376 H   0  0  0  0  0  0
  -25.1314  -36.1833   25.0796 H   0  0  0  0  0  0
  -21.0017  -28.3325   24.1350 H   0  0  0  0  0  0
  -20.5714  -26.2333   23.3629 H   0  0  0  0  0  0
  -21.6660  -26.7444   22.1197 H   0  0  0  0  0  0
  -19.6941  -25.6284   21.1277 H   0  0  0  0  0  0
  -19.6725  -27.3173   20.6738 H   0  0  0  0  0  0
  -17.4225  -26.6681   21.4035 H   0  0  0  0  0  0
  -18.0351  -26.0099   22.9036 H   0  0  0  0  0  0
  -19.7949  -30.7314   24.2232 H   0  0  0  0  0  0
  -17.5016  -31.6278   24.5167 H   0  0  0  0  0  0
  -15.5364  -30.2979   23.7679 H   0  0  0  0  0  0
  -15.8688  -28.0820   22.7083 H   0  0  0  0  0  0
  -24.5879  -30.7106   25.7686 H   0  0  0  0  0  0
  -24.8846  -32.2944   26.4718 H   0  0  0  0  0  0
  -25.7927  -30.8987   27.0212 H   0  0  0  0  0  0
  -26.3006  -29.6652   24.1340 H   0  0  0  0  0  0
  -27.3963  -29.7259   25.4944 H   0  0  0  0  0  0
  -27.8943  -30.4155   23.9688 H   0  0  0  0  0  0
  -27.2664  -33.3661   26.1986 H   0  0  0  0  0  0
  -28.3899  -32.6825   25.0324 H   0  0  0  0  0  0
  -28.0689  -31.8491   26.5459 H   0  0  0  0  0  0
  -28.2544  -38.0124   24.7567 H   0  0  0  0  0  0
  -28.1145  -36.2653   24.6182 H   0  0  0  0  0  0
  -27.2321  -37.1292   25.8855 H   0  0  0  0  0  0
  -20.9500  -29.8736   21.6744 H   0  0  0  0  0  0
  -26.0145  -38.2798   24.1455 H   0  0  0  0  0  0
  -30.1081  -24.1830   18.8982 H   0  0  0  0  0  0
  -27.6809  -21.5172   21.2250 H   0  0  0  0  0  0
  -32.6424  -24.2692   15.2095 H   0  0  0  0  0  0
  -32.5805  -22.5118   15.1744 H   0  0  0  0  0  0
  -33.7288  -23.3347   16.2325 H   0  0  0  0  0  0
  -27.6154  -24.4377   21.5164 H   0  0  0  0  0  0
  -26.9074  -24.2839   19.9641 H   0  0  0  0  0  0
  -31.7775  -21.2701   17.2905 H   0  0  0  0  0  0
  -32.6913  -22.2043   18.4486 H   0  0  0  0  0  0
  -30.6779  -23.4425   16.4977 H   0  0  0  0  0  0
  -31.7963  -24.3212   17.5178 H   0  0  0  0  0  0
  -31.0630  -17.9872   20.7708 H   0  0  0  0  0  0
  -30.3849  -17.8570   19.1868 H   0  0  0  0  0  0
  -28.4623  -18.8819   21.2228 H   0  0  0  0  0  0
  -28.7845  -16.0875   20.7373 H   0  0  0  0  0  0
  1 25  1  0  0  0
  1 30  2  0  0  0
  1 83  1  0  0  0
  2  3  1  0  0  0
  2 25  1  0  0  0
  2 84  1  0  0  0
  2 85  1  0  0  0
  3  4  1  0  0  0
  3 86  1  0  0  0
  3 87  1  0  0  0
  4  5  1  0  0  0
  4 88  1  0  0  0
  4 89  1  0  0  0
  5  6  1  0  0  0
  5 26  1  0  0  0
  5 90  1  0  0  0
  6 25  1  0  0  0
  6 91  1  0  0  0
  6 92  1  0  0  0
  7  8  2  0  0  0
  7 26  1  0  0  0
  7 29  1  0  0  0
  8  9  1  0  0  0
  8 22  1  0  0  0
  9 10  1  0  0  0
  9 27  2  0  0  0
 10 11  2  0  0  0
 10 15  1  0  0  0
 11 12  1  0  0  0
 11 93  1  0  0  0
 12 13  2  0  0  0
 12 94  1  0  0  0
 13 14  1  0  0  0
 13 31  1  0  0  0
 14 15  2  0  0  0
 14 95  1  0  0  0
 15 96  1  0  0  0
 16 17  2  0  0  0
 16 21  1  0  0  0
 16 31  1  0  0  0
 17 18  1  0  0  0
 17 97  1  0  0  0
 18 19  2  0  0  0
 18 98  1  0  0  0
 19 20  1  0  0  0
 19 24  1  0  0  0
 20 21  2  0  0  0
 20 99  1  0  0  0
 21 23  1  0  0  0
 22 28  1  0  0  0
 22 32  2  0  0  0
 26 27  1  0  0  0
 28100  1  0  0  0
 28101  1  0  0  0
 29102  1  0  0  0
 29103  1  0  0  0
 33 34  1  0  0  0
 33 66  1  0  0  0
 33 70  2  0  0  0
 34 36  1  0  0  0
 34 59  1  0  0  0
 34104  1  0  0  0
 35 44  2  0  0  0
 35 45  1  0  0  0
 35 68  1  0  0  0
 36 56  1  0  0  0
 36105  1  0  0  0
 37 39  1  0  0  0
 37 47  1  0  0  0
 37 66  1  0  0  0
 37106  1  0  0  0
 38 43  2  0  0  0
 38 46  1  0  0  0
 38 47  1  0  0  0
 39 64  1  0  0  0
 39 67  2  0  0  0
 40 52  1  0  0  0
 40 53  2  0  0  0
 40 58  1  0  0  0
 41107  1  0  0  0
 41108  1  0  0  0
 41109  1  0  0  0
 41 48  1  0  0  0
 42 43  1  0  0  0
 42 66  1  0  0  0
 42110  1  0  0  0
 42111  1  0  0  0
 43 44  1  0  0  0
 44112  1  0  0  0
 45 46  2  0  0  0
 45113  1  0  0  0
 46114  1  0  0  0
 47115  1  0  0  0
 47116  1  0  0  0
 48 56  1  0  0  0
 48 65  1  0  0  0
 48117  1  0  0  0
 49 50  1  0  0  0
 49 53  1  0  0  0
 49 64  1  0  0  0
 49118  1  0  0  0
 50 51  1  0  0  0
 50119  1  0  0  0
 50120  1  0  0  0
 51 52  1  0  0  0
 51121  1  0  0  0
 51122  1  0  0  0
 52123  1  0  0  0
 52124  1  0  0  0
 53 54  1  0  0  0
 54 55  2  0  0  0
 54125  1  0  0  0
 55 57  1  0  0  0
 55126  1  0  0  0
 56 69  2  0  0  0
 57 58  2  0  0  0
 57127  1  0  0  0
 58128  1  0  0  0
 59 60  1  0  0  0
 59 61  1  0  0  0
 59 62  1  0  0  0
 60129  1  0  0  0
 60130  1  0  0  0
 60131  1  0  0  0
 61132  1  0  0  0
 61133  1  0  0  0
 61134  1  0  0  0
 62135  1  0  0  0
 62136  1  0  0  0
 62137  1  0  0  0
 63 65  1  0  0  0
 63138  1  0  0  0
 63139  1  0  0  0
 63140  1  0  0  0
 64141  1  0  0  0
 65142  1  0  0  0
 68 77  1  0  0  0
 71 73  2  0  0  0
 71 74  1  0  0  0
 71143  1  0  0  0
 72 73  1  0  0  0
 72 75  2  0  0  0
 72144  1  0  0  0
 73 77  1  0  0  0
 74 78  1  0  0  0
 74 81  2  0  0  0
 75 81  1  0  0  0
 75 82  1  0  0  0
 76 79  1  0  0  0
 76145  1  0  0  0
 76146  1  0  0  0
 76147  1  0  0  0
 77148  1  0  0  0
 77149  1  0  0  0
 78 79  1  0  0  0
 78150  1  0  0  0
 78151  1  0  0  0
 79152  1  0  0  0
 79153  1  0  0  0
 80 82  1  0  0  0
 80 83  1  0  0  0
 80154  1  0  0  0
 80155  1  0  0  0
 82156  1  0  0  0
 83157  1  0  0  0
M  ISO  4   1 100  68 101  77 101  83 100
M  END
> <chiral flag>
0

> <version>
0

> <s_m_source_file>
/data/baiqing/PycharmProjects/Reinvent-master-3.2/result/LINK_invent/BTK/process_docking_weight1_custom_sum_contain_oxygen_bond_distance_aromatic_linkinvent_7_9_3/rearranged_h_0126.sdf

> <i_m_source_file_index>
40

> <r_mmod_Potential_Energy-OPLS-2005>
432.489044189453

> <r_mmod_Stretch_Energy-OPLS-2005>
315.462890625

> <r_mmod_Bend_Energy-OPLS-2005>
289.137451171875

> <r_mmod_Torsional_Energy-OPLS-2005>
211.566940307617

> <r_mmod_Improper_Torsional_Energy-OPLS-2005>
5.17512893676758

> <r_mmod_Van_der_Waal_Energy-OPLS-2005>
134.896057128906

> <r_mmod_Electrostatic_Energy-OPLS-2005>
-539.478515625

> <r_mmod_Solvation_Energy-OPLS-2005>
-246.373245239258

> <b_mmod_Minimization_Converged-OPLS-2005>
0

> <r_mmod_RMS_Derivative-OPLS-2005>
1.82307696342468

$$$$
40
                    3D
 Structure written by MMmdl.
161169  0  0  1  0            999 V2000
  -30.6187  -14.5892   20.5245 C   0  0  0  0  0  0
  -30.4429  -12.3694   19.4292 C   0  0  0  0  0  0
  -29.5040  -12.5054   18.2095 C   0  0  0  0  0  0
  -28.0253  -12.3465   18.6231 C   0  0  0  0  0  0
  -27.6553  -13.2037   19.8630 C   0  0  2  0  0  0
  -28.7013  -13.0181   20.9856 C   0  0  0  0  0  0
  -25.2575  -13.8139   20.5663 C   0  0  0  0  0  0
  -24.1828  -13.0423   20.9177 C   0  0  0  0  0  0
  -24.6380  -11.6893   20.8738 C   0  0  0  0  0  0
  -23.9053  -10.4287   21.0415 C   0  0  0  0  0  0
  -24.3613   -9.4200   21.9187 C   0  0  0  0  0  0
  -23.6291   -8.2236   22.0753 C   0  0  0  0  0  0
  -22.4272   -8.0277   21.3546 C   0  0  0  0  0  0
  -21.9902   -9.0247   20.4645 C   0  0  0  0  0  0
  -22.7230  -10.2127   20.3058 C   0  0  0  0  0  0
  -21.6848   -6.0735   22.5282 C   0  0  0  0  0  0
  -21.4011   -6.5639   23.8215 C   0  0  0  0  0  0
  -21.3659   -5.6791   24.9175 C   0  0  0  0  0  0
  -21.6044   -4.3053   24.7225 C   0  0  0  0  0  0
  -21.8821   -3.8143   23.4344 C   0  0  0  0  0  0
  -21.9191   -4.6963   22.3403 C   0  0  0  0  0  0
  -22.7859  -13.5232   21.1849 C   0  0  0  0  0  0
  -22.1659   -4.2147   21.0980 F   0  0  0  0  0  0
  -21.5631   -3.4538   25.7738 F   0  0  0  0  0  0
  -30.0184  -13.3660   20.4260 N   0  0  0  0  0  0
  -26.2991  -12.9293   20.3303 N   0  0  0  0  0  0
  -25.9301  -11.6464   20.5747 N   0  0  0  0  0  0
  -22.0494  -12.8232   22.0408 N   0  0  0  0  0  0
  -25.4294  -15.1863   20.4075 N   0  0  0  0  0  0
  -31.7786  -14.7930   20.1567 O   0  0  0  0  0  0
  -21.6630   -6.8876   21.4245 O   0  0  0  0  0  0
  -22.3555  -14.5540   20.6697 O   0  0  0  0  0  0
  -24.6208  -31.8627   23.2036 C   0  0  0  0  0  0
  -25.9074  -32.4796   23.8361 C   0  0  1  0  0  0
  -27.2363  -27.3724   20.1142 C   0  0  0  0  0  0
  -25.5914  -33.8595   24.2298 N   0  0  0  0  0  0
  -23.4128  -30.4842   21.5446 C   0  0  2  0  0  0
  -24.8616  -28.9366   20.1169 C   0  0  0  0  0  0
  -22.7451  -29.4639   22.4958 C   0  0  0  0  0  0
  -18.0285  -28.1393   22.8500 C   0  0  0  0  0  0
  -24.1482  -36.7302   23.2638 C   0  0  0  0  0  0
  -25.9476  -30.8101   21.3649 C   0  0  0  0  0  0
  -26.0255  -29.4383   20.7131 C   0  0  0  0  0  0
  -27.2188  -28.6679   20.6998 C   0  0  0  0  0  0
  -26.0545  -26.8983   19.5082 C   0  0  0  0  0  0
  -24.8733  -27.6688   19.5079 C   0  0  0  0  0  0
  -23.6255  -29.8112   20.1622 C   0  0  0  0  0  0
  -25.4109  -36.3104   24.0338 C   0  0  1  0  0  0
  -20.5882  -28.3686   23.1314 C   0  0  2  0  0  0
  -20.6779  -26.9412   22.5428 C   0  0  0  0  0  0
  -19.5755  -26.6391   21.5229 C   0  0  0  0  0  0
  -18.1926  -26.7941   22.1629 C   0  0  0  0  0  0
  -19.1535  -28.8856   23.2897 C   0  0  0  0  0  0
  -18.9460  -30.1463   23.8905 C   0  0  0  0  0  0
  -17.6456  -30.6591   24.0574 C   0  0  0  0  0  0
  -25.9047  -34.9470   23.5121 C   0  0  0  0  0  0
  -16.5347  -29.9097   23.6327 C   0  0  0  0  0  0
  -16.7268  -28.6516   23.0345 C   0  0  0  0  0  0
  -26.4474  -31.6594   25.0714 C   0  0  0  0  0  0
  -25.3720  -31.3723   26.1451 C   0  0  0  0  0  0
  -27.0293  -30.3020   24.6135 C   0  0  0  0  0  0
  -27.6064  -32.4302   25.7464 C   0  0  0  0  0  0
  -27.5582  -37.1791   24.8458 C   0  0  0  0  0  0
  -21.4167  -29.3037   22.3702 N   0  0  0  0  0  0
  -26.4284  -37.3802   23.9423 N   0  0  0  0  0  0
  -24.6788  -31.0685   22.0953 N   0  0  0  0  0  0
  -23.4194  -28.8192   23.3028 O   0  0  0  0  0  0
  -28.3811  -26.5847   20.1032 O   0  0  0  0  0  0
  -26.5610  -34.8941   22.4684 O   0  0  0  0  0  0
  -23.5383  -32.1394   23.7402 O   0  0  0  0  0  0
  -28.8761  -19.8327   18.5912 C   0  0  0  0  0  0
  -28.5574  -21.2089   18.7688 C   0  0  0  0  0  0
  -29.5890  -19.3721   19.6702 C   0  0  0  0  0  0
  -29.0673  -21.5992   19.9737 C   0  0  0  0  0  0
  -29.3573  -20.5157   22.9885 C   0  0  0  0  0  0
  -31.4654  -21.5329   21.9682 C   0  0  0  0  0  0
  -30.1934  -17.9521   19.7994 C   0  0  0  0  0  0
  -29.9430  -17.0692   21.0717 C   0  0  0  0  0  0
  -28.2882  -25.2558   20.7061 C   0  0  0  0  0  0
  -28.6577  -24.0062   19.8242 C   0  0  0  0  0  0
  -30.3809  -20.4508   21.8460 C   0  0  0  0  0  0
  -29.7115  -20.4770   20.5463 N   0  0  0  0  0  0
  -29.7777  -15.5957   20.8785 N   0  0  0  0  0  0
  -28.9895  -22.8198   20.6078 O   0  0  0  0  0  0
  -31.4818  -12.5088   19.1259 H   0  0  0  0  0  0
  -30.3846  -11.3656   19.8522 H   0  0  0  0  0  0
  -29.7625  -11.7637   17.4522 H   0  0  0  0  0  0
  -29.6484  -13.4805   17.7414 H   0  0  0  0  0  0
  -27.8553  -11.2919   18.8420 H   0  0  0  0  0  0
  -27.3709  -12.5916   17.7860 H   0  0  0  0  0  0
  -27.6841  -14.2442   19.5394 H   0  0  0  0  0  0
  -28.7066  -11.9835   21.3328 H   0  0  0  0  0  0
  -28.4520  -13.6196   21.8619 H   0  0  0  0  0  0
  -25.2768   -9.5669   22.4755 H   0  0  0  0  0  0
  -23.9998   -7.4624   22.7469 H   0  0  0  0  0  0
  -21.0832   -8.8767   19.8952 H   0  0  0  0  0  0
  -22.3697  -10.9665   19.6159 H   0  0  0  0  0  0
  -21.2003   -7.6150   23.9718 H   0  0  0  0  0  0
  -21.1480   -6.0520   25.9079 H   0  0  0  0  0  0
  -22.0601   -2.7606   23.2844 H   0  0  0  0  0  0
  -22.4104  -11.9891   22.4805 H   0  0  0  0  0  0
  -21.1111  -13.1257   22.2605 H   0  0  0  0  0  0
  -24.6605  -15.8389   20.5165 H   0  0  0  0  0  0
  -26.2743  -15.6276   20.0686 H   0  0  0  0  0  0
  -26.7150  -32.5485   23.1125 H   0  0  0  0  0  0
  -25.0049  -33.9740   25.0433 H   0  0  0  0  0  0
  -22.7046  -31.3029   21.4008 H   0  0  0  0  0  0
  -23.3759  -35.9618   23.3290 H   0  0  0  0  0  0
  -24.3578  -36.8919   22.2052 H   0  0  0  0  0  0
  -23.7214  -37.6500   23.6649 H   0  0  0  0  0  0
  -26.0693  -31.5722   20.5939 H   0  0  0  0  0  0
  -26.8322  -30.8640   21.9877 H   0  0  0  0  0  0
  -28.1180  -29.0541   21.1601 H   0  0  0  0  0  0
  -26.0447  -25.9279   19.0320 H   0  0  0  0  0  0
  -23.9797  -27.2768   19.0420 H   0  0  0  0  0  0
  -23.7398  -30.5839   19.4016 H   0  0  0  0  0  0
  -22.7483  -29.2345   19.8645 H   0  0  0  0  0  0
  -25.1281  -36.1959   25.0830 H   0  0  0  0  0  0
  -20.9974  -28.3251   24.1438 H   0  0  0  0  0  0
  -20.5704  -26.2282   23.3616 H   0  0  0  0  0  0
  -21.6645  -26.7456   22.1206 H   0  0  0  0  0  0
  -19.6909  -25.6306   21.1245 H   0  0  0  0  0  0
  -19.6702  -27.3221   20.6777 H   0  0  0  0  0  0
  -17.4203  -26.6704   21.4019 H   0  0  0  0  0  0
  -18.0307  -26.0081   22.9024 H   0  0  0  0  0  0
  -19.7929  -30.7292   24.2265 H   0  0  0  0  0  0
  -17.5004  -31.6272   24.5182 H   0  0  0  0  0  0
  -15.5347  -30.3006   23.7652 H   0  0  0  0  0  0
  -15.8666  -28.0850   22.7046 H   0  0  0  0  0  0
  -24.5926  -30.7027   25.7795 H   0  0  0  0  0  0
  -24.8870  -32.2884   26.4831 H   0  0  0  0  0  0
  -25.8063  -30.8947   27.0244 H   0  0  0  0  0  0
  -26.2846  -29.6794   24.1160 H   0  0  0  0  0  0
  -27.4006  -29.7251   25.4615 H   0  0  0  0  0  0
  -27.8718  -30.4310   23.9333 H   0  0  0  0  0  0
  -27.2704  -33.3607   26.2046 H   0  0  0  0  0  0
  -28.3863  -32.6837   25.0271 H   0  0  0  0  0  0
  -28.0747  -31.8414   26.5355 H   0  0  0  0  0  0
  -28.2588  -38.0101   24.7553 H   0  0  0  0  0  0
  -28.1085  -36.2643   24.6213 H   0  0  0  0  0  0
  -27.2311  -37.1365   25.8860 H   0  0  0  0  0  0
  -20.9333  -29.8716   21.6888 H   0  0  0  0  0  0
  -26.0167  -38.2872   24.1462 H   0  0  0  0  0  0
  -28.6195  -19.2341   17.7274 H   0  0  0  0  0  0
  -28.0054  -21.8310   18.0777 H   0  0  0  0  0  0
  -29.8435  -20.4029   23.9571 H   0  0  0  0  0  0
  -28.6189  -19.7182   22.9006 H   0  0  0  0  0  0
  -28.8215  -21.4653   22.9924 H   0  0  0  0  0  0
  -32.0482  -21.3928   22.8790 H   0  0  0  0  0  0
  -31.0409  -22.5351   22.0080 H   0  0  0  0  0  0
  -32.1571  -21.4910   21.1265 H   0  0  0  0  0  0
  -31.2709  -18.0196   19.6433 H   0  0  0  0  0  0
  -29.8385  -17.3786   18.9427 H   0  0  0  0  0  0
  -29.0120  -17.4048   21.5289 H   0  0  0  0  0  0
  -30.7178  -17.2451   21.8179 H   0  0  0  0  0  0
  -28.9888  -25.2763   21.5408 H   0  0  0  0  0  0
  -27.3111  -25.0942   21.1649 H   0  0  0  0  0  0
  -29.5285  -24.2466   19.2134 H   0  0  0  0  0  0
  -27.8341  -23.8160   19.1362 H   0  0  0  0  0  0
  -30.9021  -19.5002   21.9285 H   0  0  0  0  0  0
  -28.8516  -15.2598   21.0953 H   0  0  0  0  0  0
  1 25  1  0  0  0
  1 30  2  0  0  0
  1 83  1  0  0  0
  2  3  1  0  0  0
  2 25  1  0  0  0
  2 85  1  0  0  0
  2 86  1  0  0  0
  3  4  1  0  0  0
  3 87  1  0  0  0
  3 88  1  0  0  0
  4  5  1  0  0  0
  4 89  1  0  0  0
  4 90  1  0  0  0
  5  6  1  0  0  0
  5 26  1  0  0  0
  5 91  1  0  0  0
  6 25  1  0  0  0
  6 92  1  0  0  0
  6 93  1  0  0  0
  7  8  2  0  0  0
  7 26  1  0  0  0
  7 29  1  0  0  0
  8  9  1  0  0  0
  8 22  1  0  0  0
  9 10  1  0  0  0
  9 27  2  0  0  0
 10 11  2  0  0  0
 10 15  1  0  0  0
 11 12  1  0  0  0
 11 94  1  0  0  0
 12 13  2  0  0  0
 12 95  1  0  0  0
 13 14  1  0  0  0
 13 31  1  0  0  0
 14 15  2  0  0  0
 14 96  1  0  0  0
 15 97  1  0  0  0
 16 17  2  0  0  0
 16 21  1  0  0  0
 16 31  1  0  0  0
 17 18  1  0  0  0
 17 98  1  0  0  0
 18 19  2  0  0  0
 18 99  1  0  0  0
 19 20  1  0  0  0
 19 24  1  0  0  0
 20 21  2  0  0  0
 20100  1  0  0  0
 21 23  1  0  0  0
 22 28  1  0  0  0
 22 32  2  0  0  0
 26 27  1  0  0  0
 28101  1  0  0  0
 28102  1  0  0  0
 29103  1  0  0  0
 29104  1  0  0  0
 33 34  1  0  0  0
 33 66  1  0  0  0
 33 70  2  0  0  0
 34 36  1  0  0  0
 34 59  1  0  0  0
 34105  1  0  0  0
 35 44  2  0  0  0
 35 45  1  0  0  0
 35 68  1  0  0  0
 36 56  1  0  0  0
 36106  1  0  0  0
 37 39  1  0  0  0
 37 47  1  0  0  0
 37 66  1  0  0  0
 37107  1  0  0  0
 38 43  2  0  0  0
 38 46  1  0  0  0
 38 47  1  0  0  0
 39 64  1  0  0  0
 39 67  2  0  0  0
 40 52  1  0  0  0
 40 53  2  0  0  0
 40 58  1  0  0  0
 41108  1  0  0  0
 41109  1  0  0  0
 41110  1  0  0  0
 41 48  1  0  0  0
 42 43  1  0  0  0
 42 66  1  0  0  0
 42111  1  0  0  0
 42112  1  0  0  0
 43 44  1  0  0  0
 44113  1  0  0  0
 45 46  2  0  0  0
 45114  1  0  0  0
 46115  1  0  0  0
 47116  1  0  0  0
 47117  1  0  0  0
 48 56  1  0  0  0
 48 65  1  0  0  0
 48118  1  0  0  0
 49 50  1  0  0  0
 49 53  1  0  0  0
 49 64  1  0  0  0
 49119  1  0  0  0
 50 51  1  0  0  0
 50120  1  0  0  0
 50121  1  0  0  0
 51 52  1  0  0  0
 51122  1  0  0  0
 51123  1  0  0  0
 52124  1  0  0  0
 52125  1  0  0  0
 53 54  1  0  0  0
 54 55  2  0  0  0
 54126  1  0  0  0
 55 57  1  0  0  0
 55127  1  0  0  0
 56 69  2  0  0  0
 57 58  2  0  0  0
 57128  1  0  0  0
 58129  1  0  0  0
 59 60  1  0  0  0
 59 61  1  0  0  0
 59 62  1  0  0  0
 60130  1  0  0  0
 60131  1  0  0  0
 60132  1  0  0  0
 61133  1  0  0  0
 61134  1  0  0  0
 61135  1  0  0  0
 62136  1  0  0  0
 62137  1  0  0  0
 62138  1  0  0  0
 63 65  1  0  0  0
 63139  1  0  0  0
 63140  1  0  0  0
 63141  1  0  0  0
 64142  1  0  0  0
 65143  1  0  0  0
 68 79  1  0  0  0
 71 72  1  0  0  0
 71 73  2  0  0  0
 71144  1  0  0  0
 72 74  2  0  0  0
 72145  1  0  0  0
 73 77  1  0  0  0
 73 82  1  0  0  0
 74 82  1  0  0  0
 74 84  1  0  0  0
 75146  1  0  0  0
 75147  1  0  0  0
 75148  1  0  0  0
 75 81  1  0  0  0
 76 81  1  0  0  0
 76149  1  0  0  0
 76150  1  0  0  0
 76151  1  0  0  0
 77 78  1  0  0  0
 77152  1  0  0  0
 77153  1  0  0  0
 78 83  1  0  0  0
 78154  1  0  0  0
 78155  1  0  0  0
 79 80  1  0  0  0
 79156  1  0  0  0
 79157  1  0  0  0
 80 84  1  0  0  0
 80158  1  0  0  0
 80159  1  0  0  0
 81 82  1  0  0  0
 81160  1  0  0  0
 83161  1  0  0  0
M  ISO  4   1 100  68 101  79 101  83 100
M  END
> <chiral flag>
0

> <version>
0

> <s_m_source_file>
/data/baiqing/PycharmProjects/Reinvent-master-3.2/result/LINK_invent/BTK/process_docking_weight1_custom_sum_contain_oxygen_bond_distance_aromatic_linkinvent_7_9_3/rearranged_h_0126.sdf

> <i_m_source_file_index>
41

> <r_mmod_Potential_Energy-OPLS-2005>
4.4315710067749

> <r_mmod_Stretch_Energy-OPLS-2005>
59.639533996582

> <r_mmod_Bend_Energy-OPLS-2005>
137.724380493164

> <r_mmod_Torsional_Energy-OPLS-2005>
255.755661010742

> <r_mmod_Improper_Torsional_Energy-OPLS-2005>
4.38820743560791

> <r_mmod_Van_der_Waal_Energy-OPLS-2005>
117.210639953613

> <r_mmod_Electrostatic_Energy-OPLS-2005>
-393.903564453125

> <r_mmod_Solvation_Energy-OPLS-2005>
-207.396270751953

> <b_mmod_Minimization_Converged-OPLS-2005>
0

> <r_mmod_RMS_Derivative-OPLS-2005>
1.36921894550323

$$$$
41
                    3D
 Structure written by MMmdl.
182192  0  0  1  0            999 V2000
  -30.7138  -14.5507   20.5525 C   0  0  0  0  0  0
  -30.4150  -12.3571   19.4335 C   0  0  0  0  0  0
  -29.4855  -12.4973   18.2111 C   0  0  0  0  0  0
  -28.0146  -12.3246   18.6327 C   0  0  0  0  0  0
  -27.6431  -13.1982   19.8571 C   0  0  2  0  0  0
  -28.6935  -13.0717   20.9857 C   0  0  0  0  0  0
  -25.2530  -13.8127   20.5682 C   0  0  0  0  0  0
  -24.1801  -13.0403   20.9215 C   0  0  0  0  0  0
  -24.6362  -11.6880   20.8766 C   0  0  0  0  0  0
  -23.9040  -10.4267   21.0414 C   0  0  0  0  0  0
  -24.3604   -9.4191   21.9187 C   0  0  0  0  0  0
  -23.6282   -8.2227   22.0754 C   0  0  0  0  0  0
  -22.4268   -8.0270   21.3539 C   0  0  0  0  0  0
  -21.9897   -9.0242   20.4636 C   0  0  0  0  0  0
  -22.7222  -10.2120   20.3050 C   0  0  0  0  0  0
  -21.6848   -6.0733   22.5288 C   0  0  0  0  0  0
  -21.4008   -6.5645   23.8218 C   0  0  0  0  0  0
  -21.3650   -5.6796   24.9178 C   0  0  0  0  0  0
  -21.6040   -4.3060   24.7231 C   0  0  0  0  0  0
  -21.8818   -3.8143   23.4355 C   0  0  0  0  0  0
  -21.9191   -4.6958   22.3412 C   0  0  0  0  0  0
  -22.7832  -13.5207   21.1877 C   0  0  0  0  0  0
  -22.1666   -4.2140   21.0990 F   0  0  0  0  0  0
  -21.5622   -3.4546   25.7743 F   0  0  0  0  0  0
  -30.0136  -13.3826   20.4154 N   0  0  0  0  0  0
  -26.2930  -12.9264   20.3325 N   0  0  0  0  0  0
  -25.9277  -11.6437   20.5782 N   0  0  0  0  0  0
  -22.0486  -12.8187   22.0435 N   0  0  0  0  0  0
  -25.4188  -15.1843   20.4032 N   0  0  0  0  0  0
  -31.8754  -14.6542   20.1473 O   0  0  0  0  0  0
  -21.6625   -6.8874   21.4247 O   0  0  0  0  0  0
  -22.3513  -14.5505   20.6719 O   0  0  0  0  0  0
  -24.6187  -31.8646   23.2079 C   0  0  0  0  0  0
  -25.9063  -32.4800   23.8392 C   0  0  1  0  0  0
  -27.2401  -27.3901   20.0980 C   0  0  0  0  0  0
  -25.5903  -33.8603   24.2316 N   0  0  0  0  0  0
  -23.4086  -30.4887   21.5493 C   0  0  2  0  0  0
  -24.8558  -28.9499   20.1143 C   0  0  0  0  0  0
  -22.7428  -29.4641   22.4975 C   0  0  0  0  0  0
  -18.0273  -28.1385   22.8490 C   0  0  0  0  0  0
  -24.1479  -36.7310   23.2646 C   0  0  0  0  0  0
  -25.9432  -30.8157   21.3688 C   0  0  0  0  0  0
  -26.0182  -29.4484   20.7126 C   0  0  0  0  0  0
  -27.2073  -28.6754   20.7024 C   0  0  0  0  0  0
  -26.0460  -26.9152   19.5027 C   0  0  0  0  0  0
  -24.8670  -27.6836   19.5087 C   0  0  0  0  0  0
  -23.6193  -29.8201   20.1647 C   0  0  0  0  0  0
  -25.4105  -36.3104   24.0337 C   0  0  1  0  0  0
  -20.5871  -28.3677   23.1305 C   0  0  2  0  0  0
  -20.6760  -26.9406   22.5422 C   0  0  0  0  0  0
  -19.5738  -26.6383   21.5218 C   0  0  0  0  0  0
  -18.1918  -26.7936   22.1624 C   0  0  0  0  0  0
  -19.1527  -28.8847   23.2892 C   0  0  0  0  0  0
  -18.9452  -30.1451   23.8903 C   0  0  0  0  0  0
  -17.6452  -30.6590   24.0566 C   0  0  0  0  0  0
  -25.9037  -34.9466   23.5127 C   0  0  0  0  0  0
  -16.5342  -29.9092   23.6331 C   0  0  0  0  0  0
  -16.7261  -28.6506   23.0350 C   0  0  0  0  0  0
  -26.4482  -31.6595   25.0741 C   0  0  0  0  0  0
  -25.3731  -31.3710   26.1473 C   0  0  0  0  0  0
  -27.0352  -30.3035   24.6168 C   0  0  0  0  0  0
  -27.6040  -32.4342   25.7503 C   0  0  0  0  0  0
  -27.5581  -37.1805   24.8469 C   0  0  0  0  0  0
  -21.4150  -29.3034   22.3704 N   0  0  0  0  0  0
  -26.4294  -37.3787   23.9415 N   0  0  0  0  0  0
  -24.6755  -31.0718   22.0996 N   0  0  0  0  0  0
  -23.4187  -28.8188   23.3031 O   0  0  0  0  0  0
  -28.4172  -26.6493   20.1605 O   0  0  0  0  0  0
  -26.5600  -34.8918   22.4689 O   0  0  0  0  0  0
  -23.5363  -32.1418   23.7441 O   0  0  0  0  0  0
  -29.0243  -20.9994   20.8659 C   0  0  0  0  0  0
  -28.7146  -22.2256   21.5269 C   0  0  0  0  0  0
  -29.1665  -20.0205   21.8273 C   0  0  0  0  0  0
  -28.7363  -22.0197   22.8803 C   0  0  0  0  0  0
  -26.9699  -24.7841   24.7467 C   0  0  0  0  0  0
  -28.2032  -25.4560   24.1451 C   0  0  0  0  0  0
  -26.9569  -23.4031   24.0950 C   0  0  0  0  0  0
  -29.2256  -24.3265   23.9556 C   0  0  0  0  0  0
  -29.0208  -17.8690   20.3466 C   0  0  0  0  0  0
  -30.7461  -17.9479   22.0522 C   0  0  0  0  0  0
  -28.9696  -16.3144   20.4188 C   0  0  0  0  0  0
  -30.7514  -16.3989   22.2002 C   0  0  0  0  0  0
  -29.3503  -18.4978   21.7044 C   0  0  0  0  0  0
  -28.4372  -22.9997   23.9986 C   0  0  0  0  0  0
  -27.8228  -19.9599   25.1818 C   0  0  0  0  0  0
  -30.3756  -20.3913   25.1923 C   0  0  0  0  0  0
  -29.2572  -24.2364   20.1694 C   0  0  0  0  0  0
  -28.6165  -25.4343   19.3936 C   0  0  0  0  0  0
  -29.1382  -19.9634   24.3824 C   0  0  0  0  0  0
  -29.0310  -20.6556   23.0802 N   0  0  0  0  0  0
  -30.0887  -15.6312   21.1167 N   0  0  0  0  0  0
  -28.2923  -23.4337   20.9278 N   0  0  0  0  0  0
  -31.4572  -12.4556   19.1227 H   0  0  0  0  0  0
  -30.3276  -11.3616   19.8728 H   0  0  0  0  0  0
  -29.7433  -11.7583   17.4512 H   0  0  0  0  0  0
  -29.6255  -13.4753   17.7479 H   0  0  0  0  0  0
  -27.8601  -11.2714   18.8722 H   0  0  0  0  0  0
  -27.3528  -12.5470   17.7955 H   0  0  0  0  0  0
  -27.6387  -14.2161   19.4853 H   0  0  0  0  0  0
  -28.6943  -12.0603   21.3955 H   0  0  0  0  0  0
  -28.4455  -13.7290   21.8200 H   0  0  0  0  0  0
  -25.2747   -9.5666   22.4759 H   0  0  0  0  0  0
  -23.9983   -7.4620   22.7480 H   0  0  0  0  0  0
  -21.0823   -8.8773   19.8943 H   0  0  0  0  0  0
  -22.3693  -10.9667   19.6163 H   0  0  0  0  0  0
  -21.2010   -7.6157   23.9716 H   0  0  0  0  0  0
  -21.1468   -6.0529   25.9079 H   0  0  0  0  0  0
  -22.0601   -2.7603   23.2866 H   0  0  0  0  0  0
  -22.4119  -11.9850   22.4809 H   0  0  0  0  0  0
  -21.1104  -13.1202   22.2656 H   0  0  0  0  0  0
  -24.6470  -15.8347   20.5043 H   0  0  0  0  0  0
  -26.2632  -15.6250   20.0637 H   0  0  0  0  0  0
  -26.7130  -32.5503   23.1151 H   0  0  0  0  0  0
  -25.0035  -33.9752   25.0447 H   0  0  0  0  0  0
  -22.6981  -31.3058   21.4088 H   0  0  0  0  0  0
  -23.3744  -35.9640   23.3308 H   0  0  0  0  0  0
  -24.3560  -36.8938   22.2060 H   0  0  0  0  0  0
  -23.7226  -37.6504   23.6673 H   0  0  0  0  0  0
  -26.0649  -31.5796   20.5993 H   0  0  0  0  0  0
  -26.8274  -30.8650   21.9928 H   0  0  0  0  0  0
  -28.1030  -29.0584   21.1723 H   0  0  0  0  0  0
  -25.9680  -25.9404   19.0501 H   0  0  0  0  0  0
  -23.9692  -27.2858   19.0555 H   0  0  0  0  0  0
  -23.7278  -30.5941   19.4042 H   0  0  0  0  0  0
  -22.7419  -29.2403   19.8716 H   0  0  0  0  0  0
  -25.1279  -36.1965   25.0828 H   0  0  0  0  0  0
  -20.9963  -28.3262   24.1423 H   0  0  0  0  0  0
  -20.5660  -26.2282   23.3616 H   0  0  0  0  0  0
  -21.6632  -26.7441   22.1216 H   0  0  0  0  0  0
  -19.6891  -25.6294   21.1235 H   0  0  0  0  0  0
  -19.6683  -27.3192   20.6749 H   0  0  0  0  0  0
  -17.4194  -26.6696   21.4015 H   0  0  0  0  0  0
  -18.0299  -26.0080   22.9014 H   0  0  0  0  0  0
  -19.7932  -30.7264   24.2272 H   0  0  0  0  0  0
  -17.5016  -31.6265   24.5178 H   0  0  0  0  0  0
  -15.5342  -30.2991   23.7660 H   0  0  0  0  0  0
  -15.8663  -28.0825   22.7061 H   0  0  0  0  0  0
  -24.5918  -30.7040   25.7809 H   0  0  0  0  0  0
  -24.8896  -32.2863   26.4897 H   0  0  0  0  0  0
  -25.8069  -30.8902   27.0249 H   0  0  0  0  0  0
  -26.2933  -29.6752   24.1222 H   0  0  0  0  0  0
  -27.4116  -29.7311   25.4658 H   0  0  0  0  0  0
  -27.8761  -30.4355   23.9355 H   0  0  0  0  0  0
  -27.2647  -33.3643   26.2073 H   0  0  0  0  0  0
  -28.3839  -32.6902   25.0323 H   0  0  0  0  0  0
  -28.0722  -31.8485   26.5421 H   0  0  0  0  0  0
  -28.2600  -38.0101   24.7515 H   0  0  0  0  0  0
  -28.1075  -36.2631   24.6300 H   0  0  0  0  0  0
  -27.2295  -37.1460   25.8871 H   0  0  0  0  0  0
  -20.9315  -29.8760   21.6925 H   0  0  0  0  0  0
  -26.0186  -38.2866   24.1412 H   0  0  0  0  0  0
  -29.0540  -20.8261   19.7995 H   0  0  0  0  0  0
  -26.0530  -25.3457   24.5652 H   0  0  0  0  0  0
  -27.0894  -24.6811   25.8269 H   0  0  0  0  0  0
  -28.5843  -26.2666   24.7675 H   0  0  0  0  0  0
  -27.9463  -25.8831   23.1743 H   0  0  0  0  0  0
  -26.5174  -23.4899   23.1012 H   0  0  0  0  0  0
  -26.3590  -22.6771   24.6466 H   0  0  0  0  0  0
  -29.9652  -24.3404   24.7581 H   0  0  0  0  0  0
  -29.7819  -24.4632   23.0305 H   0  0  0  0  0  0
  -28.0520  -18.2328   20.0002 H   0  0  0  0  0  0
  -29.7494  -18.1877   19.5996 H   0  0  0  0  0  0
  -31.4619  -18.2512   21.2870 H   0  0  0  0  0  0
  -31.1156  -18.3852   22.9785 H   0  0  0  0  0  0
  -28.8927  -15.9516   19.3932 H   0  0  0  0  0  0
  -28.0535  -16.0266   20.9333 H   0  0  0  0  0  0
  -30.2403  -16.1359   23.1275 H   0  0  0  0  0  0
  -31.7825  -16.0672   22.3383 H   0  0  0  0  0  0
  -28.6302  -18.0461   22.3874 H   0  0  0  0  0  0
  -28.6874  -22.5715   24.9598 H   0  0  0  0  0  0
  -27.8437  -19.1806   25.9442 H   0  0  0  0  0  0
  -26.9717  -19.7519   24.5329 H   0  0  0  0  0  0
  -27.6243  -20.8923   25.7048 H   0  0  0  0  0  0
  -30.4822  -19.7712   26.0828 H   0  0  0  0  0  0
  -30.3512  -21.4252   25.5275 H   0  0  0  0  0  0
  -31.2844  -20.2655   24.6037 H   0  0  0  0  0  0
  -30.0488  -24.5996   20.8241 H   0  0  0  0  0  0
  -29.7428  -23.5768   19.4492 H   0  0  0  0  0  0
  -27.7614  -25.0737   18.8308 H   0  0  0  0  0  0
  -29.3311  -25.7244   18.6229 H   0  0  0  0  0  0
  -29.3116  -18.9097   24.1966 H   0  0  0  0  0  0
  -27.8044  -24.0237   21.5957 H   0  0  0  0  0  0
  1 25  1  0  0  0
  1 30  2  0  0  0
  1 91  1  0  0  0
  2  3  1  0  0  0
  2 25  1  0  0  0
  2 93  1  0  0  0
  2 94  1  0  0  0
  3  4  1  0  0  0
  3 95  1  0  0  0
  3 96  1  0  0  0
  4  5  1  0  0  0
  4 97  1  0  0  0
  4 98  1  0  0  0
  5  6  1  0  0  0
  5 26  1  0  0  0
  5 99  1  0  0  0
  6 25  1  0  0  0
  6100  1  0  0  0
  6101  1  0  0  0
  7  8  2  0  0  0
  7 26  1  0  0  0
  7 29  1  0  0  0
  8  9  1  0  0  0
  8 22  1  0  0  0
  9 10  1  0  0  0
  9 27  2  0  0  0
 10 11  2  0  0  0
 10 15  1  0  0  0
 11 12  1  0  0  0
 11102  1  0  0  0
 12 13  2  0  0  0
 12103  1  0  0  0
 13 14  1  0  0  0
 13 31  1  0  0  0
 14 15  2  0  0  0
 14104  1  0  0  0
 15105  1  0  0  0
 16 17  2  0  0  0
 16 21  1  0  0  0
 16 31  1  0  0  0
 17 18  1  0  0  0
 17106  1  0  0  0
 18 19  2  0  0  0
 18107  1  0  0  0
 19 20  1  0  0  0
 19 24  1  0  0  0
 20 21  2  0  0  0
 20108  1  0  0  0
 21 23  1  0  0  0
 22 28  1  0  0  0
 22 32  2  0  0  0
 26 27  1  0  0  0
 28109  1  0  0  0
 28110  1  0  0  0
 29111  1  0  0  0
 29112  1  0  0  0
 33 34  1  0  0  0
 33 66  1  0  0  0
 33 70  2  0  0  0
 34 36  1  0  0  0
 34 59  1  0  0  0
 34113  1  0  0  0
 35 44  2  0  0  0
 35 45  1  0  0  0
 35 68  1  0  0  0
 36 56  1  0  0  0
 36114  1  0  0  0
 37 39  1  0  0  0
 37 47  1  0  0  0
 37 66  1  0  0  0
 37115  1  0  0  0
 38 43  2  0  0  0
 38 46  1  0  0  0
 38 47  1  0  0  0
 39 64  1  0  0  0
 39 67  2  0  0  0
 40 52  1  0  0  0
 40 53  2  0  0  0
 40 58  1  0  0  0
 41116  1  0  0  0
 41117  1  0  0  0
 41118  1  0  0  0
 41 48  1  0  0  0
 42 43  1  0  0  0
 42 66  1  0  0  0
 42119  1  0  0  0
 42120  1  0  0  0
 43 44  1  0  0  0
 44121  1  0  0  0
 45 46  2  0  0  0
 45122  1  0  0  0
 46123  1  0  0  0
 47124  1  0  0  0
 47125  1  0  0  0
 48 56  1  0  0  0
 48 65  1  0  0  0
 48126  1  0  0  0
 49 50  1  0  0  0
 49 53  1  0  0  0
 49 64  1  0  0  0
 49127  1  0  0  0
 50 51  1  0  0  0
 50128  1  0  0  0
 50129  1  0  0  0
 51 52  1  0  0  0
 51130  1  0  0  0
 51131  1  0  0  0
 52132  1  0  0  0
 52133  1  0  0  0
 53 54  1  0  0  0
 54 55  2  0  0  0
 54134  1  0  0  0
 55 57  1  0  0  0
 55135  1  0  0  0
 56 69  2  0  0  0
 57 58  2  0  0  0
 57136  1  0  0  0
 58137  1  0  0  0
 59 60  1  0  0  0
 59 61  1  0  0  0
 59 62  1  0  0  0
 60138  1  0  0  0
 60139  1  0  0  0
 60140  1  0  0  0
 61141  1  0  0  0
 61142  1  0  0  0
 61143  1  0  0  0
 62144  1  0  0  0
 62145  1  0  0  0
 62146  1  0  0  0
 63 65  1  0  0  0
 63147  1  0  0  0
 63148  1  0  0  0
 63149  1  0  0  0
 64150  1  0  0  0
 65151  1  0  0  0
 68 88  1  0  0  0
 71 72  1  0  0  0
 71 73  2  0  0  0
 71152  1  0  0  0
 72 74  2  0  0  0
 72 92  1  0  0  0
 73 90  1  0  0  0
 73 83  1  0  0  0
 74 90  1  0  0  0
 74 84  1  0  0  0
 75 76  1  0  0  0
 75 77  1  0  0  0
 75153  1  0  0  0
 75154  1  0  0  0
 76 78  1  0  0  0
 76155  1  0  0  0
 76156  1  0  0  0
 77 84  1  0  0  0
 77157  1  0  0  0
 77158  1  0  0  0
 78 84  1  0  0  0
 78159  1  0  0  0
 78160  1  0  0  0
 79 81  1  0  0  0
 79 83  1  0  0  0
 79161  1  0  0  0
 79162  1  0  0  0
 80 82  1  0  0  0
 80 83  1  0  0  0
 80163  1  0  0  0
 80164  1  0  0  0
 81 91  1  0  0  0
 81165  1  0  0  0
 81166  1  0  0  0
 82 91  1  0  0  0
 82167  1  0  0  0
 82168  1  0  0  0
 83169  1  0  0  0
 84170  1  0  0  0
 85171  1  0  0  0
 85172  1  0  0  0
 85173  1  0  0  0
 85 89  1  0  0  0
 86 89  1  0  0  0
 86174  1  0  0  0
 86175  1  0  0  0
 86176  1  0  0  0
 87 88  1  0  0  0
 87 92  1  0  0  0
 87177  1  0  0  0
 87178  1  0  0  0
 88179  1  0  0  0
 88180  1  0  0  0
 89 90  1  0  0  0
 89181  1  0  0  0
 92182  1  0  0  0
M  ISO  4   1 100  68 101  88 101  91 100
M  END
> <chiral flag>
0

> <version>
0

> <s_m_source_file>
/data/baiqing/PycharmProjects/Reinvent-master-3.2/result/LINK_invent/BTK/process_docking_weight1_custom_sum_contain_oxygen_bond_distance_aromatic_linkinvent_7_9_3/rearranged_h_0126.sdf

> <i_m_source_file_index>
42

> <r_mmod_Potential_Energy-OPLS-2005>
291.605682373047

> <r_mmod_Stretch_Energy-OPLS-2005>
55.8517532348633

> <r_mmod_Bend_Energy-OPLS-2005>
176.826766967773

> <r_mmod_Torsional_Energy-OPLS-2005>
438.490386962891

> <r_mmod_Improper_Torsional_Energy-OPLS-2005>
8.80420207977295

> <r_mmod_Van_der_Waal_Energy-OPLS-2005>
124.350952148438

> <r_mmod_Electrostatic_Energy-OPLS-2005>
-342.592987060547

> <r_mmod_Solvation_Energy-OPLS-2005>
-196.450927734375

> <b_mmod_Minimization_Converged-OPLS-2005>
0

> <r_mmod_RMS_Derivative-OPLS-2005>
1.43885982036591

$$$$
42
                    3D
 Structure written by MMmdl.
155163  0  0  1  0            999 V2000
  -30.6167  -14.7207   20.4642 C   0  0  0  0  0  0
  -30.4389  -12.4406   19.4583 C   0  0  0  0  0  0
  -29.5011  -12.4767   18.2308 C   0  0  0  0  0  0
  -28.0362  -12.2867   18.6684 C   0  0  0  0  0  0
  -27.6420  -13.2148   19.8466 C   0  0  2  0  0  0
  -28.6911  -13.1499   20.9773 C   0  0  0  0  0  0
  -25.2542  -13.8171   20.5714 C   0  0  0  0  0  0
  -24.1804  -13.0434   20.9219 C   0  0  0  0  0  0
  -24.6367  -11.6908   20.8772 C   0  0  0  0  0  0
  -23.9043  -10.4295   21.0431 C   0  0  0  0  0  0
  -24.3593   -9.4207   21.9213 C   0  0  0  0  0  0
  -23.6278   -8.2239   22.0776 C   0  0  0  0  0  0
  -22.4263   -8.0276   21.3554 C   0  0  0  0  0  0
  -21.9907   -9.0249   20.4652 C   0  0  0  0  0  0
  -22.7234  -10.2128   20.3072 C   0  0  0  0  0  0
  -21.6836   -6.0731   22.5280 C   0  0  0  0  0  0
  -21.4003   -6.5641   23.8215 C   0  0  0  0  0  0
  -21.3656   -5.6802   24.9186 C   0  0  0  0  0  0
  -21.6036   -4.3060   24.7236 C   0  0  0  0  0  0
  -21.8818   -3.8151   23.4359 C   0  0  0  0  0  0
  -21.9190   -4.6962   22.3412 C   0  0  0  0  0  0
  -22.7834  -13.5240   21.1864 C   0  0  0  0  0  0
  -22.1658   -4.2147   21.0988 F   0  0  0  0  0  0
  -21.5630   -3.4542   25.7753 F   0  0  0  0  0  0
  -29.9906  -13.5001   20.3882 N   0  0  0  0  0  0
  -26.2941  -12.9330   20.3295 N   0  0  0  0  0  0
  -25.9290  -11.6499   20.5794 N   0  0  0  0  0  0
  -22.0446  -12.8227   22.0388 N   0  0  0  0  0  0
  -25.4289  -15.1889   20.4116 N   0  0  0  0  0  0
  -31.8113  -14.8278   20.1758 O   0  0  0  0  0  0
  -21.6627   -6.8872   21.4246 O   0  0  0  0  0  0
  -22.3552  -14.5563   20.6731 O   0  0  0  0  0  0
  -24.6300  -31.8529   23.1959 C   0  0  0  0  0  0
  -25.9105  -32.4744   23.8324 C   0  0  1  0  0  0
  -27.2340  -27.2712   20.1341 C   0  0  0  0  0  0
  -25.5898  -33.8547   24.2230 N   0  0  0  0  0  0
  -23.4292  -30.4716   21.5399 C   0  0  2  0  0  0
  -24.8801  -28.9125   20.1184 C   0  0  0  0  0  0
  -22.7511  -29.4565   22.4902 C   0  0  0  0  0  0
  -18.0302  -28.1372   22.8493 C   0  0  0  0  0  0
  -24.1482  -36.7265   23.2635 C   0  0  0  0  0  0
  -25.9739  -30.7685   21.3741 C   0  0  0  0  0  0
  -26.0516  -29.3904   20.7201 C   0  0  0  0  0  0
  -27.2354  -28.5852   20.7076 C   0  0  0  0  0  0
  -26.0381  -26.8487   19.5158 C   0  0  0  0  0  0
  -24.8763  -27.6479   19.5079 C   0  0  0  0  0  0
  -23.6503  -29.7989   20.1605 C   0  0  0  0  0  0
  -25.4108  -36.3057   24.0310 C   0  0  1  0  0  0
  -20.5907  -28.3668   23.1258 C   0  0  2  0  0  0
  -20.6767  -26.9383   22.5394 C   0  0  0  0  0  0
  -19.5742  -26.6387   21.5190 C   0  0  0  0  0  0
  -18.1928  -26.7929   22.1614 C   0  0  0  0  0  0
  -19.1560  -28.8841   23.2868 C   0  0  0  0  0  0
  -18.9486  -30.1452   23.8865 C   0  0  0  0  0  0
  -17.6482  -30.6571   24.0569 C   0  0  0  0  0  0
  -25.9062  -34.9430   23.5078 C   0  0  0  0  0  0
  -16.5369  -29.9067   23.6340 C   0  0  0  0  0  0
  -16.7295  -28.6496   23.0341 C   0  0  0  0  0  0
  -26.4497  -31.6587   25.0717 C   0  0  0  0  0  0
  -25.3726  -31.3638   26.1425 C   0  0  0  0  0  0
  -27.0402  -30.3038   24.6178 C   0  0  0  0  0  0
  -27.6039  -32.4361   25.7496 C   0  0  0  0  0  0
  -27.5585  -37.1749   24.8435 C   0  0  0  0  0  0
  -21.4216  -29.3009   22.3650 N   0  0  0  0  0  0
  -26.4257  -37.3784   23.9445 N   0  0  0  0  0  0
  -24.6967  -31.0482   22.0940 N   0  0  0  0  0  0
  -23.4215  -28.8093   23.2995 O   0  0  0  0  0  0
  -28.3431  -26.3984   20.1297 O   0  0  0  0  0  0
  -26.5674  -34.8891   22.4670 O   0  0  0  0  0  0
  -23.5438  -32.1375   23.7231 O   0  0  0  0  0  0
  -28.2882  -22.2522   20.6825 C   0  0  0  0  0  0
  -30.3521  -22.0028   19.4907 C   0  0  0  0  0  0
  -29.1570  -21.1244   19.9763 C   0  0  1  0  0  0
  -28.6532  -23.6472   20.0149 C   0  0  1  0  0  0
  -28.2010  -25.0318   20.7377 C   0  0  0  0  0  0
  -30.2297  -17.2968   20.9095 C   0  0  0  0  0  0
  -29.4177  -18.5046   20.2016 C   0  0  0  0  0  0
  -29.8349  -15.8424   20.6765 N   0  0  0  0  0  0
  -29.5924  -19.9015   20.7650 N   0  0  0  0  0  0
  -30.1105  -23.4320   19.8652 N   0  3  0  0  0  0
  -31.4743  -12.5763   19.1398 H   0  0  0  0  0  0
  -30.4024  -11.4647   19.9471 H   0  0  0  0  0  0
  -29.7789  -11.6944   17.5224 H   0  0  0  0  0  0
  -29.6089  -13.4262   17.7044 H   0  0  0  0  0  0
  -27.9304  -11.2467   18.9832 H   0  0  0  0  0  0
  -27.3576  -12.4199   17.8256 H   0  0  0  0  0  0
  -27.6402  -14.2283   19.4470 H   0  0  0  0  0  0
  -28.7257  -12.1510   21.4144 H   0  0  0  0  0  0
  -28.4309  -13.8276   21.7917 H   0  0  0  0  0  0
  -25.2716   -9.5681   22.4820 H   0  0  0  0  0  0
  -23.9968   -7.4635   22.7508 H   0  0  0  0  0  0
  -21.0848   -8.8766   19.8961 H   0  0  0  0  0  0
  -22.3693  -10.9668   19.6191 H   0  0  0  0  0  0
  -21.1989   -7.6149   23.9720 H   0  0  0  0  0  0
  -21.1476   -6.0532   25.9088 H   0  0  0  0  0  0
  -22.0598   -2.7609   23.2867 H   0  0  0  0  0  0
  -22.4008  -11.9820   22.4704 H   0  0  0  0  0  0
  -21.1082  -13.1292   22.2620 H   0  0  0  0  0  0
  -24.6657  -15.8474   20.5266 H   0  0  0  0  0  0
  -26.2783  -15.6210   20.0706 H   0  0  0  0  0  0
  -26.7162  -32.5386   23.1054 H   0  0  0  0  0  0
  -24.9956  -33.9693   25.0309 H   0  0  0  0  0  0
  -22.7247  -31.2915   21.3864 H   0  0  0  0  0  0
  -23.3782  -35.9553   23.3216 H   0  0  0  0  0  0
  -24.3592  -36.9031   22.2074 H   0  0  0  0  0  0
  -23.7191  -37.6396   23.6752 H   0  0  0  0  0  0
  -26.1045  -31.5264   20.6005 H   0  0  0  0  0  0
  -26.8537  -30.8241   22.0040 H   0  0  0  0  0  0
  -28.1408  -28.9552   21.1678 H   0  0  0  0  0  0
  -25.9941  -25.8776   19.0416 H   0  0  0  0  0  0
  -23.9758  -27.2771   19.0389 H   0  0  0  0  0  0
  -23.7761  -30.5695   19.4005 H   0  0  0  0  0  0
  -22.7723  -29.2285   19.8558 H   0  0  0  0  0  0
  -25.1279  -36.1878   25.0790 H   0  0  0  0  0  0
  -20.9999  -28.3248   24.1379 H   0  0  0  0  0  0
  -20.5667  -26.2261   23.3587 H   0  0  0  0  0  0
  -21.6626  -26.7396   22.1182 H   0  0  0  0  0  0
  -19.6886  -25.6312   21.1195 H   0  0  0  0  0  0
  -19.6680  -27.3209   20.6727 H   0  0  0  0  0  0
  -17.4197  -26.6697   21.4014 H   0  0  0  0  0  0
  -18.0319  -26.0048   22.8988 H   0  0  0  0  0  0
  -19.7954  -30.7282   24.2210 H   0  0  0  0  0  0
  -17.5031  -31.6247   24.5178 H   0  0  0  0  0  0
  -15.5367  -30.2949   23.7689 H   0  0  0  0  0  0
  -15.8697  -28.0828   22.7025 H   0  0  0  0  0  0
  -24.5891  -30.7043   25.7679 H   0  0  0  0  0  0
  -24.8901  -32.2756   26.4943 H   0  0  0  0  0  0
  -25.8039  -30.8709   27.0152 H   0  0  0  0  0  0
  -26.3005  -29.6723   24.1243 H   0  0  0  0  0  0
  -27.4204  -29.7338   25.4668 H   0  0  0  0  0  0
  -27.8811  -30.4388   23.9371 H   0  0  0  0  0  0
  -27.2670  -33.3709   26.1983 H   0  0  0  0  0  0
  -28.3877  -32.6869   25.0332 H   0  0  0  0  0  0
  -28.0670  -31.8549   26.5483 H   0  0  0  0  0  0
  -28.2450  -38.0183   24.7700 H   0  0  0  0  0  0
  -28.1249  -36.2736   24.6031 H   0  0  0  0  0  0
  -27.2331  -37.1110   25.8829 H   0  0  0  0  0  0
  -20.9399  -29.8792   21.6906 H   0  0  0  0  0  0
  -26.0118  -38.2817   24.1604 H   0  0  0  0  0  0
  -28.5388  -22.2976   21.7462 H   0  0  0  0  0  0
  -27.2193  -22.0428   20.6231 H   0  0  0  0  0  0
  -30.4466  -21.9308   18.4058 H   0  0  0  0  0  0
  -31.3012  -21.6720   19.9144 H   0  0  0  0  0  0
  -28.6093  -20.7846   19.0937 H   0  0  0  0  0  0
  -28.2260  -23.6563   19.0106 H   0  0  0  0  0  0
  -28.7134  -25.0865   21.6979 H   0  0  0  0  0  0
  -27.1547  -24.8961   21.0091 H   0  0  0  0  0  0
  -30.1583  -17.4407   21.9882 H   0  0  0  0  0  0
  -31.2897  -17.4140   20.6802 H   0  0  0  0  0  0
  -28.3521  -18.2731   20.2239 H   0  0  0  0  0  0
  -29.6940  -18.5215   19.1455 H   0  0  0  0  0  0
  -28.8545  -15.6400   20.8038 H   0  0  0  0  0  0
  -29.2204  -19.9324   21.7117 H   0  0  0  0  0  0
  -30.5339  -24.0615   19.2000 H   0  0  0  0  0  0
  -30.5549  -23.5797   20.7578 H   0  0  0  0  0  0
  1 25  1  0  0  0
  1 30  2  0  0  0
  1 78  1  0  0  0
  2  3  1  0  0  0
  2 25  1  0  0  0
  2 81  1  0  0  0
  2 82  1  0  0  0
  3  4  1  0  0  0
  3 83  1  0  0  0
  3 84  1  0  0  0
  4  5  1  0  0  0
  4 85  1  0  0  0
  4 86  1  0  0  0
  5  6  1  0  0  0
  5 26  1  0  0  0
  5 87  1  0  0  0
  6 25  1  0  0  0
  6 88  1  0  0  0
  6 89  1  0  0  0
  7  8  2  0  0  0
  7 26  1  0  0  0
  7 29  1  0  0  0
  8  9  1  0  0  0
  8 22  1  0  0  0
  9 10  1  0  0  0
  9 27  2  0  0  0
 10 11  2  0  0  0
 10 15  1  0  0  0
 11 12  1  0  0  0
 11 90  1  0  0  0
 12 13  2  0  0  0
 12 91  1  0  0  0
 13 14  1  0  0  0
 13 31  1  0  0  0
 14 15  2  0  0  0
 14 92  1  0  0  0
 15 93  1  0  0  0
 16 17  2  0  0  0
 16 21  1  0  0  0
 16 31  1  0  0  0
 17 18  1  0  0  0
 17 94  1  0  0  0
 18 19  2  0  0  0
 18 95  1  0  0  0
 19 20  1  0  0  0
 19 24  1  0  0  0
 20 21  2  0  0  0
 20 96  1  0  0  0
 21 23  1  0  0  0
 22 28  1  0  0  0
 22 32  2  0  0  0
 26 27  1  0  0  0
 28 97  1  0  0  0
 28 98  1  0  0  0
 29 99  1  0  0  0
 29100  1  0  0  0
 33 34  1  0  0  0
 33 66  1  0  0  0
 33 70  2  0  0  0
 34 36  1  0  0  0
 34 59  1  0  0  0
 34101  1  0  0  0
 35 44  2  0  0  0
 35 45  1  0  0  0
 35 68  1  0  0  0
 36 56  1  0  0  0
 36102  1  0  0  0
 37 39  1  0  0  0
 37 47  1  0  0  0
 37 66  1  0  0  0
 37103  1  0  0  0
 38 43  2  0  0  0
 38 46  1  0  0  0
 38 47  1  0  0  0
 39 64  1  0  0  0
 39 67  2  0  0  0
 40 52  1  0  0  0
 40 53  2  0  0  0
 40 58  1  0  0  0
 41104  1  0  0  0
 41105  1  0  0  0
 41106  1  0  0  0
 41 48  1  0  0  0
 42 43  1  0  0  0
 42 66  1  0  0  0
 42107  1  0  0  0
 42108  1  0  0  0
 43 44  1  0  0  0
 44109  1  0  0  0
 45 46  2  0  0  0
 45110  1  0  0  0
 46111  1  0  0  0
 47112  1  0  0  0
 47113  1  0  0  0
 48 56  1  0  0  0
 48 65  1  0  0  0
 48114  1  0  0  0
 49 50  1  0  0  0
 49 53  1  0  0  0
 49 64  1  0  0  0
 49115  1  0  0  0
 50 51  1  0  0  0
 50116  1  0  0  0
 50117  1  0  0  0
 51 52  1  0  0  0
 51118  1  0  0  0
 51119  1  0  0  0
 52120  1  0  0  0
 52121  1  0  0  0
 53 54  1  0  0  0
 54 55  2  0  0  0
 54122  1  0  0  0
 55 57  1  0  0  0
 55123  1  0  0  0
 56 69  2  0  0  0
 57 58  2  0  0  0
 57124  1  0  0  0
 58125  1  0  0  0
 59 60  1  0  0  0
 59 61  1  0  0  0
 59 62  1  0  0  0
 60126  1  0  0  0
 60127  1  0  0  0
 60128  1  0  0  0
 61129  1  0  0  0
 61130  1  0  0  0
 61131  1  0  0  0
 62132  1  0  0  0
 62133  1  0  0  0
 62134  1  0  0  0
 63 65  1  0  0  0
 63135  1  0  0  0
 63136  1  0  0  0
 63137  1  0  0  0
 64138  1  0  0  0
 65139  1  0  0  0
 68 75  1  0  0  0
 71 73  1  0  0  0
 71 74  1  0  0  0
 71140  1  0  0  0
 71141  1  0  0  0
 72 73  1  0  0  0
 72 80  1  0  0  0
 72142  1  0  0  0
 72143  1  0  0  0
 73 79  1  0  0  0
 73144  1  0  0  0
 74 75  1  0  0  0
 74 80  1  0  0  0
 74145  1  0  0  0
 75146  1  0  0  0
 75147  1  0  0  0
 76 77  1  0  0  0
 76 78  1  0  0  0
 76148  1  0  0  0
 76149  1  0  0  0
 77 79  1  0  0  0
 77150  1  0  0  0
 77151  1  0  0  0
 78152  1  0  0  0
 79153  1  0  0  0
 80154  1  0  0  0
 80155  1  0  0  0
M  CHG  1  80   1
M  ISO  4   1 100  68 101  75 101  78 100
M  END
> <chiral flag>
0

> <version>
0

> <s_m_source_file>
/data/baiqing/PycharmProjects/Reinvent-master-3.2/result/LINK_invent/BTK/process_docking_weight1_custom_sum_contain_oxygen_bond_distance_aromatic_linkinvent_7_9_3/rearranged_h_0126.sdf

> <i_m_source_file_index>
43

> <r_mmod_Potential_Energy-OPLS-2005>
33.8241195678711

> <r_mmod_Stretch_Energy-OPLS-2005>
110.70955657959

> <r_mmod_Bend_Energy-OPLS-2005>
200.378616333008

> <r_mmod_Torsional_Energy-OPLS-2005>
287.179809570312

> <r_mmod_Improper_Torsional_Energy-OPLS-2005>
4.19190740585327

> <r_mmod_Van_der_Waal_Energy-OPLS-2005>
115.013648986816

> <r_mmod_Electrostatic_Energy-OPLS-2005>
-304.251251220703

> <r_mmod_Solvation_Energy-OPLS-2005>
-456.971771240234

> <b_mmod_Minimization_Converged-OPLS-2005>
0

> <r_mmod_RMS_Derivative-OPLS-2005>
2.75275230407715

$$$$
43
                    3D
 Structure written by MMmdl.
161169  0  0  1  0            999 V2000
  -30.7286  -14.4756   20.5386 C   0  0  0  0  0  0
  -30.4120  -12.2996   19.4342 C   0  0  0  0  0  0
  -29.4952  -12.5105   18.2121 C   0  0  0  0  0  0
  -28.0151  -12.3789   18.6225 C   0  0  0  0  0  0
  -27.6634  -13.2197   19.8779 C   0  0  2  0  0  0
  -28.7080  -13.0282   21.0041 C   0  0  0  0  0  0
  -25.2578  -13.8180   20.5702 C   0  0  0  0  0  0
  -24.1858  -13.0441   20.9180 C   0  0  0  0  0  0
  -24.6432  -11.6903   20.8735 C   0  0  0  0  0  0
  -23.9123  -10.4272   21.0397 C   0  0  0  0  0  0
  -24.3665   -9.4184   21.9177 C   0  0  0  0  0  0
  -23.6322   -8.2230   22.0748 C   0  0  0  0  0  0
  -22.4291   -8.0290   21.3553 C   0  0  0  0  0  0
  -21.9957   -9.0256   20.4636 C   0  0  0  0  0  0
  -22.7300  -10.2127   20.3041 C   0  0  0  0  0  0
  -21.6839   -6.0737   22.5279 C   0  0  0  0  0  0
  -21.4001   -6.5643   23.8225 C   0  0  0  0  0  0
  -21.3666   -5.6803   24.9188 C   0  0  0  0  0  0
  -21.6065   -4.3066   24.7230 C   0  0  0  0  0  0
  -21.8834   -3.8156   23.4349 C   0  0  0  0  0  0
  -21.9197   -4.6962   22.3401 C   0  0  0  0  0  0
  -22.7875  -13.5190   21.1889 C   0  0  0  0  0  0
  -22.1682   -4.2168   21.0965 F   0  0  0  0  0  0
  -21.5642   -3.4535   25.7729 F   0  0  0  0  0  0
  -30.0353  -13.3088   20.4390 N   0  0  0  0  0  0
  -26.3051  -12.9392   20.3409 N   0  0  0  0  0  0
  -25.9370  -11.6535   20.5795 N   0  0  0  0  0  0
  -22.0601  -12.8100   22.0432 N   0  0  0  0  0  0
  -25.4290  -15.1899   20.4121 N   0  0  0  0  0  0
  -31.8700  -14.5996   20.0916 O   0  0  0  0  0  0
  -21.6655   -6.8881   21.4234 O   0  0  0  0  0  0
  -22.3536  -14.5527   20.6794 O   0  0  0  0  0  0
  -24.6147  -31.8686   23.2135 C   0  0  0  0  0  0
  -25.9054  -32.4812   23.8398 C   0  0  1  0  0  0
  -27.2172  -27.4051   20.0975 C   0  0  0  0  0  0
  -25.5931  -33.8611   24.2319 N   0  0  0  0  0  0
  -23.4017  -30.4965   21.5535 C   0  0  2  0  0  0
  -24.8489  -28.9684   20.1051 C   0  0  0  0  0  0
  -22.7423  -29.4652   22.4979 C   0  0  0  0  0  0
  -18.0271  -28.1361   22.8506 C   0  0  0  0  0  0
  -24.1508  -36.7287   23.2641 C   0  0  0  0  0  0
  -25.9373  -30.8208   21.3776 C   0  0  0  0  0  0
  -26.0117  -29.4568   20.7175 C   0  0  0  0  0  0
  -27.2001  -28.6806   20.7192 C   0  0  0  0  0  0
  -26.0543  -26.9724   19.4243 C   0  0  0  0  0  0
  -24.8671  -27.7252   19.4539 C   0  0  0  0  0  0
  -23.6099  -29.8377   20.1652 C   0  0  0  0  0  0
  -25.4133  -36.3086   24.0330 C   0  0  1  0  0  0
  -20.5866  -28.3637   23.1324 C   0  0  2  0  0  0
  -20.6751  -26.9362   22.5430 C   0  0  0  0  0  0
  -19.5737  -26.6358   21.5224 C   0  0  0  0  0  0
  -18.1911  -26.7911   22.1627 C   0  0  0  0  0  0
  -19.1523  -28.8824   23.2909 C   0  0  0  0  0  0
  -18.9454  -30.1440   23.8903 C   0  0  0  0  0  0
  -17.6449  -30.6565   24.0561 C   0  0  0  0  0  0
  -25.9065  -34.9458   23.5109 C   0  0  0  0  0  0
  -16.5336  -29.9056   23.6326 C   0  0  0  0  0  0
  -16.7256  -28.6468   23.0355 C   0  0  0  0  0  0
  -26.4449  -31.6599   25.0734 C   0  0  0  0  0  0
  -25.3703  -31.3729   26.1482 C   0  0  0  0  0  0
  -27.0295  -30.3034   24.6153 C   0  0  0  0  0  0
  -27.5997  -32.4321   25.7525 C   0  0  0  0  0  0
  -27.5594  -37.1800   24.8453 C   0  0  0  0  0  0
  -21.4153  -29.3005   22.3724 N   0  0  0  0  0  0
  -26.4301  -37.3782   23.9403 N   0  0  0  0  0  0
  -24.6680  -31.0768   22.1046 N   0  0  0  0  0  0
  -23.4210  -28.8176   23.2995 O   0  0  0  0  0  0
  -28.3351  -26.5856   20.1194 O   0  0  0  0  0  0
  -26.5620  -34.8908   22.4668 O   0  0  0  0  0  0
  -23.5341  -32.1448   23.7534 O   0  0  0  0  0  0
  -28.3160  -19.1071   22.8860 C   0  0  0  0  0  0
  -28.8996  -17.9575   22.3251 C   0  0  0  0  0  0
  -28.6863  -20.3725   22.3976 C   0  0  0  0  0  0
  -29.8425  -18.1126   21.2938 C   0  0  0  0  0  0
  -29.6158  -20.4576   21.3372 C   0  0  0  0  0  0
  -28.5978  -23.9058   18.7153 C   0  0  0  0  0  0
  -26.8633  -24.8564   21.3404 C   0  0  0  0  0  0
  -30.5928  -16.9172   20.7006 C   0  0  0  0  0  0
  -30.0354  -21.8191   20.7359 C   0  0  0  0  0  0
  -29.0655  -24.1570   20.1699 C   0  0  1  0  0  0
  -28.2691  -25.3264   20.8710 C   0  0  1  0  0  0
  -30.1777  -19.3374   20.8072 N   0  0  0  0  0  0
  -30.0601  -15.5652   20.9570 N   0  0  0  0  0  0
  -29.0209  -22.8845   20.9745 N   0  3  0  0  0  0
  -31.4594  -12.3664   19.1357 H   0  0  0  0  0  0
  -30.2860  -11.2961   19.8445 H   0  0  0  0  0  0
  -29.7294  -11.7885   17.4285 H   0  0  0  0  0  0
  -29.6726  -13.4971   17.7808 H   0  0  0  0  0  0
  -27.8218  -11.3252   18.8176 H   0  0  0  0  0  0
  -27.3664  -12.6602   17.7929 H   0  0  0  0  0  0
  -27.7017  -14.2661   19.5714 H   0  0  0  0  0  0
  -28.6789  -12.0050   21.3857 H   0  0  0  0  0  0
  -28.4852  -13.6685   21.8591 H   0  0  0  0  0  0
  -25.2827   -9.5644   22.4721 H   0  0  0  0  0  0
  -24.0051   -7.4608   22.7436 H   0  0  0  0  0  0
  -21.0907   -8.8775   19.8904 H   0  0  0  0  0  0
  -22.3782  -10.9671   19.6140 H   0  0  0  0  0  0
  -21.1984   -7.6161   23.9713 H   0  0  0  0  0  0
  -21.1482   -6.0542   25.9099 H   0  0  0  0  0  0
  -22.0601   -2.7614   23.2832 H   0  0  0  0  0  0
  -22.4308  -11.9720   22.4659 H   0  0  0  0  0  0
  -21.1224  -13.1021   22.2748 H   0  0  0  0  0  0
  -24.6610  -15.8452   20.5202 H   0  0  0  0  0  0
  -26.2833  -15.6319   20.0992 H   0  0  0  0  0  0
  -26.7139  -32.5521   23.1175 H   0  0  0  0  0  0
  -25.0080  -33.9789   25.0461 H   0  0  0  0  0  0
  -22.6899  -31.3143   21.4252 H   0  0  0  0  0  0
  -23.3777  -35.9609   23.3267 H   0  0  0  0  0  0
  -24.3602  -36.8938   22.2060 H   0  0  0  0  0  0
  -23.7245  -37.6474   23.6678 H   0  0  0  0  0  0
  -26.0712  -31.5945   20.6198 H   0  0  0  0  0  0
  -26.8179  -30.8596   22.0061 H   0  0  0  0  0  0
  -28.0882  -29.0471   21.2161 H   0  0  0  0  0  0
  -26.0568  -26.0344   18.8888 H   0  0  0  0  0  0
  -23.9802  -27.3547   18.9567 H   0  0  0  0  0  0
  -23.7123  -30.6212   19.4127 H   0  0  0  0  0  0
  -22.7306  -29.2631   19.8695 H   0  0  0  0  0  0
  -25.1311  -36.1928   25.0820 H   0  0  0  0  0  0
  -20.9984  -28.3187   24.1437 H   0  0  0  0  0  0
  -20.5616  -26.2243   23.3611 H   0  0  0  0  0  0
  -21.6615  -26.7365   22.1236 H   0  0  0  0  0  0
  -19.6870  -25.6275   21.1218 H   0  0  0  0  0  0
  -19.6662  -27.3198   20.6774 H   0  0  0  0  0  0
  -17.4176  -26.6688   21.4022 H   0  0  0  0  0  0
  -18.0276  -26.0036   22.9002 H   0  0  0  0  0  0
  -19.7932  -30.7263   24.2264 H   0  0  0  0  0  0
  -17.4992  -31.6251   24.5147 H   0  0  0  0  0  0
  -15.5323  -30.2950   23.7654 H   0  0  0  0  0  0
  -15.8663  -28.0788   22.7051 H   0  0  0  0  0  0
  -24.5840  -30.7133   25.7805 H   0  0  0  0  0  0
  -24.8964  -32.2920   26.4949 H   0  0  0  0  0  0
  -25.8047  -30.8856   27.0231 H   0  0  0  0  0  0
  -26.2895  -29.6832   24.1101 H   0  0  0  0  0  0
  -27.3936  -29.7226   25.4640 H   0  0  0  0  0  0
  -27.8776  -30.4336   23.9423 H   0  0  0  0  0  0
  -27.2558  -33.3558   26.2205 H   0  0  0  0  0  0
  -28.3774  -32.7008   25.0355 H   0  0  0  0  0  0
  -28.0726  -31.8408   26.5387 H   0  0  0  0  0  0
  -28.2568  -38.0144   24.7544 H   0  0  0  0  0  0
  -28.1133  -36.2665   24.6215 H   0  0  0  0  0  0
  -27.2311  -37.1370   25.8857 H   0  0  0  0  0  0
  -20.9292  -29.8779   21.7017 H   0  0  0  0  0  0
  -26.0167  -38.2847   24.1427 H   0  0  0  0  0  0
  -27.6055  -19.0184   23.6947 H   0  0  0  0  0  0
  -28.6373  -16.9852   22.7141 H   0  0  0  0  0  0
  -28.2480  -21.2447   22.8606 H   0  0  0  0  0  0
  -28.5811  -24.8274   18.1316 H   0  0  0  0  0  0
  -27.5945  -23.4784   18.6695 H   0  0  0  0  0  0
  -29.2651  -23.2234   18.1880 H   0  0  0  0  0  0
  -26.9248  -24.0293   22.0467 H   0  0  0  0  0  0
  -26.2401  -24.5126   20.5157 H   0  0  0  0  0  0
  -26.3292  -25.6439   21.8691 H   0  0  0  0  0  0
  -31.6176  -16.9698   21.0714 H   0  0  0  0  0  0
  -30.6491  -17.0546   19.6202 H   0  0  0  0  0  0
  -30.2133  -21.6881   19.6702 H   0  0  0  0  0  0
  -30.9842  -22.1247   21.1774 H   0  0  0  0  0  0
  -30.1075  -24.4785   20.1305 H   0  0  0  0  0  0
  -28.8121  -25.5571   21.7892 H   0  0  0  0  0  0
  -29.1158  -15.4796   21.3001 H   0  0  0  0  0  0
  -29.1249  -23.1159   21.9495 H   0  0  0  0  0  0
  -28.1234  -22.4396   20.8639 H   0  0  0  0  0  0
  1 25  1  0  0  0
  1 30  2  0  0  0
  1 83  1  0  0  0
  2  3  1  0  0  0
  2 25  1  0  0  0
  2 85  1  0  0  0
  2 86  1  0  0  0
  3  4  1  0  0  0
  3 87  1  0  0  0
  3 88  1  0  0  0
  4  5  1  0  0  0
  4 89  1  0  0  0
  4 90  1  0  0  0
  5  6  1  0  0  0
  5 26  1  0  0  0
  5 91  1  0  0  0
  6 25  1  0  0  0
  6 92  1  0  0  0
  6 93  1  0  0  0
  7  8  2  0  0  0
  7 26  1  0  0  0
  7 29  1  0  0  0
  8  9  1  0  0  0
  8 22  1  0  0  0
  9 10  1  0  0  0
  9 27  2  0  0  0
 10 11  2  0  0  0
 10 15  1  0  0  0
 11 12  1  0  0  0
 11 94  1  0  0  0
 12 13  2  0  0  0
 12 95  1  0  0  0
 13 14  1  0  0  0
 13 31  1  0  0  0
 14 15  2  0  0  0
 14 96  1  0  0  0
 15 97  1  0  0  0
 16 17  2  0  0  0
 16 21  1  0  0  0
 16 31  1  0  0  0
 17 18  1  0  0  0
 17 98  1  0  0  0
 18 19  2  0  0  0
 18 99  1  0  0  0
 19 20  1  0  0  0
 19 24  1  0  0  0
 20 21  2  0  0  0
 20100  1  0  0  0
 21 23  1  0  0  0
 22 28  1  0  0  0
 22 32  2  0  0  0
 26 27  1  0  0  0
 28101  1  0  0  0
 28102  1  0  0  0
 29103  1  0  0  0
 29104  1  0  0  0
 33 34  1  0  0  0
 33 66  1  0  0  0
 33 70  2  0  0  0
 34 36  1  0  0  0
 34 59  1  0  0  0
 34105  1  0  0  0
 35 44  2  0  0  0
 35 45  1  0  0  0
 35 68  1  0  0  0
 36 56  1  0  0  0
 36106  1  0  0  0
 37 39  1  0  0  0
 37 47  1  0  0  0
 37 66  1  0  0  0
 37107  1  0  0  0
 38 43  2  0  0  0
 38 46  1  0  0  0
 38 47  1  0  0  0
 39 64  1  0  0  0
 39 67  2  0  0  0
 40 52  1  0  0  0
 40 53  2  0  0  0
 40 58  1  0  0  0
 41108  1  0  0  0
 41109  1  0  0  0
 41110  1  0  0  0
 41 48  1  0  0  0
 42 43  1  0  0  0
 42 66  1  0  0  0
 42111  1  0  0  0
 42112  1  0  0  0
 43 44  1  0  0  0
 44113  1  0  0  0
 45 46  2  0  0  0
 45114  1  0  0  0
 46115  1  0  0  0
 47116  1  0  0  0
 47117  1  0  0  0
 48 56  1  0  0  0
 48 65  1  0  0  0
 48118  1  0  0  0
 49 50  1  0  0  0
 49 53  1  0  0  0
 49 64  1  0  0  0
 49119  1  0  0  0
 50 51  1  0  0  0
 50120  1  0  0  0
 50121  1  0  0  0
 51 52  1  0  0  0
 51122  1  0  0  0
 51123  1  0  0  0
 52124  1  0  0  0
 52125  1  0  0  0
 53 54  1  0  0  0
 54 55  2  0  0  0
 54126  1  0  0  0
 55 57  1  0  0  0
 55127  1  0  0  0
 56 69  2  0  0  0
 57 58  2  0  0  0
 57128  1  0  0  0
 58129  1  0  0  0
 59 60  1  0  0  0
 59 61  1  0  0  0
 59 62  1  0  0  0
 60130  1  0  0  0
 60131  1  0  0  0
 60132  1  0  0  0
 61133  1  0  0  0
 61134  1  0  0  0
 61135  1  0  0  0
 62136  1  0  0  0
 62137  1  0  0  0
 62138  1  0  0  0
 63 65  1  0  0  0
 63139  1  0  0  0
 63140  1  0  0  0
 63141  1  0  0  0
 64142  1  0  0  0
 65143  1  0  0  0
 68 81  1  0  0  0
 71 72  2  0  0  0
 71 73  1  0  0  0
 71144  1  0  0  0
 72 74  1  0  0  0
 72145  1  0  0  0
 73 75  2  0  0  0
 73146  1  0  0  0
 74 78  1  0  0  0
 74 82  2  0  0  0
 75 79  1  0  0  0
 75 82  1  0  0  0
 76147  1  0  0  0
 76148  1  0  0  0
 76149  1  0  0  0
 76 80  1  0  0  0
 77150  1  0  0  0
 77151  1  0  0  0
 77152  1  0  0  0
 77 81  1  0  0  0
 78 83  1  0  0  0
 78153  1  0  0  0
 78154  1  0  0  0
 79 84  1  0  0  0
 79155  1  0  0  0
 79156  1  0  0  0
 80 81  1  0  0  0
 80 84  1  0  0  0
 80157  1  0  0  0
 81158  1  0  0  0
 83159  1  0  0  0
 84160  1  0  0  0
 84161  1  0  0  0
M  CHG  1  84   1
M  ISO  4   1 100  68 101  81 101  83 100
M  END
> <chiral flag>
0

> <version>
0

> <s_m_source_file>
/data/baiqing/PycharmProjects/Reinvent-master-3.2/result/LINK_invent/BTK/process_docking_weight1_custom_sum_contain_oxygen_bond_distance_aromatic_linkinvent_7_9_3/rearranged_h_0126.sdf

> <i_m_source_file_index>
44

> <r_mmod_Potential_Energy-OPLS-2005>
-473.470001220703

> <r_mmod_Stretch_Energy-OPLS-2005>
47.7458152770996

> <r_mmod_Bend_Energy-OPLS-2005>
112.454895019531

> <r_mmod_Torsional_Energy-OPLS-2005>
238.312789916992

> <r_mmod_Improper_Torsional_Energy-OPLS-2005>
4.78786993026733

> <r_mmod_Van_der_Waal_Energy-OPLS-2005>
161.603988647461

> <r_mmod_Electrostatic_Energy-OPLS-2005>
-599.916564941406

> <r_mmod_Solvation_Energy-OPLS-2005>
-458.638122558594

> <b_mmod_Minimization_Converged-OPLS-2005>
0

> <r_mmod_RMS_Derivative-OPLS-2005>
3.72562956809998

$$$$
44
                    3D
 Structure written by MMmdl.
150158  0  0  1  0            999 V2000
  -30.4792  -15.2075   20.3780 C   0  0  0  0  0  0
  -30.4371  -12.7672   19.5249 C   0  0  0  0  0  0
  -29.5328  -12.5665   18.2845 C   0  0  0  0  0  0
  -28.0793  -12.3024   18.7116 C   0  0  0  0  0  0
  -27.6154  -13.2726   19.8265 C   0  0  2  0  0  0
  -28.6502  -13.4355   20.9604 C   0  0  0  0  0  0
  -25.2406  -13.8247   20.5756 C   0  0  0  0  0  0
  -24.1753  -13.0435   20.9257 C   0  0  0  0  0  0
  -24.6401  -11.6928   20.8752 C   0  0  0  0  0  0
  -23.9090  -10.4290   21.0396 C   0  0  0  0  0  0
  -24.3636   -9.4205   21.9176 C   0  0  0  0  0  0
  -23.6315   -8.2239   22.0740 C   0  0  0  0  0  0
  -22.4297   -8.0279   21.3533 C   0  0  0  0  0  0
  -21.9930   -9.0248   20.4637 C   0  0  0  0  0  0
  -22.7258  -10.2131   20.3050 C   0  0  0  0  0  0
  -21.6861   -6.0742   22.5281 C   0  0  0  0  0  0
  -21.4014   -6.5640   23.8212 C   0  0  0  0  0  0
  -21.3660   -5.6793   24.9173 C   0  0  0  0  0  0
  -21.6051   -4.3058   24.7227 C   0  0  0  0  0  0
  -21.8819   -3.8149   23.4346 C   0  0  0  0  0  0
  -21.9198   -4.6968   22.3403 C   0  0  0  0  0  0
  -22.7771  -13.5181   21.1918 C   0  0  0  0  0  0
  -22.1669   -4.2148   21.0983 F   0  0  0  0  0  0
  -21.5629   -3.4544   25.7739 F   0  0  0  0  0  0
  -29.8930  -13.9166   20.3353 N   0  0  0  0  0  0
  -26.2840  -12.9518   20.3240 N   0  0  0  0  0  0
  -25.9343  -11.6625   20.5719 N   0  0  0  0  0  0
  -22.0453  -12.8131   22.0465 N   0  0  0  0  0  0
  -25.4033  -15.1984   20.4195 N   0  0  0  0  0  0
  -31.6979  -15.1990   20.1607 O   0  0  0  0  0  0
  -21.6651   -6.8886   21.4243 O   0  0  0  0  0  0
  -22.3431  -14.5488   20.6781 O   0  0  0  0  0  0
  -24.6614  -31.8255   23.1748 C   0  0  0  0  0  0
  -25.9316  -32.4600   23.8185 C   0  0  1  0  0  0
  -27.2217  -26.9612   20.1729 C   0  0  0  0  0  0
  -25.6005  -33.8413   24.2113 N   0  0  0  0  0  0
  -23.4739  -30.4397   21.5212 C   0  0  2  0  0  0
  -24.9282  -28.8364   20.1085 C   0  0  0  0  0  0
  -22.7649  -29.4454   22.4776 C   0  0  0  0  0  0
  -18.0310  -28.1426   22.8471 C   0  0  0  0  0  0
  -24.1474  -36.7179   23.2648 C   0  0  0  0  0  0
  -26.0410  -30.6439   21.3986 C   0  0  0  0  0  0
  -26.1106  -29.2365   20.7432 C   0  0  0  0  0  0
  -27.2519  -28.3188   20.7562 C   0  0  0  0  0  0
  -26.0129  -26.7137   19.4812 C   0  0  0  0  0  0
  -24.9035  -27.5943   19.4564 C   0  0  0  0  0  0
  -23.7123  -29.7591   20.1451 C   0  0  0  0  0  0
  -25.4116  -36.2959   24.0305 C   0  0  1  0  0  0
  -20.5936  -28.3754   23.1190 C   0  0  2  0  0  0
  -20.6777  -26.9439   22.5398 C   0  0  0  0  0  0
  -19.5749  -26.6410   21.5202 C   0  0  0  0  0  0
  -18.1937  -26.7967   22.1622 C   0  0  0  0  0  0
  -19.1575  -28.8911   23.2819 C   0  0  0  0  0  0
  -18.9491  -30.1498   23.8858 C   0  0  0  0  0  0
  -17.6491  -30.6614   24.0567 C   0  0  0  0  0  0
  -25.9088  -34.9344   23.5017 C   0  0  0  0  0  0
  -16.5377  -29.9104   23.6357 C   0  0  0  0  0  0
  -16.7296  -28.6520   23.0381 C   0  0  0  0  0  0
  -26.4591  -31.6532   25.0691 C   0  0  0  0  0  0
  -25.3751  -31.3768   26.1373 C   0  0  0  0  0  0
  -27.0487  -30.2911   24.6382 C   0  0  0  0  0  0
  -27.6092  -32.4319   25.7495 C   0  0  0  0  0  0
  -27.5543  -37.1749   24.8474 C   0  0  0  0  0  0
  -21.4319  -29.3048   22.3543 N   0  0  0  0  0  0
  -26.4255  -37.3700   23.9414 N   0  0  0  0  0  0
  -24.7464  -30.9961   22.0851 N   0  0  0  0  0  0
  -23.4211  -28.8017   23.3009 O   0  0  0  0  0  0
  -28.2113  -25.8536   20.2676 O   0  0  0  0  0  0
  -26.5668  -34.8883   22.4597 O   0  0  0  0  0  0
  -23.5694  -32.1206   23.6866 O   0  0  0  0  0  0
  -28.0036  -21.6656   21.0496 C   0  0  0  0  0  0
  -28.4036  -20.2389   21.0997 C   0  0  0  0  0  0
  -28.5919  -22.7250   20.2360 C   0  0  0  0  0  0
  -29.4565  -19.6448   20.3099 C   0  0  0  0  0  0
  -29.6379  -22.0464   19.4831 C   0  0  0  0  0  0
  -31.3400  -22.2435   17.7731 C   0  0  0  0  0  0
  -27.8666  -24.2883   19.9653 C   0  0  0  0  0  0
  -30.1959  -18.0677   20.3722 C   0  0  0  0  0  0
  -30.0254  -20.6695   19.5439 N   0  0  0  0  0  0
  -29.7484  -16.4846   20.4599 N   0  0  0  0  0  0
  -30.3105  -22.8313   18.5683 O   0  0  0  0  0  0
  -31.4608  -12.9528   19.1988 H   0  0  0  0  0  0
  -30.4807  -11.8557   20.1238 H   0  0  0  0  0  0
  -29.9013  -11.7426   17.6721 H   0  0  0  0  0  0
  -29.5726  -13.4586   17.6576 H   0  0  0  0  0  0
  -28.0256  -11.2759   19.0752 H   0  0  0  0  0  0
  -27.4106  -12.3581   17.8515 H   0  0  0  0  0  0
  -27.5358  -14.2431   19.3359 H   0  0  0  0  0  0
  -28.8011  -12.5034   21.5064 H   0  0  0  0  0  0
  -28.3003  -14.1685   21.6886 H   0  0  0  0  0  0
  -25.2783   -9.5686   22.4744 H   0  0  0  0  0  0
  -24.0037   -7.4622   22.7439 H   0  0  0  0  0  0
  -21.0872   -8.8771   19.8924 H   0  0  0  0  0  0
  -22.3722  -10.9672   19.6155 H   0  0  0  0  0  0
  -21.2001   -7.6145   23.9713 H   0  0  0  0  0  0
  -21.1484   -6.0524   25.9076 H   0  0  0  0  0  0
  -22.0597   -2.7613   23.2850 H   0  0  0  0  0  0
  -22.4120  -11.9800   22.4825 H   0  0  0  0  0  0
  -21.1048  -13.1080   22.2680 H   0  0  0  0  0  0
  -24.6316  -15.8475   20.5318 H   0  0  0  0  0  0
  -26.2481  -15.6421   20.0834 H   0  0  0  0  0  0
  -26.7379  -32.5164   23.0894 H   0  0  0  0  0  0
  -25.0178  -33.9482   25.0282 H   0  0  0  0  0  0
  -22.7867  -31.2704   21.3543 H   0  0  0  0  0  0
  -23.3744  -35.9505   23.3309 H   0  0  0  0  0  0
  -24.3549  -36.8816   22.2064 H   0  0  0  0  0  0
  -23.7233  -37.6374   23.6682 H   0  0  0  0  0  0
  -26.2178  -31.3868   20.6197 H   0  0  0  0  0  0
  -26.9026  -30.7018   22.0513 H   0  0  0  0  0  0
  -28.1411  -28.6197   21.2920 H   0  0  0  0  0  0
  -25.8827  -25.7705   18.9729 H   0  0  0  0  0  0
  -24.0075  -27.2853   18.9358 H   0  0  0  0  0  0
  -23.8645  -30.5286   19.3872 H   0  0  0  0  0  0
  -22.8233  -29.2107   19.8293 H   0  0  0  0  0  0
  -25.1325  -36.1747   25.0795 H   0  0  0  0  0  0
  -21.0029  -28.3356   24.1308 H   0  0  0  0  0  0
  -20.5638  -26.2378   23.3638 H   0  0  0  0  0  0
  -21.6646  -26.7411   22.1217 H   0  0  0  0  0  0
  -19.6903  -25.6316   21.1243 H   0  0  0  0  0  0
  -19.6688  -27.3200   20.6711 H   0  0  0  0  0  0
  -17.4207  -26.6708   21.4026 H   0  0  0  0  0  0
  -18.0326  -26.0125   22.9033 H   0  0  0  0  0  0
  -19.7969  -30.7316   24.2218 H   0  0  0  0  0  0
  -17.5049  -31.6288   24.5180 H   0  0  0  0  0  0
  -15.5374  -30.3005   23.7706 H   0  0  0  0  0  0
  -15.8691  -28.0822   22.7147 H   0  0  0  0  0  0
  -24.5957  -30.7076   25.7710 H   0  0  0  0  0  0
  -24.8930  -32.2967   26.4677 H   0  0  0  0  0  0
  -25.8048  -30.9050   27.0223 H   0  0  0  0  0  0
  -26.3163  -29.6604   24.1341 H   0  0  0  0  0  0
  -27.3996  -29.7249   25.5017 H   0  0  0  0  0  0
  -27.9105  -30.4111   23.9821 H   0  0  0  0  0  0
  -27.2678  -33.3672   26.1936 H   0  0  0  0  0  0
  -28.3997  -32.6786   25.0393 H   0  0  0  0  0  0
  -28.0648  -31.8534   26.5539 H   0  0  0  0  0  0
  -28.2580  -38.0021   24.7499 H   0  0  0  0  0  0
  -28.1025  -36.2562   24.6343 H   0  0  0  0  0  0
  -27.2266  -37.1451   25.8879 H   0  0  0  0  0  0
  -20.9566  -29.8758   21.6697 H   0  0  0  0  0  0
  -26.0095  -38.2756   24.1446 H   0  0  0  0  0  0
  -27.1591  -21.9425   21.6642 H   0  0  0  0  0  0
  -27.8728  -19.5916   21.7854 H   0  0  0  0  0  0
  -31.7351  -22.9901   17.0834 H   0  0  0  0  0  0
  -30.9664  -21.4153   17.1694 H   0  0  0  0  0  0
  -32.1717  -21.8888   18.3838 H   0  0  0  0  0  0
  -26.8703  -24.1596   20.3893 H   0  0  0  0  0  0
  -27.6979  -24.2800   18.8886 H   0  0  0  0  0  0
  -30.8846  -18.1678   21.2113 H   0  0  0  0  0  0
  -30.8580  -18.0777   19.5062 H   0  0  0  0  0  0
  -28.7560  -16.3666   20.5918 H   0  0  0  0  0  0
  1 25  1  0  0  0
  1 30  2  0  0  0
  1 80  1  0  0  0
  2  3  1  0  0  0
  2 25  1  0  0  0
  2 82  1  0  0  0
  2 83  1  0  0  0
  3  4  1  0  0  0
  3 84  1  0  0  0
  3 85  1  0  0  0
  4  5  1  0  0  0
  4 86  1  0  0  0
  4 87  1  0  0  0
  5  6  1  0  0  0
  5 26  1  0  0  0
  5 88  1  0  0  0
  6 25  1  0  0  0
  6 89  1  0  0  0
  6 90  1  0  0  0
  7  8  2  0  0  0
  7 26  1  0  0  0
  7 29  1  0  0  0
  8  9  1  0  0  0
  8 22  1  0  0  0
  9 10  1  0  0  0
  9 27  2  0  0  0
 10 11  2  0  0  0
 10 15  1  0  0  0
 11 12  1  0  0  0
 11 91  1  0  0  0
 12 13  2  0  0  0
 12 92  1  0  0  0
 13 14  1  0  0  0
 13 31  1  0  0  0
 14 15  2  0  0  0
 14 93  1  0  0  0
 15 94  1  0  0  0
 16 17  2  0  0  0
 16 21  1  0  0  0
 16 31  1  0  0  0
 17 18  1  0  0  0
 17 95  1  0  0  0
 18 19  2  0  0  0
 18 96  1  0  0  0
 19 20  1  0  0  0
 19 24  1  0  0  0
 20 21  2  0  0  0
 20 97  1  0  0  0
 21 23  1  0  0  0
 22 28  1  0  0  0
 22 32  2  0  0  0
 26 27  1  0  0  0
 28 98  1  0  0  0
 28 99  1  0  0  0
 29100  1  0  0  0
 29101  1  0  0  0
 33 34  1  0  0  0
 33 66  1  0  0  0
 33 70  2  0  0  0
 34 36  1  0  0  0
 34 59  1  0  0  0
 34102  1  0  0  0
 35 44  2  0  0  0
 35 45  1  0  0  0
 35 68  1  0  0  0
 36 56  1  0  0  0
 36103  1  0  0  0
 37 39  1  0  0  0
 37 47  1  0  0  0
 37 66  1  0  0  0
 37104  1  0  0  0
 38 43  2  0  0  0
 38 46  1  0  0  0
 38 47  1  0  0  0
 39 64  1  0  0  0
 39 67  2  0  0  0
 40 52  1  0  0  0
 40 53  2  0  0  0
 40 58  1  0  0  0
 41105  1  0  0  0
 41106  1  0  0  0
 41107  1  0  0  0
 41 48  1  0  0  0
 42 43  1  0  0  0
 42 66  1  0  0  0
 42108  1  0  0  0
 42109  1  0  0  0
 43 44  1  0  0  0
 44110  1  0  0  0
 45 46  2  0  0  0
 45111  1  0  0  0
 46112  1  0  0  0
 47113  1  0  0  0
 47114  1  0  0  0
 48 56  1  0  0  0
 48 65  1  0  0  0
 48115  1  0  0  0
 49 50  1  0  0  0
 49 53  1  0  0  0
 49 64  1  0  0  0
 49116  1  0  0  0
 50 51  1  0  0  0
 50117  1  0  0  0
 50118  1  0  0  0
 51 52  1  0  0  0
 51119  1  0  0  0
 51120  1  0  0  0
 52121  1  0  0  0
 52122  1  0  0  0
 53 54  1  0  0  0
 54 55  2  0  0  0
 54123  1  0  0  0
 55 57  1  0  0  0
 55124  1  0  0  0
 56 69  2  0  0  0
 57 58  2  0  0  0
 57125  1  0  0  0
 58126  1  0  0  0
 59 60  1  0  0  0
 59 61  1  0  0  0
 59 62  1  0  0  0
 60127  1  0  0  0
 60128  1  0  0  0
 60129  1  0  0  0
 61130  1  0  0  0
 61131  1  0  0  0
 61132  1  0  0  0
 62133  1  0  0  0
 62134  1  0  0  0
 62135  1  0  0  0
 63 65  1  0  0  0
 63136  1  0  0  0
 63137  1  0  0  0
 63138  1  0  0  0
 64139  1  0  0  0
 65140  1  0  0  0
 68 77  1  0  0  0
 71 72  2  0  0  0
 71 73  1  0  0  0
 71141  1  0  0  0
 72 74  1  0  0  0
 72142  1  0  0  0
 73 75  2  0  0  0
 73 77  1  0  0  0
 74 78  1  0  0  0
 74 79  2  0  0  0
 75 79  1  0  0  0
 75 81  1  0  0  0
 76 81  1  0  0  0
 76143  1  0  0  0
 76144  1  0  0  0
 76145  1  0  0  0
 77146  1  0  0  0
 77147  1  0  0  0
 78 80  1  0  0  0
 78148  1  0  0  0
 78149  1  0  0  0
 80150  1  0  0  0
M  ISO  4   1 100  68 101  77 101  80 100
M  END
> <chiral flag>
0

> <version>
0

> <s_m_source_file>
/data/baiqing/PycharmProjects/Reinvent-master-3.2/result/LINK_invent/BTK/process_docking_weight1_custom_sum_contain_oxygen_bond_distance_aromatic_linkinvent_7_9_3/rearranged_h_0126.sdf

> <i_m_source_file_index>
45

> <r_mmod_Potential_Energy-OPLS-2005>
817.025024414062

> <r_mmod_Stretch_Energy-OPLS-2005>
465.072204589844

> <r_mmod_Bend_Energy-OPLS-2005>
434.544403076172

> <r_mmod_Torsional_Energy-OPLS-2005>
206.909484863281

> <r_mmod_Improper_Torsional_Energy-OPLS-2005>
8.24695777893066

> <r_mmod_Van_der_Waal_Energy-OPLS-2005>
140.188171386719

> <r_mmod_Electrostatic_Energy-OPLS-2005>
-615.534790039062

> <r_mmod_Solvation_Energy-OPLS-2005>
-229.904937744141

> <b_mmod_Minimization_Converged-OPLS-2005>
0

> <r_mmod_RMS_Derivative-OPLS-2005>
1.94346499443054

$$$$
45
                    3D
 Structure written by MMmdl.
163172  0  0  1  0            999 V2000
  -30.6760  -14.5437   20.5058 C   0  0  0  0  0  0
  -30.4228  -12.3309   19.4433 C   0  0  0  0  0  0
  -29.5023  -12.4965   18.2152 C   0  0  0  0  0  0
  -28.0223  -12.3553   18.6222 C   0  0  0  0  0  0
  -27.6562  -13.2123   19.8639 C   0  0  2  0  0  0
  -28.6988  -13.0488   20.9938 C   0  0  0  0  0  0
  -25.2583  -13.8168   20.5676 C   0  0  0  0  0  0
  -24.1845  -13.0438   20.9175 C   0  0  0  0  0  0
  -24.6402  -11.6902   20.8716 C   0  0  0  0  0  0
  -23.9064  -10.4293   21.0376 C   0  0  0  0  0  0
  -24.3615   -9.4220   21.9166 C   0  0  0  0  0  0
  -23.6298   -8.2250   22.0745 C   0  0  0  0  0  0
  -22.4284   -8.0279   21.3539 C   0  0  0  0  0  0
  -21.9910   -9.0251   20.4638 C   0  0  0  0  0  0
  -22.7230  -10.2135   20.3037 C   0  0  0  0  0  0
  -21.6863   -6.0734   22.5274 C   0  0  0  0  0  0
  -21.4022   -6.5640   23.8206 C   0  0  0  0  0  0
  -21.3660   -5.6792   24.9166 C   0  0  0  0  0  0
  -21.6040   -4.3053   24.7214 C   0  0  0  0  0  0
  -21.8825   -3.8145   23.4342 C   0  0  0  0  0  0
  -21.9202   -4.6960   22.3395 C   0  0  0  0  0  0
  -22.7871  -13.5238   21.1834 C   0  0  0  0  0  0
  -22.1669   -4.2149   21.0972 F   0  0  0  0  0  0
  -21.5623   -3.4533   25.7728 F   0  0  0  0  0  0
  -30.0244  -13.3482   20.4322 N   0  0  0  0  0  0
  -26.3003  -12.9339   20.3303 N   0  0  0  0  0  0
  -25.9327  -11.6500   20.5731 N   0  0  0  0  0  0
  -22.0517  -12.8234   22.0394 N   0  0  0  0  0  0
  -25.4296  -15.1895   20.4100 N   0  0  0  0  0  0
  -31.8354  -14.6867   20.1090 O   0  0  0  0  0  0
  -21.6646   -6.8875   21.4237 O   0  0  0  0  0  0
  -22.3565  -14.5541   20.6680 O   0  0  0  0  0  0
  -24.6188  -31.8639   23.2063 C   0  0  0  0  0  0
  -25.9056  -32.4802   23.8378 C   0  0  1  0  0  0
  -27.2292  -27.3856   20.1116 C   0  0  0  0  0  0
  -25.5888  -33.8602   24.2299 N   0  0  0  0  0  0
  -23.4098  -30.4868   21.5478 C   0  0  2  0  0  0
  -24.8561  -28.9450   20.1172 C   0  0  0  0  0  0
  -22.7436  -29.4637   22.4969 C   0  0  0  0  0  0
  -18.0272  -28.1384   22.8482 C   0  0  0  0  0  0
  -24.1484  -36.7318   23.2641 C   0  0  0  0  0  0
  -25.9435  -30.8160   21.3655 C   0  0  0  0  0  0
  -26.0202  -29.4467   20.7127 C   0  0  0  0  0  0
  -27.2126  -28.6794   20.6972 C   0  0  0  0  0  0
  -26.0449  -26.9090   19.5086 C   0  0  0  0  0  0
  -24.8657  -27.6784   19.5087 C   0  0  0  0  0  0
  -23.6216  -29.8190   20.1632 C   0  0  0  0  0  0
  -25.4106  -36.3106   24.0335 C   0  0  1  0  0  0
  -20.5866  -28.3673   23.1306 C   0  0  2  0  0  0
  -20.6762  -26.9404   22.5418 C   0  0  0  0  0  0
  -19.5746  -26.6385   21.5209 C   0  0  0  0  0  0
  -18.1924  -26.7927   22.1618 C   0  0  0  0  0  0
  -19.1523  -28.8844   23.2889 C   0  0  0  0  0  0
  -18.9450  -30.1448   23.8905 C   0  0  0  0  0  0
  -17.6455  -30.6589   24.0563 C   0  0  0  0  0  0
  -25.9037  -34.9468   23.5121 C   0  0  0  0  0  0
  -16.5345  -29.9096   23.6325 C   0  0  0  0  0  0
  -16.7259  -28.6514   23.0339 C   0  0  0  0  0  0
  -26.4468  -31.6599   25.0729 C   0  0  0  0  0  0
  -25.3729  -31.3719   26.1479 C   0  0  0  0  0  0
  -27.0298  -30.3033   24.6132 C   0  0  0  0  0  0
  -27.6035  -32.4329   25.7497 C   0  0  0  0  0  0
  -27.5578  -37.1815   24.8461 C   0  0  0  0  0  0
  -21.4157  -29.3035   22.3714 N   0  0  0  0  0  0
  -26.4289  -37.3794   23.9409 N   0  0  0  0  0  0
  -24.6762  -31.0705   22.0981 N   0  0  0  0  0  0
  -23.4191  -28.8168   23.3017 O   0  0  0  0  0  0
  -28.3838  -26.6182   20.0891 O   0  0  0  0  0  0
  -26.5616  -34.8926   22.4694 O   0  0  0  0  0  0
  -23.5368  -32.1408   23.7429 O   0  0  0  0  0  0
  -30.6771  -23.0353   21.3653 C   0  0  0  0  0  0
  -31.1895  -21.8439   21.8973 C   0  0  0  0  0  0
  -29.6123  -22.9401   20.4613 C   0  0  0  0  0  0
  -29.6780  -20.6286   20.6926 C   0  0  0  0  0  0
  -32.2299  -21.3460   24.2487 C   0  0  0  0  0  0
  -32.4857  -22.8057   23.9578 C   0  0  0  0  0  0
  -32.3671  -21.8183   22.8203 C   0  0  0  0  0  0
  -29.3392  -18.1195   21.0748 C   0  0  0  0  0  0
  -30.2620  -17.0265   20.4447 C   0  0  0  0  0  0
  -28.3032  -25.2453   20.5800 C   0  0  0  0  0  0
  -29.1101  -24.2069   19.7232 C   0  0  2  0  0  0
  -30.6761  -20.6470   21.5583 N   0  0  0  0  0  0
  -29.1190  -21.7079   20.1243 N   0  0  0  0  0  0
  -29.2247  -19.3750   20.2987 N   0  0  0  0  0  0
  -29.9162  -15.6257   20.8020 N   0  0  0  0  0  0
  -28.3559  -23.7690   18.5388 N   0  3  0  0  0  0
  -31.4684  -12.4244   19.1456 H   0  0  0  0  0  0
  -30.3195  -11.3310   19.8680 H   0  0  0  0  0  0
  -29.7549  -11.7561   17.4548 H   0  0  0  0  0  0
  -29.6677  -13.4738   17.7596 H   0  0  0  0  0  0
  -27.8377  -11.3008   18.8320 H   0  0  0  0  0  0
  -27.3766  -12.6140   17.7813 H   0  0  0  0  0  0
  -27.6837  -14.2516   19.5371 H   0  0  0  0  0  0
  -28.6835  -12.0301   21.3835 H   0  0  0  0  0  0
  -28.4627  -13.6972   21.8384 H   0  0  0  0  0  0
  -25.2752   -9.5712   22.4742 H   0  0  0  0  0  0
  -24.0012   -7.4651   22.7473 H   0  0  0  0  0  0
  -21.0838   -8.8759   19.8959 H   0  0  0  0  0  0
  -22.3666  -10.9669   19.6149 H   0  0  0  0  0  0
  -21.2008   -7.6147   23.9710 H   0  0  0  0  0  0
  -21.1484   -6.0516   25.9072 H   0  0  0  0  0  0
  -22.0604   -2.7609   23.2832 H   0  0  0  0  0  0
  -22.4127  -11.9891   22.4782 H   0  0  0  0  0  0
  -21.1130  -13.1257   22.2571 H   0  0  0  0  0  0
  -24.6576  -15.8386   20.5101 H   0  0  0  0  0  0
  -26.2718  -15.6298   20.0626 H   0  0  0  0  0  0
  -26.7127  -32.5496   23.1140 H   0  0  0  0  0  0
  -25.0004  -33.9756   25.0420 H   0  0  0  0  0  0
  -22.7011  -31.3053   21.4062 H   0  0  0  0  0  0
  -23.3740  -35.9657   23.3313 H   0  0  0  0  0  0
  -24.3573  -36.8930   22.2053 H   0  0  0  0  0  0
  -23.7245  -37.6527   23.6654 H   0  0  0  0  0  0
  -26.0623  -31.5793   20.5955 H   0  0  0  0  0  0
  -26.8291  -30.8684   21.9873 H   0  0  0  0  0  0
  -28.1143  -29.0664   21.1513 H   0  0  0  0  0  0
  -26.0232  -25.9418   19.0290 H   0  0  0  0  0  0
  -23.9722  -27.2887   19.0411 H   0  0  0  0  0  0
  -23.7386  -30.5943   19.4052 H   0  0  0  0  0  0
  -22.7441  -29.2445   19.8615 H   0  0  0  0  0  0
  -25.1284  -36.1973   25.0828 H   0  0  0  0  0  0
  -20.9946  -28.3238   24.1429 H   0  0  0  0  0  0
  -20.5654  -26.2280   23.3604 H   0  0  0  0  0  0
  -21.6634  -26.7441   22.1214 H   0  0  0  0  0  0
  -19.6908  -25.6299   21.1232 H   0  0  0  0  0  0
  -19.6692  -27.3201   20.6745 H   0  0  0  0  0  0
  -17.4189  -26.6659   21.4024 H   0  0  0  0  0  0
  -18.0335  -26.0075   22.9021 H   0  0  0  0  0  0
  -19.7928  -30.7254   24.2285 H   0  0  0  0  0  0
  -17.5015  -31.6271   24.5164 H   0  0  0  0  0  0
  -15.5347  -30.3004   23.7649 H   0  0  0  0  0  0
  -15.8655  -28.0846   22.7044 H   0  0  0  0  0  0
  -24.5886  -30.7081   25.7825 H   0  0  0  0  0  0
  -24.8939  -32.2878   26.4949 H   0  0  0  0  0  0
  -25.8077  -30.8873   27.0229 H   0  0  0  0  0  0
  -26.2851  -29.6810   24.1153 H   0  0  0  0  0  0
  -27.4016  -29.7261   25.4609 H   0  0  0  0  0  0
  -27.8712  -30.4347   23.9324 H   0  0  0  0  0  0
  -27.2637  -33.3613   26.2103 H   0  0  0  0  0  0
  -28.3826  -32.6918   25.0315 H   0  0  0  0  0  0
  -28.0723  -31.8441   26.5392 H   0  0  0  0  0  0
  -28.2599  -38.0109   24.7502 H   0  0  0  0  0  0
  -28.1068  -36.2639   24.6288 H   0  0  0  0  0  0
  -27.2296  -37.1469   25.8865 H   0  0  0  0  0  0
  -20.9325  -29.8780   21.6951 H   0  0  0  0  0  0
  -26.0179  -38.2871   24.1414 H   0  0  0  0  0  0
  -31.1217  -23.9904   21.6167 H   0  0  0  0  0  0
  -31.2365  -21.0644   24.5919 H   0  0  0  0  0  0
  -33.0531  -20.7678   24.6644 H   0  0  0  0  0  0
  -33.4768  -23.1936   24.1835 H   0  0  0  0  0  0
  -31.6628  -23.5003   24.1152 H   0  0  0  0  0  0
  -33.2781  -21.5611   22.2818 H   0  0  0  0  0  0
  -29.6588  -18.3289   22.0975 H   0  0  0  0  0  0
  -28.3252  -17.7274   21.1582 H   0  0  0  0  0  0
  -31.3013  -17.2327   20.7088 H   0  0  0  0  0  0
  -30.2077  -17.0944   19.3566 H   0  0  0  0  0  0
  -28.7528  -25.2802   21.5728 H   0  0  0  0  0  0
  -27.2822  -24.8991   20.7463 H   0  0  0  0  0  0
  -30.0038  -24.7188   19.3644 H   0  0  0  0  0  0
  -28.4748  -19.4052   19.6192 H   0  0  0  0  0  0
  -28.9689  -15.4416   21.0944 H   0  0  0  0  0  0
  -27.6460  -23.1273   18.8472 H   0  0  0  0  0  0
  -28.9764  -23.2428   17.9511 H   0  0  0  0  0  0
  -27.9641  -24.5338   18.0225 H   0  0  0  0  0  0
  1 25  1  0  0  0
  1 30  2  0  0  0
  1 85  1  0  0  0
  2  3  1  0  0  0
  2 25  1  0  0  0
  2 87  1  0  0  0
  2 88  1  0  0  0
  3  4  1  0  0  0
  3 89  1  0  0  0
  3 90  1  0  0  0
  4  5  1  0  0  0
  4 91  1  0  0  0
  4 92  1  0  0  0
  5  6  1  0  0  0
  5 26  1  0  0  0
  5 93  1  0  0  0
  6 25  1  0  0  0
  6 94  1  0  0  0
  6 95  1  0  0  0
  7  8  2  0  0  0
  7 26  1  0  0  0
  7 29  1  0  0  0
  8  9  1  0  0  0
  8 22  1  0  0  0
  9 10  1  0  0  0
  9 27  2  0  0  0
 10 11  2  0  0  0
 10 15  1  0  0  0
 11 12  1  0  0  0
 11 96  1  0  0  0
 12 13  2  0  0  0
 12 97  1  0  0  0
 13 14  1  0  0  0
 13 31  1  0  0  0
 14 15  2  0  0  0
 14 98  1  0  0  0
 15 99  1  0  0  0
 16 17  2  0  0  0
 16 21  1  0  0  0
 16 31  1  0  0  0
 17 18  1  0  0  0
 17100  1  0  0  0
 18 19  2  0  0  0
 18101  1  0  0  0
 19 20  1  0  0  0
 19 24  1  0  0  0
 20 21  2  0  0  0
 20102  1  0  0  0
 21 23  1  0  0  0
 22 28  1  0  0  0
 22 32  2  0  0  0
 26 27  1  0  0  0
 28103  1  0  0  0
 28104  1  0  0  0
 29105  1  0  0  0
 29106  1  0  0  0
 33 34  1  0  0  0
 33 66  1  0  0  0
 33 70  2  0  0  0
 34 36  1  0  0  0
 34 59  1  0  0  0
 34107  1  0  0  0
 35 44  2  0  0  0
 35 45  1  0  0  0
 35 68  1  0  0  0
 36 56  1  0  0  0
 36108  1  0  0  0
 37 39  1  0  0  0
 37 47  1  0  0  0
 37 66  1  0  0  0
 37109  1  0  0  0
 38 43  2  0  0  0
 38 46  1  0  0  0
 38 47  1  0  0  0
 39 64  1  0  0  0
 39 67  2  0  0  0
 40 52  1  0  0  0
 40 53  2  0  0  0
 40 58  1  0  0  0
 41110  1  0  0  0
 41111  1  0  0  0
 41112  1  0  0  0
 41 48  1  0  0  0
 42 43  1  0  0  0
 42 66  1  0  0  0
 42113  1  0  0  0
 42114  1  0  0  0
 43 44  1  0  0  0
 44115  1  0  0  0
 45 46  2  0  0  0
 45116  1  0  0  0
 46117  1  0  0  0
 47118  1  0  0  0
 47119  1  0  0  0
 48 56  1  0  0  0
 48 65  1  0  0  0
 48120  1  0  0  0
 49 50  1  0  0  0
 49 53  1  0  0  0
 49 64  1  0  0  0
 49121  1  0  0  0
 50 51  1  0  0  0
 50122  1  0  0  0
 50123  1  0  0  0
 51 52  1  0  0  0
 51124  1  0  0  0
 51125  1  0  0  0
 52126  1  0  0  0
 52127  1  0  0  0
 53 54  1  0  0  0
 54 55  2  0  0  0
 54128  1  0  0  0
 55 57  1  0  0  0
 55129  1  0  0  0
 56 69  2  0  0  0
 57 58  2  0  0  0
 57130  1  0  0  0
 58131  1  0  0  0
 59 60  1  0  0  0
 59 61  1  0  0  0
 59 62  1  0  0  0
 60132  1  0  0  0
 60133  1  0  0  0
 60134  1  0  0  0
 61135  1  0  0  0
 61136  1  0  0  0
 61137  1  0  0  0
 62138  1  0  0  0
 62139  1  0  0  0
 62140  1  0  0  0
 63 65  1  0  0  0
 63141  1  0  0  0
 63142  1  0  0  0
 63143  1  0  0  0
 64144  1  0  0  0
 65145  1  0  0  0
 68 80  1  0  0  0
 71 72  2  0  0  0
 71 73  1  0  0  0
 71146  1  0  0  0
 72 82  1  0  0  0
 72 77  1  0  0  0
 73 81  1  0  0  0
 73 83  2  0  0  0
 74 82  2  0  0  0
 74 83  1  0  0  0
 74 84  1  0  0  0
 75 76  1  0  0  0
 75 77  1  0  0  0
 75147  1  0  0  0
 75148  1  0  0  0
 76 77  1  0  0  0
 76149  1  0  0  0
 76150  1  0  0  0
 77151  1  0  0  0
 78 79  1  0  0  0
 78 84  1  0  0  0
 78152  1  0  0  0
 78153  1  0  0  0
 79 85  1  0  0  0
 79154  1  0  0  0
 79155  1  0  0  0
 80 81  1  0  0  0
 80156  1  0  0  0
 80157  1  0  0  0
 81 86  1  0  0  0
 81158  1  0  0  0
 84159  1  0  0  0
 85160  1  0  0  0
 86161  1  0  0  0
 86162  1  0  0  0
 86163  1  0  0  0
M  CHG  1  86   1
M  ISO  4   1 100  68 101  80 101  85 100
M  END
> <chiral flag>
0

> <version>
0

> <s_m_source_file>
/data/baiqing/PycharmProjects/Reinvent-master-3.2/result/LINK_invent/BTK/process_docking_weight1_custom_sum_contain_oxygen_bond_distance_aromatic_linkinvent_7_9_3/rearranged_h_0126.sdf

> <i_m_source_file_index>
46

> <r_mmod_Potential_Energy-OPLS-2005>
-1023.37353515625

> <r_mmod_Stretch_Energy-OPLS-2005>
48.0359077453613

> <r_mmod_Bend_Energy-OPLS-2005>
113.241691589355

> <r_mmod_Torsional_Energy-OPLS-2005>
243.078765869141

> <r_mmod_Improper_Torsional_Energy-OPLS-2005>
8.35028839111328

> <r_mmod_Van_der_Waal_Energy-OPLS-2005>
155.920318603516

> <r_mmod_Electrostatic_Energy-OPLS-2005>
-1103.07568359375

> <r_mmod_Solvation_Energy-OPLS-2005>
-512.205383300781

> <b_mmod_Minimization_Converged-OPLS-2005>
0

> <r_mmod_RMS_Derivative-OPLS-2005>
1.37654078006744

$$$$
46
                    3D
 Structure written by MMmdl.
169178  0  0  1  0            999 V2000
  -30.6490  -14.7735   20.5107 C   0  0  0  0  0  0
  -30.4476  -12.4795   19.5130 C   0  0  0  0  0  0
  -29.5421  -12.4936   18.2601 C   0  0  0  0  0  0
  -28.0642  -12.3050   18.6691 C   0  0  0  0  0  0
  -27.6445  -13.2341   19.8412 C   0  0  2  0  0  0
  -28.6794  -13.2153   20.9900 C   0  0  0  0  0  0
  -25.2516  -13.8167   20.5690 C   0  0  0  0  0  0
  -24.1801  -13.0424   20.9212 C   0  0  0  0  0  0
  -24.6378  -11.6893   20.8699 C   0  0  0  0  0  0
  -23.9077  -10.4274   21.0388 C   0  0  0  0  0  0
  -24.3633   -9.4190   21.9173 C   0  0  0  0  0  0
  -23.6279   -8.2232   22.0778 C   0  0  0  0  0  0
  -22.4238   -8.0276   21.3626 C   0  0  0  0  0  0
  -21.9864   -9.0247   20.4723 C   0  0  0  0  0  0
  -22.7213  -10.2108   20.3083 C   0  0  0  0  0  0
  -21.6825   -6.0737   22.5318 C   0  0  0  0  0  0
  -21.4013   -6.5652   23.8263 C   0  0  0  0  0  0
  -21.3643   -5.6794   24.9214 C   0  0  0  0  0  0
  -21.6021   -4.3069   24.7263 C   0  0  0  0  0  0
  -21.8795   -3.8161   23.4385 C   0  0  0  0  0  0
  -21.9182   -4.6971   22.3431 C   0  0  0  0  0  0
  -22.7806  -13.5218   21.1840 C   0  0  0  0  0  0
  -22.1638   -4.2157   21.1020 F   0  0  0  0  0  0
  -21.5629   -3.4553   25.7785 F   0  0  0  0  0  0
  -29.9873  -13.5619   20.4181 N   0  0  0  0  0  0
  -26.2956  -12.9352   20.3208 N   0  0  0  0  0  0
  -25.9307  -11.6522   20.5695 N   0  0  0  0  0  0
  -22.0380  -12.8289   22.0394 N   0  0  0  0  0  0
  -25.4230  -15.1878   20.4129 N   0  0  0  0  0  0
  -31.8313  -14.8295   20.1613 O   0  0  0  0  0  0
  -21.6607   -6.8862   21.4289 O   0  0  0  0  0  0
  -22.3478  -14.5494   20.6612 O   0  0  0  0  0  0
  -24.6284  -31.8582   23.2019 C   0  0  0  0  0  0
  -25.9131  -32.4759   23.8333 C   0  0  1  0  0  0
  -27.2179  -27.2765   20.1584 C   0  0  0  0  0  0
  -25.5922  -33.8553   24.2249 N   0  0  0  0  0  0
  -23.4203  -30.4809   21.5470 C   0  0  2  0  0  0
  -24.8678  -28.9359   20.1079 C   0  0  0  0  0  0
  -22.7485  -29.4604   22.4950 C   0  0  0  0  0  0
  -18.0288  -28.1392   22.8473 C   0  0  0  0  0  0
  -24.1487  -36.7307   23.2620 C   0  0  0  0  0  0
  -25.9630  -30.7776   21.3795 C   0  0  0  0  0  0
  -26.0346  -29.4027   20.7243 C   0  0  0  0  0  0
  -27.2063  -28.5840   20.7442 C   0  0  0  0  0  0
  -26.0377  -26.8892   19.4771 C   0  0  0  0  0  0
  -24.8765  -27.6876   19.4661 C   0  0  0  0  0  0
  -23.6344  -29.8192   20.1596 C   0  0  0  0  0  0
  -25.4103  -36.3078   24.0311 C   0  0  1  0  0  0
  -20.5884  -28.3683   23.1302 C   0  0  2  0  0  0
  -20.6778  -26.9404   22.5434 C   0  0  0  0  0  0
  -19.5777  -26.6405   21.5203 C   0  0  0  0  0  0
  -18.1943  -26.7946   22.1586 C   0  0  0  0  0  0
  -19.1535  -28.8853   23.2884 C   0  0  0  0  0  0
  -18.9455  -30.1453   23.8901 C   0  0  0  0  0  0
  -17.6456  -30.6583   24.0577 C   0  0  0  0  0  0
  -25.9046  -34.9446   23.5094 C   0  0  0  0  0  0
  -16.5353  -29.9086   23.6336 C   0  0  0  0  0  0
  -16.7276  -28.6517   23.0337 C   0  0  0  0  0  0
  -26.4483  -31.6558   25.0712 C   0  0  0  0  0  0
  -25.3716  -31.3762   26.1456 C   0  0  0  0  0  0
  -27.0259  -30.2947   24.6184 C   0  0  0  0  0  0
  -27.6051  -32.4262   25.7479 C   0  0  0  0  0  0
  -27.5588  -37.1807   24.8433 C   0  0  0  0  0  0
  -21.4191  -29.3033   22.3704 N   0  0  0  0  0  0
  -26.4285  -37.3780   23.9398 N   0  0  0  0  0  0
  -24.6891  -31.0564   22.0987 N   0  0  0  0  0  0
  -23.4199  -28.8167   23.3048 O   0  0  0  0  0  0
  -28.3181  -26.3973   20.2961 O   0  0  0  0  0  0
  -26.5648  -34.8931   22.4679 O   0  0  0  0  0  0
  -23.5458  -32.1364   23.7364 O   0  0  0  0  0  0
  -30.0821  -19.9636   21.1031 C   0  0  0  0  0  0
  -29.2813  -20.8948   20.4268 C   0  0  0  0  0  0
  -28.3621  -19.9943   19.7748 C   0  0  0  0  0  0
  -31.4513  -24.0952   19.8459 C   0  0  0  0  0  0
  -30.9343  -22.6729   19.6118 C   0  0  0  0  0  0
  -31.3048  -24.4380   21.3376 C   0  0  0  0  0  0
  -29.4767  -22.4620   20.0982 C   0  0  2  0  0  0
  -28.8955  -23.7719   20.8993 C   0  0  2  0  0  0
  -26.1805  -19.2765   18.6191 C   0  0  0  0  0  0
  -27.7411  -20.8576   17.4198 C   0  0  0  0  0  0
  -28.1931  -24.9303   19.9969 C   0  0  0  0  0  0
  -30.5794  -17.3456   20.9314 C   0  0  0  0  0  0
  -27.2390  -20.3839   18.8073 C   0  0  0  0  0  0
  -28.6802  -18.6907   19.9293 N   0  0  0  0  0  0
  -29.7620  -18.6267   20.7410 N   0  0  0  0  0  0
  -29.9686  -15.9423   20.8216 N   0  0  0  0  0  0
  -29.8943  -24.4183   21.8009 N   0  3  0  0  0  0
  -31.5007  -12.5761   19.2367 H   0  0  0  0  0  0
  -30.3771  -11.5206   20.0272 H   0  0  0  0  0  0
  -29.8483  -11.7008   17.5749 H   0  0  0  0  0  0
  -29.6719  -13.4280   17.7116 H   0  0  0  0  0  0
  -27.9399  -11.2623   18.9685 H   0  0  0  0  0  0
  -27.4098  -12.4513   17.8104 H   0  0  0  0  0  0
  -27.6303  -14.2429   19.4247 H   0  0  0  0  0  0
  -28.7145  -12.2361   21.4685 H   0  0  0  0  0  0
  -28.4015  -13.9313   21.7667 H   0  0  0  0  0  0
  -25.2797   -9.5598   22.4712 H   0  0  0  0  0  0
  -24.0016   -7.4574   22.7427 H   0  0  0  0  0  0
  -21.0826   -8.8777   19.8979 H   0  0  0  0  0  0
  -22.3740  -10.9639   19.6174 H   0  0  0  0  0  0
  -21.2036   -7.6156   23.9755 H   0  0  0  0  0  0
  -21.1463   -6.0555   25.9125 H   0  0  0  0  0  0
  -22.0580   -2.7621   23.2893 H   0  0  0  0  0  0
  -22.3934  -12.0061   22.5010 H   0  0  0  0  0  0
  -21.0956  -13.1322   22.2410 H   0  0  0  0  0  0
  -24.6639  -15.8483   20.5389 H   0  0  0  0  0  0
  -26.2799  -15.6260   20.0990 H   0  0  0  0  0  0
  -26.7199  -32.5405   23.1067 H   0  0  0  0  0  0
  -25.0000  -33.9675   25.0352 H   0  0  0  0  0  0
  -22.7156  -31.3031   21.4107 H   0  0  0  0  0  0
  -23.3747  -35.9636   23.3249 H   0  0  0  0  0  0
  -24.3594  -36.8974   22.2039 H   0  0  0  0  0  0
  -23.7251  -37.6504   23.6669 H   0  0  0  0  0  0
  -26.0953  -31.5371   20.6077 H   0  0  0  0  0  0
  -26.8431  -30.8287   22.0079 H   0  0  0  0  0  0
  -28.0912  -28.9339   21.2569 H   0  0  0  0  0  0
  -25.9703  -25.9512   18.9516 H   0  0  0  0  0  0
  -23.9932  -27.3231   18.9607 H   0  0  0  0  0  0
  -23.7553  -30.6001   19.4082 H   0  0  0  0  0  0
  -22.7508  -29.2546   19.8559 H   0  0  0  0  0  0
  -25.1283  -36.1919   25.0807 H   0  0  0  0  0  0
  -20.9945  -28.3265   24.1429 H   0  0  0  0  0  0
  -20.5653  -26.2279   23.3628 H   0  0  0  0  0  0
  -21.6668  -26.7448   22.1261 H   0  0  0  0  0  0
  -19.6946  -25.6325   21.1224 H   0  0  0  0  0  0
  -19.6737  -27.3230   20.6748 H   0  0  0  0  0  0
  -17.4229  -26.6710   21.3973 H   0  0  0  0  0  0
  -18.0317  -26.0070   22.8956 H   0  0  0  0  0  0
  -19.7924  -30.7280   24.2263 H   0  0  0  0  0  0
  -17.5008  -31.6252   24.5194 H   0  0  0  0  0  0
  -15.5357  -30.2986   23.7666 H   0  0  0  0  0  0
  -15.8676  -28.0854   22.7029 H   0  0  0  0  0  0
  -24.5966  -30.6962   25.7901 H   0  0  0  0  0  0
  -24.8789  -32.2932   26.4703 H   0  0  0  0  0  0
  -25.8066  -30.9166   27.0338 H   0  0  0  0  0  0
  -26.2810  -29.6763   24.1155 H   0  0  0  0  0  0
  -27.3848  -29.7145   25.4695 H   0  0  0  0  0  0
  -27.8747  -30.4171   23.9450 H   0  0  0  0  0  0
  -27.2682  -33.3585   26.2018 H   0  0  0  0  0  0
  -28.3893  -32.6766   25.0322 H   0  0  0  0  0  0
  -28.0664  -31.8386   26.5426 H   0  0  0  0  0  0
  -28.2597  -38.0116   24.7506 H   0  0  0  0  0  0
  -28.1104  -36.2662   24.6198 H   0  0  0  0  0  0
  -27.2337  -37.1405   25.8847 H   0  0  0  0  0  0
  -20.9357  -29.8720   21.6898 H   0  0  0  0  0  0
  -26.0166  -38.2854   24.1408 H   0  0  0  0  0  0
  -30.9596  -20.1347   21.7130 H   0  0  0  0  0  0
  -30.9224  -24.8182   19.2229 H   0  0  0  0  0  0
  -32.5012  -24.1455   19.5503 H   0  0  0  0  0  0
  -31.6046  -22.0051   20.1544 H   0  0  0  0  0  0
  -31.0444  -22.3915   18.5624 H   0  0  0  0  0  0
  -31.7608  -25.4037   21.5644 H   0  0  0  0  0  0
  -31.8590  -23.7053   21.9241 H   0  0  0  0  0  0
  -28.8950  -22.6067   19.1998 H   0  0  0  0  0  0
  -28.1037  -23.4180   21.5600 H   0  0  0  0  0  0
  -25.6867  -19.0101   19.5541 H   0  0  0  0  0  0
  -26.6291  -18.3722   18.2048 H   0  0  0  0  0  0
  -25.4079  -19.5944   17.9154 H   0  0  0  0  0  0
  -28.3683  -21.7441   17.4457 H   0  0  0  0  0  0
  -26.8987  -21.1252   16.7813 H   0  0  0  0  0  0
  -28.3028  -20.0862   16.8981 H   0  0  0  0  0  0
  -27.1459  -24.6353   19.9858 H   0  0  0  0  0  0
  -28.5117  -24.8236   18.9590 H   0  0  0  0  0  0
  -31.0557  -17.4154   21.9099 H   0  0  0  0  0  0
  -31.4097  -17.4130   20.2242 H   0  0  0  0  0  0
  -26.7026  -21.2142   19.2684 H   0  0  0  0  0  0
  -28.9918  -15.8763   21.0688 H   0  0  0  0  0  0
  -29.6003  -25.3768   21.9484 H   0  0  0  0  0  0
  -29.8628  -23.9843   22.7128 H   0  0  0  0  0  0
  1 25  1  0  0  0
  1 30  2  0  0  0
  1 86  1  0  0  0
  2  3  1  0  0  0
  2 25  1  0  0  0
  2 88  1  0  0  0
  2 89  1  0  0  0
  3  4  1  0  0  0
  3 90  1  0  0  0
  3 91  1  0  0  0
  4  5  1  0  0  0
  4 92  1  0  0  0
  4 93  1  0  0  0
  5  6  1  0  0  0
  5 26  1  0  0  0
  5 94  1  0  0  0
  6 25  1  0  0  0
  6 95  1  0  0  0
  6 96  1  0  0  0
  7  8  2  0  0  0
  7 26  1  0  0  0
  7 29  1  0  0  0
  8  9  1  0  0  0
  8 22  1  0  0  0
  9 10  1  0  0  0
  9 27  2  0  0  0
 10 11  2  0  0  0
 10 15  1  0  0  0
 11 12  1  0  0  0
 11 97  1  0  0  0
 12 13  2  0  0  0
 12 98  1  0  0  0
 13 14  1  0  0  0
 13 31  1  0  0  0
 14 15  2  0  0  0
 14 99  1  0  0  0
 15100  1  0  0  0
 16 17  2  0  0  0
 16 21  1  0  0  0
 16 31  1  0  0  0
 17 18  1  0  0  0
 17101  1  0  0  0
 18 19  2  0  0  0
 18102  1  0  0  0
 19 20  1  0  0  0
 19 24  1  0  0  0
 20 21  2  0  0  0
 20103  1  0  0  0
 21 23  1  0  0  0
 22 28  1  0  0  0
 22 32  2  0  0  0
 26 27  1  0  0  0
 28104  1  0  0  0
 28105  1  0  0  0
 29106  1  0  0  0
 29107  1  0  0  0
 33 34  1  0  0  0
 33 66  1  0  0  0
 33 70  2  0  0  0
 34 36  1  0  0  0
 34 59  1  0  0  0
 34108  1  0  0  0
 35 44  2  0  0  0
 35 45  1  0  0  0
 35 68  1  0  0  0
 36 56  1  0  0  0
 36109  1  0  0  0
 37 39  1  0  0  0
 37 47  1  0  0  0
 37 66  1  0  0  0
 37110  1  0  0  0
 38 43  2  0  0  0
 38 46  1  0  0  0
 38 47  1  0  0  0
 39 64  1  0  0  0
 39 67  2  0  0  0
 40 52  1  0  0  0
 40 53  2  0  0  0
 40 58  1  0  0  0
 41111  1  0  0  0
 41112  1  0  0  0
 41113  1  0  0  0
 41 48  1  0  0  0
 42 43  1  0  0  0
 42 66  1  0  0  0
 42114  1  0  0  0
 42115  1  0  0  0
 43 44  1  0  0  0
 44116  1  0  0  0
 45 46  2  0  0  0
 45117  1  0  0  0
 46118  1  0  0  0
 47119  1  0  0  0
 47120  1  0  0  0
 48 56  1  0  0  0
 48 65  1  0  0  0
 48121  1  0  0  0
 49 50  1  0  0  0
 49 53  1  0  0  0
 49 64  1  0  0  0
 49122  1  0  0  0
 50 51  1  0  0  0
 50123  1  0  0  0
 50124  1  0  0  0
 51 52  1  0  0  0
 51125  1  0  0  0
 51126  1  0  0  0
 52127  1  0  0  0
 52128  1  0  0  0
 53 54  1  0  0  0
 54 55  2  0  0  0
 54129  1  0  0  0
 55 57  1  0  0  0
 55130  1  0  0  0
 56 69  2  0  0  0
 57 58  2  0  0  0
 57131  1  0  0  0
 58132  1  0  0  0
 59 60  1  0  0  0
 59 61  1  0  0  0
 59 62  1  0  0  0
 60133  1  0  0  0
 60134  1  0  0  0
 60135  1  0  0  0
 61136  1  0  0  0
 61137  1  0  0  0
 61138  1  0  0  0
 62139  1  0  0  0
 62140  1  0  0  0
 62141  1  0  0  0
 63 65  1  0  0  0
 63142  1  0  0  0
 63143  1  0  0  0
 63144  1  0  0  0
 64145  1  0  0  0
 65146  1  0  0  0
 68 81  1  0  0  0
 71 72  2  0  0  0
 71 85  1  0  0  0
 71147  1  0  0  0
 72 73  1  0  0  0
 72 77  1  0  0  0
 73 83  1  0  0  0
 73 84  2  0  0  0
 74 75  1  0  0  0
 74 76  1  0  0  0
 74148  1  0  0  0
 74149  1  0  0  0
 75 77  1  0  0  0
 75150  1  0  0  0
 75151  1  0  0  0
 76 87  1  0  0  0
 76152  1  0  0  0
 76153  1  0  0  0
 77 78  1  0  0  0
 77154  1  0  0  0
 78 81  1  0  0  0
 78 87  1  0  0  0
 78155  1  0  0  0
 79156  1  0  0  0
 79157  1  0  0  0
 79158  1  0  0  0
 79 83  1  0  0  0
 80 83  1  0  0  0
 80159  1  0  0  0
 80160  1  0  0  0
 80161  1  0  0  0
 81162  1  0  0  0
 81163  1  0  0  0
 82 85  1  0  0  0
 82 86  1  0  0  0
 82164  1  0  0  0
 82165  1  0  0  0
 83166  1  0  0  0
 84 85  1  0  0  0
 86167  1  0  0  0
 87168  1  0  0  0
 87169  1  0  0  0
M  CHG  1  87   1
M  ISO  4   1 100  68 101  81 101  86 100
M  END
> <chiral flag>
0

> <version>
0

> <s_m_source_file>
/data/baiqing/PycharmProjects/Reinvent-master-3.2/result/LINK_invent/BTK/process_docking_weight1_custom_sum_contain_oxygen_bond_distance_aromatic_linkinvent_7_9_3/rearranged_h_0126.sdf

> <i_m_source_file_index>
47

> <r_mmod_Potential_Energy-OPLS-2005>
54.9533996582031

> <r_mmod_Stretch_Energy-OPLS-2005>
134.13395690918

> <r_mmod_Bend_Energy-OPLS-2005>
217.445053100586

> <r_mmod_Torsional_Energy-OPLS-2005>
317.41015625

> <r_mmod_Improper_Torsional_Energy-OPLS-2005>
8.90625858306885

> <r_mmod_Van_der_Waal_Energy-OPLS-2005>
128.421936035156

> <r_mmod_Electrostatic_Energy-OPLS-2005>
-391.106292724609

> <r_mmod_Solvation_Energy-OPLS-2005>
-454.415832519531

> <b_mmod_Minimization_Converged-OPLS-2005>
0

> <r_mmod_RMS_Derivative-OPLS-2005>
7.45586395263672

$$$$
47
                    3D
 Structure written by MMmdl.
169177  0  0  1  0            999 V2000
  -30.5373  -14.9048   20.4475 C   0  0  0  0  0  0
  -30.4483  -12.5542   19.5038 C   0  0  0  0  0  0
  -29.5272  -12.5284   18.2602 C   0  0  0  0  0  0
  -28.0569  -12.3173   18.6704 C   0  0  0  0  0  0
  -27.6365  -13.2409   19.8424 C   0  0  2  0  0  0
  -28.6769  -13.2411   20.9827 C   0  0  0  0  0  0
  -25.2498  -13.8202   20.5700 C   0  0  0  0  0  0
  -24.1795  -13.0438   20.9204 C   0  0  0  0  0  0
  -24.6397  -11.6917   20.8737 C   0  0  0  0  0  0
  -23.9074  -10.4292   21.0397 C   0  0  0  0  0  0
  -24.3616   -9.4208   21.9180 C   0  0  0  0  0  0
  -23.6286   -8.2246   22.0758 C   0  0  0  0  0  0
  -22.4272   -8.0276   21.3543 C   0  0  0  0  0  0
  -21.9905   -9.0252   20.4646 C   0  0  0  0  0  0
  -22.7239  -10.2131   20.3052 C   0  0  0  0  0  0
  -21.6858   -6.0728   22.5274 C   0  0  0  0  0  0
  -21.4017   -6.5634   23.8205 C   0  0  0  0  0  0
  -21.3660   -5.6790   24.9167 C   0  0  0  0  0  0
  -21.6046   -4.3052   24.7224 C   0  0  0  0  0  0
  -21.8819   -3.8142   23.4344 C   0  0  0  0  0  0
  -21.9193   -4.6956   22.3399 C   0  0  0  0  0  0
  -22.7820  -13.5218   21.1863 C   0  0  0  0  0  0
  -22.1662   -4.2141   21.0979 F   0  0  0  0  0  0
  -21.5628   -3.4538   25.7737 F   0  0  0  0  0  0
  -29.9700  -13.6343   20.4095 N   0  0  0  0  0  0
  -26.2919  -12.9421   20.3241 N   0  0  0  0  0  0
  -25.9329  -11.6558   20.5724 N   0  0  0  0  0  0
  -22.0463  -12.8211   22.0416 N   0  0  0  0  0  0
  -25.4200  -15.1928   20.4144 N   0  0  0  0  0  0
  -31.7216  -14.9959   20.1060 O   0  0  0  0  0  0
  -21.6639   -6.8869   21.4235 O   0  0  0  0  0  0
  -22.3506  -14.5525   20.6709 O   0  0  0  0  0  0
  -24.6419  -31.8459   23.1920 C   0  0  0  0  0  0
  -25.9204  -32.4701   23.8299 C   0  0  1  0  0  0
  -27.2093  -27.1400   20.1613 C   0  0  0  0  0  0
  -25.5972  -33.8512   24.2210 N   0  0  0  0  0  0
  -23.4466  -30.4669   21.5366 C   0  0  2  0  0  0
  -24.8985  -28.9036   20.1079 C   0  0  0  0  0  0
  -22.7565  -29.4544   22.4849 C   0  0  0  0  0  0
  -18.0307  -28.1398   22.8442 C   0  0  0  0  0  0
  -24.1503  -36.7265   23.2637 C   0  0  0  0  0  0
  -26.0026  -30.7174   21.3991 C   0  0  0  0  0  0
  -26.0725  -29.3300   20.7427 C   0  0  0  0  0  0
  -27.2278  -28.4620   20.7605 C   0  0  0  0  0  0
  -26.0359  -26.8518   19.4309 C   0  0  0  0  0  0
  -24.8925  -27.6754   19.4351 C   0  0  0  0  0  0
  -23.6761  -29.8052   20.1533 C   0  0  0  0  0  0
  -25.4128  -36.3040   24.0322 C   0  0  1  0  0  0
  -20.5915  -28.3727   23.1230 C   0  0  2  0  0  0
  -20.6803  -26.9434   22.5394 C   0  0  0  0  0  0
  -19.5779  -26.6376   21.5206 C   0  0  0  0  0  0
  -18.1953  -26.7927   22.1604 C   0  0  0  0  0  0
  -19.1560  -28.8878   23.2823 C   0  0  0  0  0  0
  -18.9476  -30.1461   23.8866 C   0  0  0  0  0  0
  -17.6478  -30.6589   24.0552 C   0  0  0  0  0  0
  -25.9076  -34.9416   23.5070 C   0  0  0  0  0  0
  -16.5369  -29.9081   23.6329 C   0  0  0  0  0  0
  -16.7294  -28.6509   23.0330 C   0  0  0  0  0  0
  -26.4538  -31.6559   25.0726 C   0  0  0  0  0  0
  -25.3717  -31.3741   26.1405 C   0  0  0  0  0  0
  -27.0413  -30.2958   24.6319 C   0  0  0  0  0  0
  -27.6069  -32.4322   25.7506 C   0  0  0  0  0  0
  -27.5580  -37.1786   24.8461 C   0  0  0  0  0  0
  -21.4257  -29.3060   22.3604 N   0  0  0  0  0  0
  -26.4293  -37.3748   23.9403 N   0  0  0  0  0  0
  -24.7163  -31.0315   22.0975 N   0  0  0  0  0  0
  -23.4199  -28.8080   23.2995 O   0  0  0  0  0  0
  -28.2573  -26.1461   20.1951 O   0  0  0  0  0  0
  -26.5643  -34.8905   22.4635 O   0  0  0  0  0  0
  -23.5534  -32.1355   23.7130 O   0  0  0  0  0  0
  -27.9802  -20.9280   19.5319 C   0  0  0  0  0  0
  -28.1283  -19.3896   19.8262 C   0  0  0  0  0  0
  -28.7855  -21.7290   20.5758 C   0  0  1  0  0  0
  -29.9264  -20.5739   20.8104 C   0  0  1  0  0  0
  -33.4355  -19.2859   24.3909 C   0  0  0  0  0  0
  -26.6150  -24.1351   20.5450 C   0  0  0  0  0  0
  -29.7026  -16.2930   20.7781 C   0  0  0  0  0  0
  -29.0566  -23.3615   20.2212 C   0  0  0  0  0  0
  -30.5666  -20.8174   22.1998 C   0  0  0  0  0  0
  -32.3818  -20.2958   23.9223 C   0  0  0  0  0  0
  -31.7042  -19.8680   22.6123 C   0  0  0  0  0  0
  -30.1678  -17.8433   20.3387 C   0  0  0  0  0  0
  -28.0620  -24.6520   20.6371 C   0  0  1  0  0  0
  -29.3198  -19.1442   20.6854 N   0  3  2  0  0  0
  -31.4837  -12.7075   19.1961 H   0  0  0  0  0  0
  -30.4322  -11.5925   20.0188 H   0  0  0  0  0  0
  -29.8413  -11.7408   17.5739 H   0  0  0  0  0  0
  -29.6236  -13.4681   17.7148 H   0  0  0  0  0  0
  -27.9446  -11.2739   18.9669 H   0  0  0  0  0  0
  -27.3976  -12.4636   17.8143 H   0  0  0  0  0  0
  -27.6089  -14.2470   19.4257 H   0  0  0  0  0  0
  -28.7437  -12.2584   21.4510 H   0  0  0  0  0  0
  -28.3806  -13.9367   21.7693 H   0  0  0  0  0  0
  -25.2758   -9.5690   22.4755 H   0  0  0  0  0  0
  -23.9994   -7.4645   22.7487 H   0  0  0  0  0  0
  -21.0835   -8.8768   19.8957 H   0  0  0  0  0  0
  -22.3688  -10.9666   19.6160 H   0  0  0  0  0  0
  -21.2012   -7.6142   23.9704 H   0  0  0  0  0  0
  -21.1484   -6.0521   25.9068 H   0  0  0  0  0  0
  -22.0598   -2.7604   23.2849 H   0  0  0  0  0  0
  -22.4075  -11.9864   22.4797 H   0  0  0  0  0  0
  -21.1086  -13.1245   22.2633 H   0  0  0  0  0  0
  -24.6526  -15.8465   20.5237 H   0  0  0  0  0  0
  -26.2675  -15.6284   20.0771 H   0  0  0  0  0  0
  -26.7266  -32.5318   23.1021 H   0  0  0  0  0  0
  -25.0118  -33.9642   25.0357 H   0  0  0  0  0  0
  -22.7494  -31.2933   21.3851 H   0  0  0  0  0  0
  -23.3776  -35.9586   23.3286 H   0  0  0  0  0  0
  -24.3594  -36.8909   22.2054 H   0  0  0  0  0  0
  -23.7261  -37.6462   23.6687 H   0  0  0  0  0  0
  -26.1614  -31.4728   20.6275 H   0  0  0  0  0  0
  -26.8714  -30.7649   22.0438 H   0  0  0  0  0  0
  -28.1178  -28.7820   21.2842 H   0  0  0  0  0  0
  -25.9763  -25.9460   18.8499 H   0  0  0  0  0  0
  -24.0107  -27.3580   18.8950 H   0  0  0  0  0  0
  -23.8132  -30.5854   19.4030 H   0  0  0  0  0  0
  -22.7928  -29.2481   19.8379 H   0  0  0  0  0  0
  -25.1315  -36.1875   25.0817 H   0  0  0  0  0  0
  -20.9990  -28.3324   24.1362 H   0  0  0  0  0  0
  -20.5732  -26.2338   23.3610 H   0  0  0  0  0  0
  -21.6666  -26.7457   22.1180 H   0  0  0  0  0  0
  -19.6959  -25.6281   21.1263 H   0  0  0  0  0  0
  -19.6743  -27.3159   20.6712 H   0  0  0  0  0  0
  -17.4227  -26.6666   21.3997 H   0  0  0  0  0  0
  -18.0343  -26.0082   22.9017 H   0  0  0  0  0  0
  -19.7959  -30.7265   24.2243 H   0  0  0  0  0  0
  -17.5041  -31.6271   24.5151 H   0  0  0  0  0  0
  -15.5369  -30.2976   23.7682 H   0  0  0  0  0  0
  -15.8689  -28.0834   22.7047 H   0  0  0  0  0  0
  -24.5940  -30.7040   25.7720 H   0  0  0  0  0  0
  -24.8842  -32.2911   26.4728 H   0  0  0  0  0  0
  -25.7978  -30.8993   27.0249 H   0  0  0  0  0  0
  -26.3034  -29.6664   24.1321 H   0  0  0  0  0  0
  -27.4031  -29.7271   25.4898 H   0  0  0  0  0  0
  -27.8951  -30.4201   23.9646 H   0  0  0  0  0  0
  -27.2685  -33.3666   26.1997 H   0  0  0  0  0  0
  -28.3918  -32.6804   25.0347 H   0  0  0  0  0  0
  -28.0701  -31.8499   26.5482 H   0  0  0  0  0  0
  -28.2569  -38.0100   24.7498 H   0  0  0  0  0  0
  -28.1103  -36.2630   24.6302 H   0  0  0  0  0  0
  -27.2290  -37.1431   25.8857 H   0  0  0  0  0  0
  -20.9466  -29.8812   21.6819 H   0  0  0  0  0  0
  -26.0172  -38.2823   24.1398 H   0  0  0  0  0  0
  -26.9325  -21.2285   19.5050 H   0  0  0  0  0  0
  -28.3876  -21.1339   18.5413 H   0  0  0  0  0  0
  -28.1956  -18.8346   18.8898 H   0  0  0  0  0  0
  -27.2475  -19.0160   20.3492 H   0  0  0  0  0  0
  -28.1952  -21.7298   21.4923 H   0  0  0  0  0  0
  -30.6856  -20.6752   20.0326 H   0  0  0  0  0  0
  -33.8821  -19.6016   25.3353 H   0  0  0  0  0  0
  -34.2407  -19.1849   23.6621 H   0  0  0  0  0  0
  -32.9990  -18.2982   24.5465 H   0  0  0  0  0  0
  -26.5010  -23.1944   21.0806 H   0  0  0  0  0  0
  -26.3172  -23.9442   19.5147 H   0  0  0  0  0  0
  -25.9039  -24.8125   21.0162 H   0  0  0  0  0  0
  -28.7055  -16.1434   20.3679 H   0  0  0  0  0  0
  -29.5629  -16.2925   21.8587 H   0  0  0  0  0  0
  -29.2116  -23.4212   19.1438 H   0  0  0  0  0  0
  -30.0353  -23.6047   20.6365 H   0  0  0  0  0  0
  -29.7916  -20.7887   22.9667 H   0  0  0  0  0  0
  -30.9527  -21.8374   22.2141 H   0  0  0  0  0  0
  -32.8496  -21.2736   23.7951 H   0  0  0  0  0  0
  -31.6287  -20.4131   24.7037 H   0  0  0  0  0  0
  -32.4493  -19.8102   21.8174 H   0  0  0  0  0  0
  -31.3069  -18.8636   22.7555 H   0  0  0  0  0  0
  -30.3358  -17.8483   19.2616 H   0  0  0  0  0  0
  -31.1673  -17.9811   20.7443 H   0  0  0  0  0  0
  -28.2230  -24.7461   21.7119 H   0  0  0  0  0  0
  -28.9415  -18.9670   21.6037 H   0  0  0  0  0  0
  1 25  1  0  0  0
  1 30  2  0  0  0
  1 77  1  0  0  0
  2  3  1  0  0  0
  2 25  1  0  0  0
  2 85  1  0  0  0
  2 86  1  0  0  0
  3  4  1  0  0  0
  3 87  1  0  0  0
  3 88  1  0  0  0
  4  5  1  0  0  0
  4 89  1  0  0  0
  4 90  1  0  0  0
  5  6  1  0  0  0
  5 26  1  0  0  0
  5 91  1  0  0  0
  6 25  1  0  0  0
  6 92  1  0  0  0
  6 93  1  0  0  0
  7  8  2  0  0  0
  7 26  1  0  0  0
  7 29  1  0  0  0
  8  9  1  0  0  0
  8 22  1  0  0  0
  9 10  1  0  0  0
  9 27  2  0  0  0
 10 11  2  0  0  0
 10 15  1  0  0  0
 11 12  1  0  0  0
 11 94  1  0  0  0
 12 13  2  0  0  0
 12 95  1  0  0  0
 13 14  1  0  0  0
 13 31  1  0  0  0
 14 15  2  0  0  0
 14 96  1  0  0  0
 15 97  1  0  0  0
 16 17  2  0  0  0
 16 21  1  0  0  0
 16 31  1  0  0  0
 17 18  1  0  0  0
 17 98  1  0  0  0
 18 19  2  0  0  0
 18 99  1  0  0  0
 19 20  1  0  0  0
 19 24  1  0  0  0
 20 21  2  0  0  0
 20100  1  0  0  0
 21 23  1  0  0  0
 22 28  1  0  0  0
 22 32  2  0  0  0
 26 27  1  0  0  0
 28101  1  0  0  0
 28102  1  0  0  0
 29103  1  0  0  0
 29104  1  0  0  0
 33 34  1  0  0  0
 33 66  1  0  0  0
 33 70  2  0  0  0
 34 36  1  0  0  0
 34 59  1  0  0  0
 34105  1  0  0  0
 35 44  2  0  0  0
 35 45  1  0  0  0
 35 68  1  0  0  0
 36 56  1  0  0  0
 36106  1  0  0  0
 37 39  1  0  0  0
 37 47  1  0  0  0
 37 66  1  0  0  0
 37107  1  0  0  0
 38 43  2  0  0  0
 38 46  1  0  0  0
 38 47  1  0  0  0
 39 64  1  0  0  0
 39 67  2  0  0  0
 40 52  1  0  0  0
 40 53  2  0  0  0
 40 58  1  0  0  0
 41108  1  0  0  0
 41109  1  0  0  0
 41110  1  0  0  0
 41 48  1  0  0  0
 42 43  1  0  0  0
 42 66  1  0  0  0
 42111  1  0  0  0
 42112  1  0  0  0
 43 44  1  0  0  0
 44113  1  0  0  0
 45 46  2  0  0  0
 45114  1  0  0  0
 46115  1  0  0  0
 47116  1  0  0  0
 47117  1  0  0  0
 48 56  1  0  0  0
 48 65  1  0  0  0
 48118  1  0  0  0
 49 50  1  0  0  0
 49 53  1  0  0  0
 49 64  1  0  0  0
 49119  1  0  0  0
 50 51  1  0  0  0
 50120  1  0  0  0
 50121  1  0  0  0
 51 52  1  0  0  0
 51122  1  0  0  0
 51123  1  0  0  0
 52124  1  0  0  0
 52125  1  0  0  0
 53 54  1  0  0  0
 54 55  2  0  0  0
 54126  1  0  0  0
 55 57  1  0  0  0
 55127  1  0  0  0
 56 69  2  0  0  0
 57 58  2  0  0  0
 57128  1  0  0  0
 58129  1  0  0  0
 59 60  1  0  0  0
 59 61  1  0  0  0
 59 62  1  0  0  0
 60130  1  0  0  0
 60131  1  0  0  0
 60132  1  0  0  0
 61133  1  0  0  0
 61134  1  0  0  0
 61135  1  0  0  0
 62136  1  0  0  0
 62137  1  0  0  0
 62138  1  0  0  0
 63 65  1  0  0  0
 63139  1  0  0  0
 63140  1  0  0  0
 63141  1  0  0  0
 64142  1  0  0  0
 65143  1  0  0  0
 68 83  1  0  0  0
 71 72  1  0  0  0
 71 73  1  0  0  0
 71144  1  0  0  0
 71145  1  0  0  0
 72 84  1  0  0  0
 72146  1  0  0  0
 72147  1  0  0  0
 73 74  1  0  0  0
 73 78  1  0  0  0
 73148  1  0  0  0
 74 79  1  0  0  0
 74 84  1  0  0  0
 74149  1  0  0  0
 75 80  1  0  0  0
 75150  1  0  0  0
 75151  1  0  0  0
 75152  1  0  0  0
 76153  1  0  0  0
 76154  1  0  0  0
 76155  1  0  0  0
 76 83  1  0  0  0
 77 82  1  0  0  0
 77156  1  0  0  0
 77157  1  0  0  0
 78 83  1  0  0  0
 78158  1  0  0  0
 78159  1  0  0  0
 79 81  1  0  0  0
 79160  1  0  0  0
 79161  1  0  0  0
 80 81  1  0  0  0
 80162  1  0  0  0
 80163  1  0  0  0
 81164  1  0  0  0
 81165  1  0  0  0
 82166  1  0  0  0
 82167  1  0  0  0
 82 84  1  0  0  0
 83168  1  0  0  0
 84169  1  0  0  0
M  CHG  1  84   1
M  ISO  4   1 100  68 101  77 100  83 101
M  END
> <chiral flag>
0

> <version>
0

> <s_m_source_file>
/data/baiqing/PycharmProjects/Reinvent-master-3.2/result/LINK_invent/BTK/process_docking_weight1_custom_sum_contain_oxygen_bond_distance_aromatic_linkinvent_7_9_3/rearranged_h_0126.sdf

> <i_m_source_file_index>
48

> <r_mmod_Potential_Energy-OPLS-2005>
470.951171875

> <r_mmod_Stretch_Energy-OPLS-2005>
249.105514526367

> <r_mmod_Bend_Energy-OPLS-2005>
282.750366210938

> <r_mmod_Torsional_Energy-OPLS-2005>
283.00439453125

> <r_mmod_Improper_Torsional_Energy-OPLS-2005>
2.84397506713867

> <r_mmod_Van_der_Waal_Energy-OPLS-2005>
111.926284790039

> <r_mmod_Electrostatic_Energy-OPLS-2005>
-207.745452880859

> <r_mmod_Solvation_Energy-OPLS-2005>
-425.056091308594

> <b_mmod_Minimization_Converged-OPLS-2005>
0

> <r_mmod_RMS_Derivative-OPLS-2005>
1.56685101985931

$$$$
48
                    3D
 Structure written by MMmdl.
166175  0  0  1  0            999 V2000
  -30.7219  -14.3982   20.5818 C   0  0  0  0  0  0
  -30.4168  -12.2640   19.4134 C   0  0  0  0  0  0
  -29.4909  -12.4973   18.2020 C   0  0  0  0  0  0
  -28.0109  -12.3698   18.6139 C   0  0  0  0  0  0
  -27.6652  -13.1989   19.8799 C   0  0  2  0  0  0
  -28.7044  -12.9521   20.9989 C   0  0  0  0  0  0
  -25.2600  -13.8147   20.5674 C   0  0  0  0  0  0
  -24.1841  -13.0434   20.9169 C   0  0  0  0  0  0
  -24.6384  -11.6899   20.8731 C   0  0  0  0  0  0
  -23.9047  -10.4291   21.0404 C   0  0  0  0  0  0
  -24.3605   -9.4209   21.9180 C   0  0  0  0  0  0
  -23.6286   -8.2242   22.0751 C   0  0  0  0  0  0
  -22.4268   -8.0279   21.3543 C   0  0  0  0  0  0
  -21.9899   -9.0251   20.4646 C   0  0  0  0  0  0
  -22.7221  -10.2133   20.3054 C   0  0  0  0  0  0
  -21.6852   -6.0736   22.5281 C   0  0  0  0  0  0
  -21.4013   -6.5640   23.8214 C   0  0  0  0  0  0
  -21.3656   -5.6792   24.9176 C   0  0  0  0  0  0
  -21.6043   -4.3055   24.7226 C   0  0  0  0  0  0
  -21.8819   -3.8147   23.4348 C   0  0  0  0  0  0
  -21.9193   -4.6964   22.3404 C   0  0  0  0  0  0
  -22.7866  -13.5242   21.1837 C   0  0  0  0  0  0
  -22.1662   -4.2150   21.0982 F   0  0  0  0  0  0
  -21.5627   -3.4539   25.7738 F   0  0  0  0  0  0
  -30.0429  -13.2326   20.4521 N   0  0  0  0  0  0
  -26.3035  -12.9305   20.3382 N   0  0  0  0  0  0
  -25.9309  -11.6472   20.5767 N   0  0  0  0  0  0
  -22.0502  -12.8244   22.0397 N   0  0  0  0  0  0
  -25.4333  -15.1864   20.4081 N   0  0  0  0  0  0
  -31.8378  -14.5991   20.0961 O   0  0  0  0  0  0
  -21.6635   -6.8876   21.4241 O   0  0  0  0  0  0
  -22.3557  -14.5552   20.6688 O   0  0  0  0  0  0
  -24.6098  -31.8710   23.2124 C   0  0  0  0  0  0
  -25.9011  -32.4837   23.8405 C   0  0  1  0  0  0
  -27.2414  -27.4769   20.0803 C   0  0  0  0  0  0
  -25.5886  -33.8635   24.2343 N   0  0  0  0  0  0
  -23.3950  -30.4941   21.5523 C   0  0  2  0  0  0
  -24.8397  -28.9607   20.1173 C   0  0  0  0  0  0
  -22.7381  -29.4670   22.5012 C   0  0  0  0  0  0
  -18.0265  -28.1372   22.8495 C   0  0  0  0  0  0
  -24.1486  -36.7325   23.2636 C   0  0  0  0  0  0
  -25.9185  -30.8476   21.3586 C   0  0  0  0  0  0
  -25.9954  -29.4832   20.7095 C   0  0  0  0  0  0
  -27.1948  -28.7452   20.6931 C   0  0  0  0  0  0
  -26.0634  -26.9493   19.5004 C   0  0  0  0  0  0
  -24.8653  -27.6896   19.5154 C   0  0  0  0  0  0
  -23.6004  -29.8239   20.1669 C   0  0  0  0  0  0
  -25.4104  -36.3124   24.0342 C   0  0  1  0  0  0
  -20.5851  -28.3651   23.1336 C   0  0  2  0  0  0
  -20.6756  -26.9393   22.5422 C   0  0  0  0  0  0
  -19.5738  -26.6384   21.5214 C   0  0  0  0  0  0
  -18.1915  -26.7919   22.1624 C   0  0  0  0  0  0
  -19.1513  -28.8828   23.2913 C   0  0  0  0  0  0
  -18.9444  -30.1435   23.8920 C   0  0  0  0  0  0
  -17.6448  -30.6582   24.0565 C   0  0  0  0  0  0
  -25.9028  -34.9486   23.5140 C   0  0  0  0  0  0
  -16.5339  -29.9087   23.6320 C   0  0  0  0  0  0
  -16.7255  -28.6502   23.0344 C   0  0  0  0  0  0
  -26.4459  -31.6602   25.0715 C   0  0  0  0  0  0
  -25.3744  -31.3694   26.1478 C   0  0  0  0  0  0
  -27.0280  -30.3053   24.6051 C   0  0  0  0  0  0
  -27.6045  -32.4312   25.7474 C   0  0  0  0  0  0
  -27.5586  -37.1813   24.8461 C   0  0  0  0  0  0
  -21.4115  -29.3025   22.3749 N   0  0  0  0  0  0
  -26.4295  -37.3803   23.9411 N   0  0  0  0  0  0
  -24.6593  -31.0846   22.1002 N   0  0  0  0  0  0
  -23.4174  -28.8216   23.3041 O   0  0  0  0  0  0
  -28.4480  -26.8181   20.0788 O   0  0  0  0  0  0
  -26.5587  -34.8933   22.4700 O   0  0  0  0  0  0
  -23.5306  -32.1444   23.7549 O   0  0  0  0  0  0
  -28.9449  -24.3000   17.4217 C   0  0  0  0  0  0
  -28.9753  -23.2115   19.6043 C   0  0  0  0  0  0
  -28.7066  -25.5397   18.0457 C   0  0  0  0  0  0
  -28.7288  -24.4481   20.2260 C   0  0  0  0  0  0
  -29.0905  -23.1305   18.1987 C   0  0  0  0  0  0
  -28.6004  -25.6136   19.4493 C   0  0  0  0  0  0
  -30.8833  -21.4080   17.8232 C   0  0  0  0  0  0
  -28.4415  -20.6821   17.9147 C   0  0  0  0  0  0
  -31.2518  -20.0628   17.1764 C   0  0  0  0  0  0
  -28.8291  -19.3386   17.2702 C   0  0  0  0  0  0
  -29.4248  -21.8074   17.5265 C   0  0  1  0  0  0
  -30.2873  -18.9323   17.5861 C   0  0  2  0  0  0
  -30.3282  -16.8190   20.8246 C   0  0  0  0  0  0
  -30.0405  -17.1880   19.3501 C   0  0  0  0  0  0
  -30.0056  -15.4149   21.0765 N   0  0  0  0  0  0
  -30.4766  -18.5573   19.0104 N   0  3  0  0  0  0
  -31.4631  -12.3506   19.1142 H   0  0  0  0  0  0
  -30.3013  -11.2477   19.7938 H   0  0  0  0  0  0
  -29.7202  -11.7817   17.4112 H   0  0  0  0  0  0
  -29.6729  -13.4870   17.7802 H   0  0  0  0  0  0
  -27.8103  -11.3138   18.7986 H   0  0  0  0  0  0
  -27.3630  -12.6597   17.7858 H   0  0  0  0  0  0
  -27.7187  -14.2499   19.5956 H   0  0  0  0  0  0
  -28.6618  -11.9137   21.3317 H   0  0  0  0  0  0
  -28.4774  -13.5481   21.8839 H   0  0  0  0  0  0
  -25.2753   -9.5688   22.4750 H   0  0  0  0  0  0
  -24.0001   -7.4634   22.7468 H   0  0  0  0  0  0
  -21.0830   -8.8767   19.8954 H   0  0  0  0  0  0
  -22.3678  -10.9670   19.6163 H   0  0  0  0  0  0
  -21.2007   -7.6148   23.9718 H   0  0  0  0  0  0
  -21.1476   -6.0522   25.9079 H   0  0  0  0  0  0
  -22.0601   -2.7610   23.2847 H   0  0  0  0  0  0
  -22.4109  -11.9904   22.4792 H   0  0  0  0  0  0
  -21.1121  -13.1278   22.2598 H   0  0  0  0  0  0
  -24.6668  -15.8421   20.5145 H   0  0  0  0  0  0
  -26.2873  -15.6254   20.0893 H   0  0  0  0  0  0
  -26.7083  -32.5562   23.1177 H   0  0  0  0  0  0
  -25.0051  -33.9801   25.0498 H   0  0  0  0  0  0
  -22.6815  -31.3092   21.4146 H   0  0  0  0  0  0
  -23.3742  -35.9665   23.3313 H   0  0  0  0  0  0
  -24.3585  -36.8921   22.2048 H   0  0  0  0  0  0
  -23.7246  -37.6541   23.6633 H   0  0  0  0  0  0
  -26.0228  -31.6130   20.5883 H   0  0  0  0  0  0
  -26.8099  -30.9042   21.9713 H   0  0  0  0  0  0
  -28.0913  -29.1489   21.1429 H   0  0  0  0  0  0
  -26.0610  -25.9756   19.0317 H   0  0  0  0  0  0
  -23.9739  -27.2779   19.0624 H   0  0  0  0  0  0
  -23.7057  -30.5975   19.4054 H   0  0  0  0  0  0
  -22.7252  -29.2411   19.8736 H   0  0  0  0  0  0
  -25.1278  -36.1997   25.0835 H   0  0  0  0  0  0
  -20.9942  -28.3211   24.1456 H   0  0  0  0  0  0
  -20.5662  -26.2256   23.3601 H   0  0  0  0  0  0
  -21.6629  -26.7445   22.1213 H   0  0  0  0  0  0
  -19.6901  -25.6301   21.1228 H   0  0  0  0  0  0
  -19.6681  -27.3208   20.6755 H   0  0  0  0  0  0
  -17.4187  -26.6670   21.4024 H   0  0  0  0  0  0
  -18.0316  -26.0057   22.9016 H   0  0  0  0  0  0
  -19.7922  -30.7242   24.2304 H   0  0  0  0  0  0
  -17.5007  -31.6265   24.5161 H   0  0  0  0  0  0
  -15.5342  -30.2999   23.7630 H   0  0  0  0  0  0
  -15.8654  -28.0831   22.7046 H   0  0  0  0  0  0
  -24.5907  -30.7050   25.7821 H   0  0  0  0  0  0
  -24.8947  -32.2845   26.4958 H   0  0  0  0  0  0
  -25.8115  -30.8843   27.0214 H   0  0  0  0  0  0
  -26.2806  -29.6829   24.1112 H   0  0  0  0  0  0
  -27.4079  -29.7268   25.4484 H   0  0  0  0  0  0
  -27.8629  -30.4391   23.9166 H   0  0  0  0  0  0
  -27.2662  -33.3582   26.2118 H   0  0  0  0  0  0
  -28.3818  -32.6924   25.0279 H   0  0  0  0  0  0
  -28.0756  -31.8398   26.5336 H   0  0  0  0  0  0
  -28.2600  -38.0114   24.7522 H   0  0  0  0  0  0
  -28.1085  -36.2648   24.6266 H   0  0  0  0  0  0
  -27.2308  -37.1442   25.8865 H   0  0  0  0  0  0
  -20.9267  -29.8749   21.6981 H   0  0  0  0  0  0
  -26.0190  -38.2884   24.1413 H   0  0  0  0  0  0
  -29.0404  -24.2591   16.3455 H   0  0  0  0  0  0
  -29.0983  -22.3327   20.2209 H   0  0  0  0  0  0
  -28.6210  -26.4371   17.4490 H   0  0  0  0  0  0
  -28.6621  -24.5074   21.3032 H   0  0  0  0  0  0
  -31.5567  -22.1831   17.4543 H   0  0  0  0  0  0
  -31.0495  -21.3568   18.8997 H   0  0  0  0  0  0
  -28.3997  -20.5586   18.9962 H   0  0  0  0  0  0
  -27.4319  -20.9574   17.6063 H   0  0  0  0  0  0
  -32.2824  -19.7975   17.4158 H   0  0  0  0  0  0
  -31.2220  -20.1753   16.0915 H   0  0  0  0  0  0
  -28.7176  -19.4262   16.1884 H   0  0  0  0  0  0
  -28.1279  -18.5605   17.5718 H   0  0  0  0  0  0
  -29.3375  -21.9534   16.4480 H   0  0  0  0  0  0
  -30.5420  -18.0632   16.9761 H   0  0  0  0  0  0
  -29.7315  -17.4405   21.4934 H   0  0  0  0  0  0
  -31.3742  -17.0058   21.0761 H   0  0  0  0  0  0
  -28.9738  -17.0812   19.1502 H   0  0  0  0  0  0
  -30.5524  -16.4969   18.6790 H   0  0  0  0  0  0
  -29.0990  -15.1979   21.4639 H   0  0  0  0  0  0
  -30.0135  -19.2225   19.6078 H   0  0  0  0  0  0
  -31.4638  -18.6071   19.2074 H   0  0  0  0  0  0
  1 25  1  0  0  0
  1 30  2  0  0  0
  1 85  1  0  0  0
  2  3  1  0  0  0
  2 25  1  0  0  0
  2 87  1  0  0  0
  2 88  1  0  0  0
  3  4  1  0  0  0
  3 89  1  0  0  0
  3 90  1  0  0  0
  4  5  1  0  0  0
  4 91  1  0  0  0
  4 92  1  0  0  0
  5  6  1  0  0  0
  5 26  1  0  0  0
  5 93  1  0  0  0
  6 25  1  0  0  0
  6 94  1  0  0  0
  6 95  1  0  0  0
  7  8  2  0  0  0
  7 26  1  0  0  0
  7 29  1  0  0  0
  8  9  1  0  0  0
  8 22  1  0  0  0
  9 10  1  0  0  0
  9 27  2  0  0  0
 10 11  2  0  0  0
 10 15  1  0  0  0
 11 12  1  0  0  0
 11 96  1  0  0  0
 12 13  2  0  0  0
 12 97  1  0  0  0
 13 14  1  0  0  0
 13 31  1  0  0  0
 14 15  2  0  0  0
 14 98  1  0  0  0
 15 99  1  0  0  0
 16 17  2  0  0  0
 16 21  1  0  0  0
 16 31  1  0  0  0
 17 18  1  0  0  0
 17100  1  0  0  0
 18 19  2  0  0  0
 18101  1  0  0  0
 19 20  1  0  0  0
 19 24  1  0  0  0
 20 21  2  0  0  0
 20102  1  0  0  0
 21 23  1  0  0  0
 22 28  1  0  0  0
 22 32  2  0  0  0
 26 27  1  0  0  0
 28103  1  0  0  0
 28104  1  0  0  0
 29105  1  0  0  0
 29106  1  0  0  0
 33 34  1  0  0  0
 33 66  1  0  0  0
 33 70  2  0  0  0
 34 36  1  0  0  0
 34 59  1  0  0  0
 34107  1  0  0  0
 35 44  2  0  0  0
 35 45  1  0  0  0
 35 68  1  0  0  0
 36 56  1  0  0  0
 36108  1  0  0  0
 37 39  1  0  0  0
 37 47  1  0  0  0
 37 66  1  0  0  0
 37109  1  0  0  0
 38 43  2  0  0  0
 38 46  1  0  0  0
 38 47  1  0  0  0
 39 64  1  0  0  0
 39 67  2  0  0  0
 40 52  1  0  0  0
 40 53  2  0  0  0
 40 58  1  0  0  0
 41110  1  0  0  0
 41111  1  0  0  0
 41112  1  0  0  0
 41 48  1  0  0  0
 42 43  1  0  0  0
 42 66  1  0  0  0
 42113  1  0  0  0
 42114  1  0  0  0
 43 44  1  0  0  0
 44115  1  0  0  0
 45 46  2  0  0  0
 45116  1  0  0  0
 46117  1  0  0  0
 47118  1  0  0  0
 47119  1  0  0  0
 48 56  1  0  0  0
 48 65  1  0  0  0
 48120  1  0  0  0
 49 50  1  0  0  0
 49 53  1  0  0  0
 49 64  1  0  0  0
 49121  1  0  0  0
 50 51  1  0  0  0
 50122  1  0  0  0
 50123  1  0  0  0
 51 52  1  0  0  0
 51124  1  0  0  0
 51125  1  0  0  0
 52126  1  0  0  0
 52127  1  0  0  0
 53 54  1  0  0  0
 54 55  2  0  0  0
 54128  1  0  0  0
 55 57  1  0  0  0
 55129  1  0  0  0
 56 69  2  0  0  0
 57 58  2  0  0  0
 57130  1  0  0  0
 58131  1  0  0  0
 59 60  1  0  0  0
 59 61  1  0  0  0
 59 62  1  0  0  0
 60132  1  0  0  0
 60133  1  0  0  0
 60134  1  0  0  0
 61135  1  0  0  0
 61136  1  0  0  0
 61137  1  0  0  0
 62138  1  0  0  0
 62139  1  0  0  0
 62140  1  0  0  0
 63 65  1  0  0  0
 63141  1  0  0  0
 63142  1  0  0  0
 63143  1  0  0  0
 64144  1  0  0  0
 65145  1  0  0  0
 68 76  1  0  0  0
 71 73  2  0  0  0
 71 75  1  0  0  0
 71146  1  0  0  0
 72 74  1  0  0  0
 72 75  2  0  0  0
 72147  1  0  0  0
 73 76  1  0  0  0
 73148  1  0  0  0
 74 76  2  0  0  0
 74149  1  0  0  0
 75 81  1  0  0  0
 77 79  1  0  0  0
 77 81  1  0  0  0
 77150  1  0  0  0
 77151  1  0  0  0
 78 80  1  0  0  0
 78 81  1  0  0  0
 78152  1  0  0  0
 78153  1  0  0  0
 79 82  1  0  0  0
 79154  1  0  0  0
 79155  1  0  0  0
 80 82  1  0  0  0
 80156  1  0  0  0
 80157  1  0  0  0
 81158  1  0  0  0
 82 86  1  0  0  0
 82159  1  0  0  0
 83 84  1  0  0  0
 83 85  1  0  0  0
 83160  1  0  0  0
 83161  1  0  0  0
 84 86  1  0  0  0
 84162  1  0  0  0
 84163  1  0  0  0
 85164  1  0  0  0
 86165  1  0  0  0
 86166  1  0  0  0
M  CHG  1  86   1
M  ISO  4   1 100  68 101  76 101  85 100
M  END
> <chiral flag>
0

> <version>
0

> <s_m_source_file>
/data/baiqing/PycharmProjects/Reinvent-master-3.2/result/LINK_invent/BTK/process_docking_weight1_custom_sum_contain_oxygen_bond_distance_aromatic_linkinvent_7_9_3/rearranged_h_0126.sdf

> <i_m_source_file_index>
49

> <r_mmod_Potential_Energy-OPLS-2005>
-243.164306640625

> <r_mmod_Stretch_Energy-OPLS-2005>
31.4788417816162

> <r_mmod_Bend_Energy-OPLS-2005>
90.0401611328125

> <r_mmod_Torsional_Energy-OPLS-2005>
236.056091308594

> <r_mmod_Improper_Torsional_Energy-OPLS-2005>
5.83043575286865

> <r_mmod_Van_der_Waal_Energy-OPLS-2005>
158.621780395508

> <r_mmod_Electrostatic_Energy-OPLS-2005>
-317.882659912109

> <r_mmod_Solvation_Energy-OPLS-2005>
-456.878662109375

> <b_mmod_Minimization_Converged-OPLS-2005>
0

> <r_mmod_RMS_Derivative-OPLS-2005>
0.359699219465256

$$$$
49
                    3D
 Structure written by MMmdl.
155163  0  0  1  0            999 V2000
  -30.6398  -14.6338   20.5021 C   0  0  0  0  0  0
  -30.4405  -12.3875   19.4471 C   0  0  0  0  0  0
  -29.5035  -12.5030   18.2239 C   0  0  0  0  0  0
  -28.0301  -12.3333   18.6431 C   0  0  0  0  0  0
  -27.6564  -13.2116   19.8661 C   0  0  2  0  0  0
  -28.7050  -13.0674   20.9931 C   0  0  0  0  0  0
  -25.2579  -13.8164   20.5697 C   0  0  0  0  0  0
  -24.1837  -13.0434   20.9178 C   0  0  0  0  0  0
  -24.6406  -11.6904   20.8744 C   0  0  0  0  0  0
  -23.9076  -10.4288   21.0414 C   0  0  0  0  0  0
  -24.3625   -9.4202   21.9190 C   0  0  0  0  0  0
  -23.6297   -8.2241   22.0760 C   0  0  0  0  0  0
  -22.4278   -8.0285   21.3551 C   0  0  0  0  0  0
  -21.9922   -9.0259   20.4648 C   0  0  0  0  0  0
  -22.7252  -10.2133   20.3059 C   0  0  0  0  0  0
  -21.6847   -6.0750   22.5282 C   0  0  0  0  0  0
  -21.4011   -6.5648   23.8221 C   0  0  0  0  0  0
  -21.3657   -5.6793   24.9176 C   0  0  0  0  0  0
  -21.6044   -4.3060   24.7219 C   0  0  0  0  0  0
  -21.8819   -3.8157   23.4337 C   0  0  0  0  0  0
  -21.9192   -4.6977   22.3398 C   0  0  0  0  0  0
  -22.7861  -13.5240   21.1835 C   0  0  0  0  0  0
  -22.1658   -4.2171   21.0975 F   0  0  0  0  0  0
  -21.5630   -3.4539   25.7727 F   0  0  0  0  0  0
  -30.0223  -13.4088   20.4282 N   0  0  0  0  0  0
  -26.3014  -12.9341   20.3358 N   0  0  0  0  0  0
  -25.9342  -11.6504   20.5794 N   0  0  0  0  0  0
  -22.0489  -12.8234   22.0380 N   0  0  0  0  0  0
  -25.4268  -15.1893   20.4125 N   0  0  0  0  0  0
  -31.7996  -14.7813   20.1007 O   0  0  0  0  0  0
  -21.6631   -6.8891   21.4249 O   0  0  0  0  0  0
  -22.3552  -14.5551   20.6689 O   0  0  0  0  0  0
  -24.6250  -31.8586   23.2022 C   0  0  0  0  0  0
  -25.9096  -32.4774   23.8362 C   0  0  1  0  0  0
  -27.2337  -27.3246   20.0993 C   0  0  0  0  0  0
  -25.5907  -33.8583   24.2270 N   0  0  0  0  0  0
  -23.4199  -30.4825   21.5435 C   0  0  2  0  0  0
  -24.8692  -28.9399   20.1072 C   0  0  0  0  0  0
  -22.7488  -29.4608   22.4926 C   0  0  0  0  0  0
  -18.0285  -28.1378   22.8480 C   0  0  0  0  0  0
  -24.1475  -36.7273   23.2647 C   0  0  0  0  0  0
  -25.9647  -30.7854   21.3826 C   0  0  0  0  0  0
  -26.0372  -29.4169   20.7162 C   0  0  0  0  0  0
  -27.2186  -28.6199   20.7042 C   0  0  0  0  0  0
  -26.0427  -26.9049   19.4594 C   0  0  0  0  0  0
  -24.8759  -27.6911   19.4687 C   0  0  0  0  0  0
  -23.6369  -29.8183   20.1581 C   0  0  0  0  0  0
  -25.4101  -36.3071   24.0334 C   0  0  1  0  0  0
  -20.5884  -28.3674   23.1275 C   0  0  2  0  0  0
  -20.6760  -26.9399   22.5400 C   0  0  0  0  0  0
  -19.5730  -26.6373   21.5206 C   0  0  0  0  0  0
  -18.1909  -26.7921   22.1618 C   0  0  0  0  0  0
  -19.1548  -28.8846   23.2869 C   0  0  0  0  0  0
  -18.9478  -30.1452   23.8879 C   0  0  0  0  0  0
  -17.6479  -30.6582   24.0565 C   0  0  0  0  0  0
  -25.9056  -34.9447   23.5099 C   0  0  0  0  0  0
  -16.5365  -29.9077   23.6350 C   0  0  0  0  0  0
  -16.7276  -28.6508   23.0343 C   0  0  0  0  0  0
  -26.4484  -31.6611   25.0756 C   0  0  0  0  0  0
  -25.3718  -31.3716   26.1485 C   0  0  0  0  0  0
  -27.0378  -30.3041   24.6246 C   0  0  0  0  0  0
  -27.6046  -32.4377   25.7490 C   0  0  0  0  0  0
  -27.5585  -37.1758   24.8447 C   0  0  0  0  0  0
  -21.4198  -29.3040   22.3690 N   0  0  0  0  0  0
  -26.4252  -37.3789   23.9455 N   0  0  0  0  0  0
  -24.6878  -31.0593   22.0983 N   0  0  0  0  0  0
  -23.4221  -28.8134   23.2990 O   0  0  0  0  0  0
  -28.3649  -26.4927   20.1502 O   0  0  0  0  0  0
  -26.5651  -34.8918   22.4681 O   0  0  0  0  0  0
  -23.5410  -32.1384   23.7344 O   0  0  0  0  0  0
  -28.8705  -19.2806   21.4581 C   0  0  0  0  0  0
  -28.8943  -17.8575   21.4469 C   0  0  0  0  0  0
  -30.8771  -19.2274   20.1897 C   0  0  0  0  0  0
  -29.8898  -20.0317   20.8266 C   0  0  0  0  0  0
  -29.9366  -17.1299   20.8175 C   0  0  0  0  0  0
  -31.4953  -22.0379   21.1197 C   0  0  0  0  0  0
  -29.3198  -24.0604   20.4776 C   0  0  0  0  0  0
  -28.2249  -25.0421   19.8718 C   0  0  0  0  0  0
  -30.0133  -21.6035   21.0337 C   0  0  1  0  0  0
  -30.9010  -17.8536   20.1829 N   0  0  0  0  0  0
  -29.8451  -15.6742   20.9066 N   0  0  0  0  0  0
  -29.2030  -22.5628   20.1679 N   0  3  0  0  0  0
  -31.4796  -12.5102   19.1371 H   0  0  0  0  0  0
  -30.3787  -11.3904   19.8873 H   0  0  0  0  0  0
  -29.7652  -11.7543   17.4760 H   0  0  0  0  0  0
  -29.6375  -13.4744   17.7449 H   0  0  0  0  0  0
  -27.8760  -11.2813   18.8850 H   0  0  0  0  0  0
  -27.3681  -12.5507   17.8038 H   0  0  0  0  0  0
  -27.6760  -14.2453   19.5200 H   0  0  0  0  0  0
  -28.7165  -12.0453   21.3743 H   0  0  0  0  0  0
  -28.4517  -13.6961   21.8479 H   0  0  0  0  0  0
  -25.2779   -9.5677   22.4758 H   0  0  0  0  0  0
  -24.0008   -7.4640   22.7490 H   0  0  0  0  0  0
  -21.0851   -8.8788   19.8949 H   0  0  0  0  0  0
  -22.3731  -10.9677   19.6161 H   0  0  0  0  0  0
  -21.1998   -7.6156   23.9738 H   0  0  0  0  0  0
  -21.1476   -6.0514   25.9084 H   0  0  0  0  0  0
  -22.0597   -2.7623   23.2826 H   0  0  0  0  0  0
  -22.4084  -11.9873   22.4747 H   0  0  0  0  0  0
  -21.1115  -13.1283   22.2601 H   0  0  0  0  0  0
  -24.6500  -15.8337   20.5170 H   0  0  0  0  0  0
  -26.2717  -15.6414   20.0880 H   0  0  0  0  0  0
  -26.7181  -32.5432   23.1122 H   0  0  0  0  0  0
  -25.0041  -33.9735   25.0404 H   0  0  0  0  0  0
  -22.7134  -31.3033   21.3998 H   0  0  0  0  0  0
  -23.3773  -35.9564   23.3242 H   0  0  0  0  0  0
  -24.3599  -36.8947   22.2079 H   0  0  0  0  0  0
  -23.7172  -37.6428   23.6718 H   0  0  0  0  0  0
  -26.1134  -31.5545   20.6236 H   0  0  0  0  0  0
  -26.8385  -30.8192   22.0232 H   0  0  0  0  0  0
  -28.1147  -28.9792   21.1895 H   0  0  0  0  0  0
  -25.9852  -25.9580   18.9431 H   0  0  0  0  0  0
  -23.9857  -27.3261   18.9745 H   0  0  0  0  0  0
  -23.7533  -30.5963   19.4028 H   0  0  0  0  0  0
  -22.7580  -29.2474   19.8533 H   0  0  0  0  0  0
  -25.1257  -36.1902   25.0818 H   0  0  0  0  0  0
  -20.9984  -28.3245   24.1388 H   0  0  0  0  0  0
  -20.5646  -26.2290   23.3601 H   0  0  0  0  0  0
  -21.6621  -26.7402   22.1198 H   0  0  0  0  0  0
  -19.6886  -25.6290   21.1224 H   0  0  0  0  0  0
  -19.6658  -27.3204   20.6752 H   0  0  0  0  0  0
  -17.4181  -26.6707   21.4019 H   0  0  0  0  0  0
  -18.0287  -26.0050   22.8988 H   0  0  0  0  0  0
  -19.7972  -30.7283   24.2211 H   0  0  0  0  0  0
  -17.5043  -31.6261   24.5173 H   0  0  0  0  0  0
  -15.5369  -30.2974   23.7688 H   0  0  0  0  0  0
  -15.8671  -28.0842   22.7032 H   0  0  0  0  0  0
  -24.5887  -30.7073   25.7801 H   0  0  0  0  0  0
  -24.8929  -32.2872   26.4980 H   0  0  0  0  0  0
  -25.8041  -30.8845   27.0234 H   0  0  0  0  0  0
  -26.2983  -29.6751   24.1280 H   0  0  0  0  0  0
  -27.4093  -29.7336   25.4771 H   0  0  0  0  0  0
  -27.8817  -30.4351   23.9471 H   0  0  0  0  0  0
  -27.2670  -33.3691   26.2047 H   0  0  0  0  0  0
  -28.3826  -32.6923   25.0282 H   0  0  0  0  0  0
  -28.0756  -31.8541   26.5408 H   0  0  0  0  0  0
  -28.2486  -38.0166   24.7676 H   0  0  0  0  0  0
  -28.1183  -36.2719   24.6017 H   0  0  0  0  0  0
  -27.2355  -37.1080   25.8847 H   0  0  0  0  0  0
  -20.9386  -29.8791   21.6915 H   0  0  0  0  0  0
  -26.0114  -38.2819   24.1589 H   0  0  0  0  0  0
  -28.0854  -19.7873   22.0006 H   0  0  0  0  0  0
  -28.1042  -17.3286   21.9617 H   0  0  0  0  0  0
  -31.7229  -19.6928   19.7064 H   0  0  0  0  0  0
  -32.0458  -21.4129   21.8231 H   0  0  0  0  0  0
  -31.6053  -23.0606   21.4807 H   0  0  0  0  0  0
  -31.9986  -21.9737   20.1560 H   0  0  0  0  0  0
  -29.3151  -24.1896   21.5608 H   0  0  0  0  0  0
  -30.2959  -24.4015   20.1323 H   0  0  0  0  0  0
  -27.2621  -24.6957   20.2480 H   0  0  0  0  0  0
  -28.2001  -24.9133   18.7880 H   0  0  0  0  0  0
  -29.6157  -21.7630   22.0376 H   0  0  0  0  0  0
  -28.9649  -15.3477   21.2699 H   0  0  0  0  0  0
  -29.4558  -22.4193   19.2020 H   0  0  0  0  0  0
  -28.2341  -22.2951   20.2510 H   0  0  0  0  0  0
  1 25  1  0  0  0
  1 30  2  0  0  0
  1 81  1  0  0  0
  2  3  1  0  0  0
  2 25  1  0  0  0
  2 83  1  0  0  0
  2 84  1  0  0  0
  3  4  1  0  0  0
  3 85  1  0  0  0
  3 86  1  0  0  0
  4  5  1  0  0  0
  4 87  1  0  0  0
  4 88  1  0  0  0
  5  6  1  0  0  0
  5 26  1  0  0  0
  5 89  1  0  0  0
  6 25  1  0  0  0
  6 90  1  0  0  0
  6 91  1  0  0  0
  7  8  2  0  0  0
  7 26  1  0  0  0
  7 29  1  0  0  0
  8  9  1  0  0  0
  8 22  1  0  0  0
  9 10  1  0  0  0
  9 27  2  0  0  0
 10 11  2  0  0  0
 10 15  1  0  0  0
 11 12  1  0  0  0
 11 92  1  0  0  0
 12 13  2  0  0  0
 12 93  1  0  0  0
 13 14  1  0  0  0
 13 31  1  0  0  0
 14 15  2  0  0  0
 14 94  1  0  0  0
 15 95  1  0  0  0
 16 17  2  0  0  0
 16 21  1  0  0  0
 16 31  1  0  0  0
 17 18  1  0  0  0
 17 96  1  0  0  0
 18 19  2  0  0  0
 18 97  1  0  0  0
 19 20  1  0  0  0
 19 24  1  0  0  0
 20 21  2  0  0  0
 20 98  1  0  0  0
 21 23  1  0  0  0
 22 28  1  0  0  0
 22 32  2  0  0  0
 26 27  1  0  0  0
 28 99  1  0  0  0
 28100  1  0  0  0
 29101  1  0  0  0
 29102  1  0  0  0
 33 34  1  0  0  0
 33 66  1  0  0  0
 33 70  2  0  0  0
 34 36  1  0  0  0
 34 59  1  0  0  0
 34103  1  0  0  0
 35 44  2  0  0  0
 35 45  1  0  0  0
 35 68  1  0  0  0
 36 56  1  0  0  0
 36104  1  0  0  0
 37 39  1  0  0  0
 37 47  1  0  0  0
 37 66  1  0  0  0
 37105  1  0  0  0
 38 43  2  0  0  0
 38 46  1  0  0  0
 38 47  1  0  0  0
 39 64  1  0  0  0
 39 67  2  0  0  0
 40 52  1  0  0  0
 40 53  2  0  0  0
 40 58  1  0  0  0
 41106  1  0  0  0
 41107  1  0  0  0
 41108  1  0  0  0
 41 48  1  0  0  0
 42 43  1  0  0  0
 42 66  1  0  0  0
 42109  1  0  0  0
 42110  1  0  0  0
 43 44  1  0  0  0
 44111  1  0  0  0
 45 46  2  0  0  0
 45112  1  0  0  0
 46113  1  0  0  0
 47114  1  0  0  0
 47115  1  0  0  0
 48 56  1  0  0  0
 48 65  1  0  0  0
 48116  1  0  0  0
 49 50  1  0  0  0
 49 53  1  0  0  0
 49 64  1  0  0  0
 49117  1  0  0  0
 50 51  1  0  0  0
 50118  1  0  0  0
 50119  1  0  0  0
 51 52  1  0  0  0
 51120  1  0  0  0
 51121  1  0  0  0
 52122  1  0  0  0
 52123  1  0  0  0
 53 54  1  0  0  0
 54 55  2  0  0  0
 54124  1  0  0  0
 55 57  1  0  0  0
 55125  1  0  0  0
 56 69  2  0  0  0
 57 58  2  0  0  0
 57126  1  0  0  0
 58127  1  0  0  0
 59 60  1  0  0  0
 59 61  1  0  0  0
 59 62  1  0  0  0
 60128  1  0  0  0
 60129  1  0  0  0
 60130  1  0  0  0
 61131  1  0  0  0
 61132  1  0  0  0
 61133  1  0  0  0
 62134  1  0  0  0
 62135  1  0  0  0
 62136  1  0  0  0
 63 65  1  0  0  0
 63137  1  0  0  0
 63138  1  0  0  0
 63139  1  0  0  0
 64140  1  0  0  0
 65141  1  0  0  0
 68 78  1  0  0  0
 71 72  2  0  0  0
 71 74  1  0  0  0
 71142  1  0  0  0
 72 75  1  0  0  0
 72143  1  0  0  0
 73 74  2  0  0  0
 73 80  1  0  0  0
 73144  1  0  0  0
 74 79  1  0  0  0
 75 80  2  0  0  0
 75 81  1  0  0  0
 76145  1  0  0  0
 76146  1  0  0  0
 76147  1  0  0  0
 76 79  1  0  0  0
 77 78  1  0  0  0
 77 82  1  0  0  0
 77148  1  0  0  0
 77149  1  0  0  0
 78150  1  0  0  0
 78151  1  0  0  0
 79 82  1  0  0  0
 79152  1  0  0  0
 81153  1  0  0  0
 82154  1  0  0  0
 82155  1  0  0  0
M  CHG  1  82   1
M  ISO  4   1 100  68 101  78 101  81 100
M  END
> <chiral flag>
0

> <version>
0

> <s_m_source_file>
/data/baiqing/PycharmProjects/Reinvent-master-3.2/result/LINK_invent/BTK/process_docking_weight1_custom_sum_contain_oxygen_bond_distance_aromatic_linkinvent_7_9_3/rearranged_h_0126.sdf

> <i_m_source_file_index>
50

> <r_mmod_Potential_Energy-OPLS-2005>
-224.531799316406

> <r_mmod_Stretch_Energy-OPLS-2005>
83.7063827514648

> <r_mmod_Bend_Energy-OPLS-2005>
147.271682739258

> <r_mmod_Torsional_Energy-OPLS-2005>
197.001846313477

> <r_mmod_Improper_Torsional_Energy-OPLS-2005>
4.46328973770142

> <r_mmod_Van_der_Waal_Energy-OPLS-2005>
147.992568969727

> <r_mmod_Electrostatic_Energy-OPLS-2005>
-358.856079101562

> <r_mmod_Solvation_Energy-OPLS-2005>
-491.313720703125

> <b_mmod_Minimization_Converged-OPLS-2005>
0

> <r_mmod_RMS_Derivative-OPLS-2005>
2.34265732765198

$$$$
50
                    3D
 Structure written by MMmdl.
163171  0  0  1  0            999 V2000
  -30.6610  -14.4809   20.6041 C   0  0  0  0  0  0
  -30.4419  -12.3161   19.4263 C   0  0  0  0  0  0
  -29.5061  -12.5205   18.2138 C   0  0  0  0  0  0
  -28.0251  -12.3760   18.6197 C   0  0  0  0  0  0
  -27.6719  -13.1973   19.8876 C   0  0  2  0  0  0
  -28.7098  -12.9368   21.0044 C   0  0  0  0  0  0
  -25.2637  -13.8132   20.5664 C   0  0  0  0  0  0
  -24.1864  -13.0431   20.9149 C   0  0  0  0  0  0
  -24.6402  -11.6893   20.8715 C   0  0  0  0  0  0
  -23.9054  -10.4291   21.0392 C   0  0  0  0  0  0
  -24.3605   -9.4212   21.9179 C   0  0  0  0  0  0
  -23.6292   -8.2241   22.0753 C   0  0  0  0  0  0
  -22.4275   -8.0271   21.3541 C   0  0  0  0  0  0
  -21.9901   -9.0241   20.4642 C   0  0  0  0  0  0
  -22.7222  -10.2125   20.3047 C   0  0  0  0  0  0
  -21.6850   -6.0731   22.5284 C   0  0  0  0  0  0
  -21.4007   -6.5640   23.8215 C   0  0  0  0  0  0
  -21.3660   -5.6796   24.9178 C   0  0  0  0  0  0
  -21.6043   -4.3058   24.7232 C   0  0  0  0  0  0
  -21.8821   -3.8147   23.4356 C   0  0  0  0  0  0
  -21.9194   -4.6959   22.3409 C   0  0  0  0  0  0
  -22.7894  -13.5243   21.1825 C   0  0  0  0  0  0
  -22.1666   -4.2141   21.0988 F   0  0  0  0  0  0
  -21.5630   -3.4544   25.7747 F   0  0  0  0  0  0
  -30.0479  -13.2707   20.4749 N   0  0  0  0  0  0
  -26.3076  -12.9285   20.3394 N   0  0  0  0  0  0
  -25.9329  -11.6451   20.5754 N   0  0  0  0  0  0
  -22.0531  -12.8232   22.0377 N   0  0  0  0  0  0
  -25.4388  -15.1847   20.4071 N   0  0  0  0  0  0
  -31.7241  -14.7660   20.0442 O   0  0  0  0  0  0
  -21.6640   -6.8869   21.4242 O   0  0  0  0  0  0
  -22.3585  -14.5556   20.6689 O   0  0  0  0  0  0
  -24.6162  -31.8662   23.2091 C   0  0  0  0  0  0
  -25.9054  -32.4810   23.8393 C   0  0  1  0  0  0
  -27.2378  -27.4287   20.1019 C   0  0  0  0  0  0
  -25.5906  -33.8607   24.2328 N   0  0  0  0  0  0
  -23.4047  -30.4884   21.5496 C   0  0  2  0  0  0
  -24.8539  -28.9500   20.1165 C   0  0  0  0  0  0
  -22.7419  -29.4654   22.4996 C   0  0  0  0  0  0
  -18.0272  -28.1382   22.8496 C   0  0  0  0  0  0
  -24.1478  -36.7299   23.2643 C   0  0  0  0  0  0
  -25.9340  -30.8304   21.3623 C   0  0  0  0  0  0
  -26.0143  -29.4632   20.7118 C   0  0  0  0  0  0
  -27.2126  -28.7110   20.6985 C   0  0  0  0  0  0
  -26.0639  -26.9269   19.5047 C   0  0  0  0  0  0
  -24.8739  -27.6819   19.5083 C   0  0  0  0  0  0
  -23.6147  -29.8169   20.1651 C   0  0  0  0  0  0
  -25.4102  -36.3099   24.0343 C   0  0  1  0  0  0
  -20.5864  -28.3666   23.1325 C   0  0  2  0  0  0
  -20.6763  -26.9402   22.5424 C   0  0  0  0  0  0
  -19.5743  -26.6388   21.5221 C   0  0  0  0  0  0
  -18.1919  -26.7932   22.1626 C   0  0  0  0  0  0
  -19.1521  -28.8842   23.2904 C   0  0  0  0  0  0
  -18.9452  -30.1452   23.8909 C   0  0  0  0  0  0
  -17.6454  -30.6588   24.0570 C   0  0  0  0  0  0
  -25.9033  -34.9471   23.5131 C   0  0  0  0  0  0
  -16.5341  -29.9091   23.6336 C   0  0  0  0  0  0
  -16.7261  -28.6509   23.0350 C   0  0  0  0  0  0
  -26.4487  -31.6590   25.0721 C   0  0  0  0  0  0
  -25.3760  -31.3687   26.1472 C   0  0  0  0  0  0
  -27.0321  -30.3035   24.6090 C   0  0  0  0  0  0
  -27.6065  -32.4307   25.7475 C   0  0  0  0  0  0
  -27.5570  -37.1800   24.8472 C   0  0  0  0  0  0
  -21.4145  -29.3027   22.3733 N   0  0  0  0  0  0
  -26.4282  -37.3788   23.9417 N   0  0  0  0  0  0
  -24.6698  -31.0760   22.0990 N   0  0  0  0  0  0
  -23.4186  -28.8206   23.3049 O   0  0  0  0  0  0
  -28.3883  -26.6702   20.0781 O   0  0  0  0  0  0
  -26.5588  -34.8926   22.4686 O   0  0  0  0  0  0
  -23.5354  -32.1410   23.7489 O   0  0  0  0  0  0
  -30.5768  -19.9860   22.2406 C   0  0  0  0  0  0
  -30.2006  -21.3403   22.3465 C   0  0  0  0  0  0
  -29.5420  -21.3441   20.0208 C   0  0  0  0  0  0
  -30.4380  -19.2761   21.0272 C   0  0  0  0  0  0
  -29.9110  -19.9738   19.8983 C   0  0  0  0  0  0
  -29.6762  -22.0430   21.2453 C   0  0  0  0  0  0
  -30.4569  -19.9981   17.4139 C   0  0  0  0  0  0
  -28.2043  -19.1460   18.2278 C   0  0  0  0  0  0
  -30.8702  -17.7924   21.0081 C   0  0  0  0  0  0
  -29.6764  -16.8073   21.0018 C   0  0  0  0  0  0
  -28.3939  -25.5571   20.9912 C   0  0  0  0  0  0
  -28.8975  -24.2154   20.3895 C   0  0  0  0  0  0
  -29.7014  -19.2861   18.5471 C   0  0  0  0  0  0
  -29.9383  -15.3845   21.2921 N   0  0  0  0  0  0
  -29.3177  -23.3639   21.4659 O   0  0  0  0  0  0
  -31.4844  -12.4420   19.1270 H   0  0  0  0  0  0
  -30.3638  -11.2957   19.8050 H   0  0  0  0  0  0
  -29.7489  -11.8039   17.4281 H   0  0  0  0  0  0
  -29.6731  -13.5106   17.7864 H   0  0  0  0  0  0
  -27.8317  -11.3180   18.7998 H   0  0  0  0  0  0
  -27.3777  -12.6656   17.7912 H   0  0  0  0  0  0
  -27.7292  -14.2506   19.6139 H   0  0  0  0  0  0
  -28.6890  -11.8868   21.3001 H   0  0  0  0  0  0
  -28.4531  -13.4873   21.9100 H   0  0  0  0  0  0
  -25.2747   -9.5694   22.4754 H   0  0  0  0  0  0
  -24.0002   -7.4635   22.7478 H   0  0  0  0  0  0
  -21.0829   -8.8753   19.8954 H   0  0  0  0  0  0
  -22.3676  -10.9656   19.6154 H   0  0  0  0  0  0
  -21.1992   -7.6148   23.9712 H   0  0  0  0  0  0
  -21.1478   -6.0528   25.9079 H   0  0  0  0  0  0
  -22.0599   -2.7607   23.2861 H   0  0  0  0  0  0
  -22.4137  -11.9873   22.4736 H   0  0  0  0  0  0
  -21.1153  -13.1260   22.2587 H   0  0  0  0  0  0
  -24.6744  -15.8436   20.5069 H   0  0  0  0  0  0
  -26.2985  -15.6195   20.0974 H   0  0  0  0  0  0
  -26.7125  -32.5520   23.1158 H   0  0  0  0  0  0
  -25.0092  -33.9770   25.0496 H   0  0  0  0  0  0
  -22.6943  -31.3059   21.4095 H   0  0  0  0  0  0
  -23.3741  -35.9630   23.3320 H   0  0  0  0  0  0
  -24.3576  -36.8890   22.2054 H   0  0  0  0  0  0
  -23.7229  -37.6509   23.6642 H   0  0  0  0  0  0
  -26.0468  -31.5956   20.5933 H   0  0  0  0  0  0
  -26.8222  -30.8847   21.9803 H   0  0  0  0  0  0
  -28.1106  -29.1057   21.1529 H   0  0  0  0  0  0
  -26.0713  -25.9523   19.0364 H   0  0  0  0  0  0
  -23.9833  -27.2824   19.0435 H   0  0  0  0  0  0
  -23.7220  -30.5900   19.4036 H   0  0  0  0  0  0
  -22.7393  -29.2355   19.8695 H   0  0  0  0  0  0
  -25.1278  -36.1957   25.0834 H   0  0  0  0  0  0
  -20.9954  -28.3219   24.1446 H   0  0  0  0  0  0
  -20.5678  -26.2264   23.3606 H   0  0  0  0  0  0
  -21.6631  -26.7452   22.1206 H   0  0  0  0  0  0
  -19.6897  -25.6304   21.1237 H   0  0  0  0  0  0
  -19.6682  -27.3214   20.6765 H   0  0  0  0  0  0
  -17.4191  -26.6692   21.4022 H   0  0  0  0  0  0
  -18.0308  -26.0074   22.9018 H   0  0  0  0  0  0
  -19.7926  -30.7266   24.2279 H   0  0  0  0  0  0
  -17.5009  -31.6272   24.5160 H   0  0  0  0  0  0
  -15.5341  -30.2993   23.7665 H   0  0  0  0  0  0
  -15.8660  -28.0839   22.7052 H   0  0  0  0  0  0
  -24.5932  -30.7035   25.7812 H   0  0  0  0  0  0
  -24.8959  -32.2841   26.4945 H   0  0  0  0  0  0
  -25.8125  -30.8841   27.0215 H   0  0  0  0  0  0
  -26.2857  -29.6784   24.1175 H   0  0  0  0  0  0
  -27.4132  -29.7281   25.4537 H   0  0  0  0  0  0
  -27.8677  -30.4368   23.9217 H   0  0  0  0  0  0
  -27.2694  -33.3609   26.2067 H   0  0  0  0  0  0
  -28.3866  -32.6857   25.0288 H   0  0  0  0  0  0
  -28.0746  -31.8421   26.5377 H   0  0  0  0  0  0
  -28.2599  -38.0084   24.7501 H   0  0  0  0  0  0
  -28.1045  -36.2614   24.6310 H   0  0  0  0  0  0
  -27.2290  -37.1465   25.8876 H   0  0  0  0  0  0
  -20.9312  -29.8732   21.6935 H   0  0  0  0  0  0
  -26.0168  -38.2860   24.1422 H   0  0  0  0  0  0
  -30.9754  -19.4906   23.1149 H   0  0  0  0  0  0
  -30.3168  -21.8487   23.2936 H   0  0  0  0  0  0
  -29.1376  -21.8519   19.1584 H   0  0  0  0  0  0
  -31.5223  -20.0641   17.6368 H   0  0  0  0  0  0
  -30.0876  -21.0093   17.2447 H   0  0  0  0  0  0
  -30.3543  -19.4537   16.4744 H   0  0  0  0  0  0
  -27.6812  -18.6098   19.0202 H   0  0  0  0  0  0
  -28.0490  -18.5928   17.3012 H   0  0  0  0  0  0
  -27.7223  -20.1170   18.1159 H   0  0  0  0  0  0
  -31.4825  -17.5971   21.8895 H   0  0  0  0  0  0
  -31.5291  -17.6111   20.1593 H   0  0  0  0  0  0
  -29.1338  -16.8685   20.0587 H   0  0  0  0  0  0
  -28.9675  -17.1372   21.7623 H   0  0  0  0  0  0
  -29.0598  -25.8445   21.8052 H   0  0  0  0  0  0
  -27.4177  -25.3967   21.4543 H   0  0  0  0  0  0
  -29.7474  -24.3931   19.7294 H   0  0  0  0  0  0
  -28.1037  -23.7576   19.7988 H   0  0  0  0  0  0
  -30.1092  -18.2791   18.5794 H   0  0  0  0  0  0
  -29.1987  -14.9496   21.8239 H   0  0  0  0  0  0
  1 25  1  0  0  0
  1 30  2  0  0  0
  1 84  1  0  0  0
  2  3  1  0  0  0
  2 25  1  0  0  0
  2 86  1  0  0  0
  2 87  1  0  0  0
  3  4  1  0  0  0
  3 88  1  0  0  0
  3 89  1  0  0  0
  4  5  1  0  0  0
  4 90  1  0  0  0
  4 91  1  0  0  0
  5  6  1  0  0  0
  5 26  1  0  0  0
  5 92  1  0  0  0
  6 25  1  0  0  0
  6 93  1  0  0  0
  6 94  1  0  0  0
  7  8  2  0  0  0
  7 26  1  0  0  0
  7 29  1  0  0  0
  8  9  1  0  0  0
  8 22  1  0  0  0
  9 10  1  0  0  0
  9 27  2  0  0  0
 10 11  2  0  0  0
 10 15  1  0  0  0
 11 12  1  0  0  0
 11 95  1  0  0  0
 12 13  2  0  0  0
 12 96  1  0  0  0
 13 14  1  0  0  0
 13 31  1  0  0  0
 14 15  2  0  0  0
 14 97  1  0  0  0
 15 98  1  0  0  0
 16 17  2  0  0  0
 16 21  1  0  0  0
 16 31  1  0  0  0
 17 18  1  0  0  0
 17 99  1  0  0  0
 18 19  2  0  0  0
 18100  1  0  0  0
 19 20  1  0  0  0
 19 24  1  0  0  0
 20 21  2  0  0  0
 20101  1  0  0  0
 21 23  1  0  0  0
 22 28  1  0  0  0
 22 32  2  0  0  0
 26 27  1  0  0  0
 28102  1  0  0  0
 28103  1  0  0  0
 29104  1  0  0  0
 29105  1  0  0  0
 33 34  1  0  0  0
 33 66  1  0  0  0
 33 70  2  0  0  0
 34 36  1  0  0  0
 34 59  1  0  0  0
 34106  1  0  0  0
 35 44  2  0  0  0
 35 45  1  0  0  0
 35 68  1  0  0  0
 36 56  1  0  0  0
 36107  1  0  0  0
 37 39  1  0  0  0
 37 47  1  0  0  0
 37 66  1  0  0  0
 37108  1  0  0  0
 38 43  2  0  0  0
 38 46  1  0  0  0
 38 47  1  0  0  0
 39 64  1  0  0  0
 39 67  2  0  0  0
 40 52  1  0  0  0
 40 53  2  0  0  0
 40 58  1  0  0  0
 41109  1  0  0  0
 41110  1  0  0  0
 41111  1  0  0  0
 41 48  1  0  0  0
 42 43  1  0  0  0
 42 66  1  0  0  0
 42112  1  0  0  0
 42113  1  0  0  0
 43 44  1  0  0  0
 44114  1  0  0  0
 45 46  2  0  0  0
 45115  1  0  0  0
 46116  1  0  0  0
 47117  1  0  0  0
 47118  1  0  0  0
 48 56  1  0  0  0
 48 65  1  0  0  0
 48119  1  0  0  0
 49 50  1  0  0  0
 49 53  1  0  0  0
 49 64  1  0  0  0
 49120  1  0  0  0
 50 51  1  0  0  0
 50121  1  0  0  0
 50122  1  0  0  0
 51 52  1  0  0  0
 51123  1  0  0  0
 51124  1  0  0  0
 52125  1  0  0  0
 52126  1  0  0  0
 53 54  1  0  0  0
 54 55  2  0  0  0
 54127  1  0  0  0
 55 57  1  0  0  0
 55128  1  0  0  0
 56 69  2  0  0  0
 57 58  2  0  0  0
 57129  1  0  0  0
 58130  1  0  0  0
 59 60  1  0  0  0
 59 61  1  0  0  0
 59 62  1  0  0  0
 60131  1  0  0  0
 60132  1  0  0  0
 60133  1  0  0  0
 61134  1  0  0  0
 61135  1  0  0  0
 61136  1  0  0  0
 62137  1  0  0  0
 62138  1  0  0  0
 62139  1  0  0  0
 63 65  1  0  0  0
 63140  1  0  0  0
 63141  1  0  0  0
 63142  1  0  0  0
 64143  1  0  0  0
 65144  1  0  0  0
 68 81  1  0  0  0
 71 72  2  0  0  0
 71 74  1  0  0  0
 71145  1  0  0  0
 72 76  1  0  0  0
 72146  1  0  0  0
 73 75  1  0  0  0
 73 76  2  0  0  0
 73147  1  0  0  0
 74 75  2  0  0  0
 74 79  1  0  0  0
 75 83  1  0  0  0
 76 85  1  0  0  0
 77148  1  0  0  0
 77149  1  0  0  0
 77150  1  0  0  0
 77 83  1  0  0  0
 78 83  1  0  0  0
 78151  1  0  0  0
 78152  1  0  0  0
 78153  1  0  0  0
 79 80  1  0  0  0
 79154  1  0  0  0
 79155  1  0  0  0
 80 84  1  0  0  0
 80156  1  0  0  0
 80157  1  0  0  0
 81 82  1  0  0  0
 81158  1  0  0  0
 81159  1  0  0  0
 82 85  1  0  0  0
 82160  1  0  0  0
 82161  1  0  0  0
 83162  1  0  0  0
 84163  1  0  0  0
M  ISO  4   1 100  68 101  81 101  84 100
M  END
> <chiral flag>
0

> <version>
0

> <s_m_source_file>
/data/baiqing/PycharmProjects/Reinvent-master-3.2/result/LINK_invent/BTK/process_docking_weight1_custom_sum_contain_oxygen_bond_distance_aromatic_linkinvent_7_9_3/rearranged_h_0126.sdf

> <i_m_source_file_index>
51

> <r_mmod_Potential_Energy-OPLS-2005>
-51.2218246459961

> <r_mmod_Stretch_Energy-OPLS-2005>
42.122257232666

> <r_mmod_Bend_Energy-OPLS-2005>
116.613342285156

> <r_mmod_Torsional_Energy-OPLS-2005>
235.511489868164

> <r_mmod_Improper_Torsional_Energy-OPLS-2005>
5.0471978187561

> <r_mmod_Van_der_Waal_Energy-OPLS-2005>
145.774688720703

> <r_mmod_Electrostatic_Energy-OPLS-2005>
-400.729858398438

> <r_mmod_Solvation_Energy-OPLS-2005>
-209.189956665039

> <b_mmod_Minimization_Converged-OPLS-2005>
0

> <r_mmod_RMS_Derivative-OPLS-2005>
1.0890702009201

$$$$
51
                    3D
 Structure written by MMmdl.
169178  0  0  1  0            999 V2000
  -30.6735  -14.5551   20.5913 C   0  0  0  0  0  0
  -30.4390  -12.3872   19.4009 C   0  0  0  0  0  0
  -29.4864  -12.5333   18.1962 C   0  0  0  0  0  0
  -28.0089  -12.3816   18.6170 C   0  0  0  0  0  0
  -27.6657  -13.1941   19.8967 C   0  0  2  0  0  0
  -28.7310  -12.8956   20.9787 C   0  0  0  0  0  0
  -25.2614  -13.8117   20.5724 C   0  0  0  0  0  0
  -24.1854  -13.0423   20.9198 C   0  0  0  0  0  0
  -24.6405  -11.6879   20.8788 C   0  0  0  0  0  0
  -23.9060  -10.4284   21.0451 C   0  0  0  0  0  0
  -24.3609   -9.4200   21.9232 C   0  0  0  0  0  0
  -23.6293   -8.2232   22.0777 C   0  0  0  0  0  0
  -22.4287   -8.0269   21.3550 C   0  0  0  0  0  0
  -21.9926   -9.0246   20.4670 C   0  0  0  0  0  0
  -22.7234  -10.2136   20.3099 C   0  0  0  0  0  0
  -21.6840   -6.0750   22.5284 C   0  0  0  0  0  0
  -21.4010   -6.5644   23.8222 C   0  0  0  0  0  0
  -21.3674   -5.6796   24.9177 C   0  0  0  0  0  0
  -21.6060   -4.3062   24.7229 C   0  0  0  0  0  0
  -21.8827   -3.8164   23.4347 C   0  0  0  0  0  0
  -21.9181   -4.6982   22.3410 C   0  0  0  0  0  0
  -22.7864  -13.5241   21.1803 C   0  0  0  0  0  0
  -22.1658   -4.2182   21.0984 F   0  0  0  0  0  0
  -21.5618   -3.4530   25.7737 F   0  0  0  0  0  0
  -30.0127  -13.3580   20.4349 N   0  0  0  0  0  0
  -26.3068  -12.9260   20.3547 N   0  0  0  0  0  0
  -25.9334  -11.6431   20.5876 N   0  0  0  0  0  0
  -22.0466  -12.8294   22.0363 N   0  0  0  0  0  0
  -25.4314  -15.1831   20.4039 N   0  0  0  0  0  0
  -31.8064  -14.6711   20.1070 O   0  0  0  0  0  0
  -21.6635   -6.8875   21.4244 O   0  0  0  0  0  0
  -22.3568  -14.5550   20.6622 O   0  0  0  0  0  0
  -24.6149  -31.8664   23.2065 C   0  0  0  0  0  0
  -25.9045  -32.4805   23.8362 C   0  0  1  0  0  0
  -27.2467  -27.4229   20.0796 C   0  0  0  0  0  0
  -25.5905  -33.8606   24.2297 N   0  0  0  0  0  0
  -23.4045  -30.4873   21.5486 C   0  0  2  0  0  0
  -24.8511  -28.9490   20.1147 C   0  0  0  0  0  0
  -22.7401  -29.4645   22.4979 C   0  0  0  0  0  0
  -18.0274  -28.1389   22.8498 C   0  0  0  0  0  0
  -24.1495  -36.7308   23.2638 C   0  0  0  0  0  0
  -25.9328  -30.8254   21.3620 C   0  0  0  0  0  0
  -26.0096  -29.4563   20.7120 C   0  0  0  0  0  0
  -27.2025  -28.6962   20.6996 C   0  0  0  0  0  0
  -26.0633  -26.9318   19.4797 C   0  0  0  0  0  0
  -24.8724  -27.6850   19.5011 C   0  0  0  0  0  0
  -23.6144  -29.8178   20.1633 C   0  0  0  0  0  0
  -25.4116  -36.3097   24.0334 C   0  0  1  0  0  0
  -20.5857  -28.3671   23.1327 C   0  0  2  0  0  0
  -20.6772  -26.9408   22.5425 C   0  0  0  0  0  0
  -19.5755  -26.6400   21.5215 C   0  0  0  0  0  0
  -18.1927  -26.7938   22.1625 C   0  0  0  0  0  0
  -19.1524  -28.8847   23.2911 C   0  0  0  0  0  0
  -18.9448  -30.1449   23.8924 C   0  0  0  0  0  0
  -17.6457  -30.6592   24.0567 C   0  0  0  0  0  0
  -25.9047  -34.9463   23.5113 C   0  0  0  0  0  0
  -16.5343  -29.9094   23.6329 C   0  0  0  0  0  0
  -16.7267  -28.6515   23.0340 C   0  0  0  0  0  0
  -26.4477  -31.6575   25.0677 C   0  0  0  0  0  0
  -25.3742  -31.3681   26.1420 C   0  0  0  0  0  0
  -27.0306  -30.3025   24.6031 C   0  0  0  0  0  0
  -27.6064  -32.4279   25.7436 C   0  0  0  0  0  0
  -27.5582  -37.1798   24.8466 C   0  0  0  0  0  0
  -21.4125  -29.3031   22.3730 N   0  0  0  0  0  0
  -26.4298  -37.3779   23.9412 N   0  0  0  0  0  0
  -24.6695  -31.0734   22.0986 N   0  0  0  0  0  0
  -23.4161  -28.8194   23.3040 O   0  0  0  0  0  0
  -28.4407  -26.7177   20.0960 O   0  0  0  0  0  0
  -26.5605  -34.8919   22.4668 O   0  0  0  0  0  0
  -23.5344  -32.1428   23.7455 O   0  0  0  0  0  0
  -29.2594  -16.2038   23.3492 C   0  0  0  0  0  0
  -30.6336  -18.5140   19.6567 C   0  0  0  0  0  0
  -29.4980  -19.0969   21.7929 C   0  0  0  0  0  0
  -30.7370  -20.0335   19.3176 C   0  0  0  0  0  0
  -29.6705  -20.6076   21.5391 C   0  0  0  0  0  0
  -30.7163  -16.6567   23.2080 C   0  0  0  0  0  0
  -28.8319  -15.8519   21.9168 C   0  0  0  0  0  0
  -30.6685  -18.2784   21.1801 C   0  0  1  0  0  0
  -29.7023  -20.9562   20.0349 C   0  0  1  0  0  0
  -30.9165  -16.7945   21.6928 C   0  0  1  0  0  0
  -29.9883  -22.4773   19.7782 C   0  0  0  0  0  0
  -28.1124  -24.2185   19.8961 C   0  0  0  0  0  0
  -28.6259  -25.5479   19.2704 C   0  0  0  0  0  0
  -30.0867  -15.6679   21.1720 N   0  0  0  0  0  0
  -29.1576  -23.4123   20.5945 N   0  3  0  0  0  0
  -31.4650  -12.5412   19.0664 H   0  0  0  0  0  0
  -30.4257  -11.3669   19.7896 H   0  0  0  0  0  0
  -29.7356  -11.7997   17.4305 H   0  0  0  0  0  0
  -29.6312  -13.5106   17.7354 H   0  0  0  0  0  0
  -27.8264  -11.3207   18.7909 H   0  0  0  0  0  0
  -27.3491  -12.6717   17.7980 H   0  0  0  0  0  0
  -27.7202  -14.2505   19.6343 H   0  0  0  0  0  0
  -28.7705  -11.8154   21.1334 H   0  0  0  0  0  0
  -28.5252  -13.2325   21.9880 H   0  0  0  0  0  0
  -25.2739   -9.5673   22.4816 H   0  0  0  0  0  0
  -24.0011   -7.4629   22.7493 H   0  0  0  0  0  0
  -21.0868   -8.8753   19.8967 H   0  0  0  0  0  0
  -22.3696  -10.9676   19.6214 H   0  0  0  0  0  0
  -21.2006   -7.6153   23.9736 H   0  0  0  0  0  0
  -21.1481   -6.0516   25.9081 H   0  0  0  0  0  0
  -22.0609   -2.7630   23.2821 H   0  0  0  0  0  0
  -22.4036  -11.9970   22.4798 H   0  0  0  0  0  0
  -21.1090  -13.1379   22.2516 H   0  0  0  0  0  0
  -24.6652  -15.8377   20.5125 H   0  0  0  0  0  0
  -26.2865  -15.6240   20.0895 H   0  0  0  0  0  0
  -26.7097  -32.5517   23.1110 H   0  0  0  0  0  0
  -25.0052  -33.9763   25.0439 H   0  0  0  0  0  0
  -22.6959  -31.3049   21.4063 H   0  0  0  0  0  0
  -23.3750  -35.9645   23.3307 H   0  0  0  0  0  0
  -24.3589  -36.8919   22.2048 H   0  0  0  0  0  0
  -23.7259  -37.6521   23.6651 H   0  0  0  0  0  0
  -26.0368  -31.5878   20.5883 H   0  0  0  0  0  0
  -26.8231  -30.8850   21.9765 H   0  0  0  0  0  0
  -28.0948  -29.0930   21.1640 H   0  0  0  0  0  0
  -26.0332  -25.9683   18.9926 H   0  0  0  0  0  0
  -23.9788  -27.2883   19.0379 H   0  0  0  0  0  0
  -23.7249  -30.5934   19.4044 H   0  0  0  0  0  0
  -22.7386  -29.2369   19.8662 H   0  0  0  0  0  0
  -25.1290  -36.1950   25.0825 H   0  0  0  0  0  0
  -20.9936  -28.3235   24.1449 H   0  0  0  0  0  0
  -20.5692  -26.2256   23.3596 H   0  0  0  0  0  0
  -21.6642  -26.7476   22.1197 H   0  0  0  0  0  0
  -19.6922  -25.6312   21.1232 H   0  0  0  0  0  0
  -19.6710  -27.3222   20.6750 H   0  0  0  0  0  0
  -17.4195  -26.6679   21.4025 H   0  0  0  0  0  0
  -18.0343  -26.0064   22.9012 H   0  0  0  0  0  0
  -19.7923  -30.7258   24.2297 H   0  0  0  0  0  0
  -17.5013  -31.6277   24.5163 H   0  0  0  0  0  0
  -15.5349  -30.3011   23.7649 H   0  0  0  0  0  0
  -15.8655  -28.0857   22.7030 H   0  0  0  0  0  0
  -24.5934  -30.7014   25.7751 H   0  0  0  0  0  0
  -24.8912  -32.2833   26.4851 H   0  0  0  0  0  0
  -25.8093  -30.8860   27.0183 H   0  0  0  0  0  0
  -26.2836  -29.6772   24.1138 H   0  0  0  0  0  0
  -27.4156  -29.7267   25.4458 H   0  0  0  0  0  0
  -27.8630  -30.4358   23.9117 H   0  0  0  0  0  0
  -27.2717  -33.3594   26.2018 H   0  0  0  0  0  0
  -28.3881  -32.6811   25.0256 H   0  0  0  0  0  0
  -28.0722  -31.8384   26.5344 H   0  0  0  0  0  0
  -28.2595  -38.0095   24.7511 H   0  0  0  0  0  0
  -28.1076  -36.2627   24.6298 H   0  0  0  0  0  0
  -27.2293  -37.1458   25.8863 H   0  0  0  0  0  0
  -20.9281  -29.8721   21.6932 H   0  0  0  0  0  0
  -26.0184  -38.2857   24.1406 H   0  0  0  0  0  0
  -28.6263  -16.9903   23.7610 H   0  0  0  0  0  0
  -29.1867  -15.3443   24.0163 H   0  0  0  0  0  0
  -31.4576  -17.9821   19.1775 H   0  0  0  0  0  0
  -29.7177  -18.0974   19.2363 H   0  0  0  0  0  0
  -28.5384  -18.7903   21.3774 H   0  0  0  0  0  0
  -29.4280  -18.9571   22.8691 H   0  0  0  0  0  0
  -30.6574  -20.1644   18.2383 H   0  0  0  0  0  0
  -31.7445  -20.3661   19.5771 H   0  0  0  0  0  0
  -30.5870  -20.9472   22.0235 H   0  0  0  0  0  0
  -28.8508  -21.1367   22.0275 H   0  0  0  0  0  0
  -31.3731  -15.8750   23.5915 H   0  0  0  0  0  0
  -30.9578  -17.5628   23.7664 H   0  0  0  0  0  0
  -28.3264  -16.6987   21.4641 H   0  0  0  0  0  0
  -28.0454  -15.1187   21.8803 H   0  0  0  0  0  0
  -31.5667  -18.7938   21.5248 H   0  0  0  0  0  0
  -28.7161  -20.7329   19.6218 H   0  0  0  0  0  0
  -31.9742  -16.6039   21.5031 H   0  0  0  0  0  0
  -29.8924  -22.7127   18.7171 H   0  0  0  0  0  0
  -31.0284  -22.6856   20.0284 H   0  0  0  0  0  0
  -27.6524  -23.5960   19.1279 H   0  0  0  0  0  0
  -27.3169  -24.4510   20.6039 H   0  0  0  0  0  0
  -28.1621  -25.7067   18.2953 H   0  0  0  0  0  0
  -29.6908  -25.4644   19.0526 H   0  0  0  0  0  0
  -29.7766  -24.0465   21.0776 H   0  0  0  0  0  0
  -28.7105  -22.8593   21.3087 H   0  0  0  0  0  0
  1 25  1  0  0  0
  1 30  2  0  0  0
  1 84  1  0  0  0
  2  3  1  0  0  0
  2 25  1  0  0  0
  2 86  1  0  0  0
  2 87  1  0  0  0
  3  4  1  0  0  0
  3 88  1  0  0  0
  3 89  1  0  0  0
  4  5  1  0  0  0
  4 90  1  0  0  0
  4 91  1  0  0  0
  5  6  1  0  0  0
  5 26  1  0  0  0
  5 92  1  0  0  0
  6 25  1  0  0  0
  6 93  1  0  0  0
  6 94  1  0  0  0
  7  8  2  0  0  0
  7 26  1  0  0  0
  7 29  1  0  0  0
  8  9  1  0  0  0
  8 22  1  0  0  0
  9 10  1  0  0  0
  9 27  2  0  0  0
 10 11  2  0  0  0
 10 15  1  0  0  0
 11 12  1  0  0  0
 11 95  1  0  0  0
 12 13  2  0  0  0
 12 96  1  0  0  0
 13 14  1  0  0  0
 13 31  1  0  0  0
 14 15  2  0  0  0
 14 97  1  0  0  0
 15 98  1  0  0  0
 16 17  2  0  0  0
 16 21  1  0  0  0
 16 31  1  0  0  0
 17 18  1  0  0  0
 17 99  1  0  0  0
 18 19  2  0  0  0
 18100  1  0  0  0
 19 20  1  0  0  0
 19 24  1  0  0  0
 20 21  2  0  0  0
 20101  1  0  0  0
 21 23  1  0  0  0
 22 28  1  0  0  0
 22 32  2  0  0  0
 26 27  1  0  0  0
 28102  1  0  0  0
 28103  1  0  0  0
 29104  1  0  0  0
 29105  1  0  0  0
 33 34  1  0  0  0
 33 66  1  0  0  0
 33 70  2  0  0  0
 34 36  1  0  0  0
 34 59  1  0  0  0
 34106  1  0  0  0
 35 44  2  0  0  0
 35 45  1  0  0  0
 35 68  1  0  0  0
 36 56  1  0  0  0
 36107  1  0  0  0
 37 39  1  0  0  0
 37 47  1  0  0  0
 37 66  1  0  0  0
 37108  1  0  0  0
 38 43  2  0  0  0
 38 46  1  0  0  0
 38 47  1  0  0  0
 39 64  1  0  0  0
 39 67  2  0  0  0
 40 52  1  0  0  0
 40 53  2  0  0  0
 40 58  1  0  0  0
 41109  1  0  0  0
 41110  1  0  0  0
 41111  1  0  0  0
 41 48  1  0  0  0
 42 43  1  0  0  0
 42 66  1  0  0  0
 42112  1  0  0  0
 42113  1  0  0  0
 43 44  1  0  0  0
 44114  1  0  0  0
 45 46  2  0  0  0
 45115  1  0  0  0
 46116  1  0  0  0
 47117  1  0  0  0
 47118  1  0  0  0
 48 56  1  0  0  0
 48 65  1  0  0  0
 48119  1  0  0  0
 49 50  1  0  0  0
 49 53  1  0  0  0
 49 64  1  0  0  0
 49120  1  0  0  0
 50 51  1  0  0  0
 50121  1  0  0  0
 50122  1  0  0  0
 51 52  1  0  0  0
 51123  1  0  0  0
 51124  1  0  0  0
 52125  1  0  0  0
 52126  1  0  0  0
 53 54  1  0  0  0
 54 55  2  0  0  0
 54127  1  0  0  0
 55 57  1  0  0  0
 55128  1  0  0  0
 56 69  2  0  0  0
 57 58  2  0  0  0
 57129  1  0  0  0
 58130  1  0  0  0
 59 60  1  0  0  0
 59 61  1  0  0  0
 59 62  1  0  0  0
 60131  1  0  0  0
 60132  1  0  0  0
 60133  1  0  0  0
 61134  1  0  0  0
 61135  1  0  0  0
 61136  1  0  0  0
 62137  1  0  0  0
 62138  1  0  0  0
 62139  1  0  0  0
 63 65  1  0  0  0
 63140  1  0  0  0
 63141  1  0  0  0
 63142  1  0  0  0
 64143  1  0  0  0
 65144  1  0  0  0
 68 83  1  0  0  0
 71 76  1  0  0  0
 71 77  1  0  0  0
 71145  1  0  0  0
 71146  1  0  0  0
 72 74  1  0  0  0
 72147  1  0  0  0
 72148  1  0  0  0
 72 78  1  0  0  0
 73 75  1  0  0  0
 73 78  1  0  0  0
 73149  1  0  0  0
 73150  1  0  0  0
 74 79  1  0  0  0
 74151  1  0  0  0
 74152  1  0  0  0
 75 79  1  0  0  0
 75153  1  0  0  0
 75154  1  0  0  0
 76155  1  0  0  0
 76156  1  0  0  0
 76 80  1  0  0  0
 77 84  1  0  0  0
 77157  1  0  0  0
 77158  1  0  0  0
 78 80  1  0  0  0
 78159  1  0  0  0
 79 81  1  0  0  0
 79160  1  0  0  0
 80 84  1  0  0  0
 80161  1  0  0  0
 81 85  1  0  0  0
 81162  1  0  0  0
 81163  1  0  0  0
 82 83  1  0  0  0
 82 85  1  0  0  0
 82164  1  0  0  0
 82165  1  0  0  0
 83166  1  0  0  0
 83167  1  0  0  0
 85168  1  0  0  0
 85169  1  0  0  0
M  CHG  1  85   1
M  ISO  4   1 100  68 101  83 101  84 100
M  END
> <chiral flag>
0

> <version>
0

> <s_m_source_file>
/data/baiqing/PycharmProjects/Reinvent-master-3.2/result/LINK_invent/BTK/process_docking_weight1_custom_sum_contain_oxygen_bond_distance_aromatic_linkinvent_7_9_3/rearranged_h_0126.sdf

> <i_m_source_file_index>
52

> <r_mmod_Potential_Energy-OPLS-2005>
241.712478637695

> <r_mmod_Stretch_Energy-OPLS-2005>
55.6049194335938

> <r_mmod_Bend_Energy-OPLS-2005>
214.680526733398

> <r_mmod_Torsional_Energy-OPLS-2005>
383.921295166016

> <r_mmod_Improper_Torsional_Energy-OPLS-2005>
4.32066297531128

> <r_mmod_Van_der_Waal_Energy-OPLS-2005>
151.244705200195

> <r_mmod_Electrostatic_Energy-OPLS-2005>
-166.089324951172

> <r_mmod_Solvation_Energy-OPLS-2005>
-421.335693359375

> <b_mmod_Minimization_Converged-OPLS-2005>
0

> <r_mmod_RMS_Derivative-OPLS-2005>
2.65791296958923

$$$$
52
                    3D
 Structure written by MMmdl.
171180  0  0  1  0            999 V2000
  -30.6427  -14.5095   20.5756 C   0  0  0  0  0  0
  -30.4323  -12.3408   19.4032 C   0  0  0  0  0  0
  -29.4952  -12.5584   18.1948 C   0  0  0  0  0  0
  -28.0176  -12.3966   18.6034 C   0  0  0  0  0  0
  -27.6636  -13.2103   19.8743 C   0  0  2  0  0  0
  -28.7056  -12.9595   20.9860 C   0  0  0  0  0  0
  -25.2612  -13.8155   20.5678 C   0  0  0  0  0  0
  -24.1879  -13.0432   20.9186 C   0  0  0  0  0  0
  -24.6441  -11.6891   20.8754 C   0  0  0  0  0  0
  -23.9105  -10.4280   21.0435 C   0  0  0  0  0  0
  -24.3654   -9.4185   21.9205 C   0  0  0  0  0  0
  -23.6305   -8.2247   22.0741 C   0  0  0  0  0  0
  -22.4275   -8.0313   21.3545 C   0  0  0  0  0  0
  -21.9926   -9.0296   20.4642 C   0  0  0  0  0  0
  -22.7285  -10.2146   20.3061 C   0  0  0  0  0  0
  -21.6870   -6.0771   22.5297 C   0  0  0  0  0  0
  -21.4038   -6.5671   23.8225 C   0  0  0  0  0  0
  -21.3641   -5.6796   24.9179 C   0  0  0  0  0  0
  -21.6027   -4.3060   24.7219 C   0  0  0  0  0  0
  -21.8821   -3.8161   23.4344 C   0  0  0  0  0  0
  -21.9188   -4.7000   22.3398 C   0  0  0  0  0  0
  -22.7906  -13.5234   21.1861 C   0  0  0  0  0  0
  -22.1651   -4.2173   21.0980 F   0  0  0  0  0  0
  -21.5582   -3.4528   25.7722 F   0  0  0  0  0  0
  -30.0332  -13.2969   20.4471 N   0  0  0  0  0  0
  -26.3049  -12.9329   20.3337 N   0  0  0  0  0  0
  -25.9354  -11.6481   20.5724 N   0  0  0  0  0  0
  -22.0535  -12.8217   22.0406 N   0  0  0  0  0  0
  -25.4315  -15.1862   20.4026 N   0  0  0  0  0  0
  -31.7672  -14.7558   20.1290 O   0  0  0  0  0  0
  -21.6622   -6.8932   21.4262 O   0  0  0  0  0  0
  -22.3600  -14.5556   20.6730 O   0  0  0  0  0  0
  -24.6189  -31.8679   23.2111 C   0  0  0  0  0  0
  -25.9075  -32.4828   23.8406 C   0  0  1  0  0  0
  -27.2131  -27.3774   20.0890 C   0  0  0  0  0  0
  -25.5985  -33.8623   24.2335 N   0  0  0  0  0  0
  -23.4074  -30.5009   21.5514 C   0  0  2  0  0  0
  -24.8453  -28.9713   20.1172 C   0  0  0  0  0  0
  -22.7467  -29.4675   22.4936 C   0  0  0  0  0  0
  -18.0291  -28.1351   22.8473 C   0  0  0  0  0  0
  -24.1511  -36.7299   23.2645 C   0  0  0  0  0  0
  -25.9491  -30.8135   21.3777 C   0  0  0  0  0  0
  -26.0171  -29.4516   20.7110 C   0  0  0  0  0  0
  -27.2022  -28.6711   20.6815 C   0  0  0  0  0  0
  -25.9965  -26.9281   19.5222 C   0  0  0  0  0  0
  -24.8330  -27.7075   19.5202 C   0  0  0  0  0  0
  -23.6188  -29.8489   20.1625 C   0  0  0  0  0  0
  -25.4134  -36.3109   24.0338 C   0  0  1  0  0  0
  -20.5913  -28.3640   23.1274 C   0  0  2  0  0  0
  -20.6785  -26.9367   22.5371 C   0  0  0  0  0  0
  -19.5773  -26.6346   21.5172 C   0  0  0  0  0  0
  -18.1947  -26.7910   22.1585 C   0  0  0  0  0  0
  -19.1552  -28.8797   23.2880 C   0  0  0  0  0  0
  -18.9490  -30.1421   23.8874 C   0  0  0  0  0  0
  -17.6503  -30.6554   24.0565 C   0  0  0  0  0  0
  -25.9061  -34.9487   23.5096 C   0  0  0  0  0  0
  -16.5386  -29.9054   23.6345 C   0  0  0  0  0  0
  -16.7289  -28.6478   23.0326 C   0  0  0  0  0  0
  -26.4457  -31.6630   25.0763 C   0  0  0  0  0  0
  -25.3722  -31.3748   26.1515 C   0  0  0  0  0  0
  -27.0291  -30.3074   24.6169 C   0  0  0  0  0  0
  -27.6039  -32.4359   25.7533 C   0  0  0  0  0  0
  -27.5580  -37.1804   24.8464 C   0  0  0  0  0  0
  -21.4186  -29.3034   22.3706 N   0  0  0  0  0  0
  -26.4297  -37.3807   23.9429 N   0  0  0  0  0  0
  -24.6769  -31.0788   22.1006 N   0  0  0  0  0  0
  -23.4240  -28.8142   23.2924 O   0  0  0  0  0  0
  -28.3970  -26.6398   20.0514 O   0  0  0  0  0  0
  -26.5576  -34.8944   22.4637 O   0  0  0  0  0  0
  -23.5365  -32.1427   23.7483 O   0  0  0  0  0  0
  -31.6574  -19.9160   16.3783 C   0  0  0  0  0  0
  -30.0791  -23.1199   20.1528 C   0  0  0  0  0  0
  -28.4817  -23.3639   18.1968 C   0  0  0  0  0  0
  -31.0503  -19.1074   17.5316 C   0  0  0  0  0  0
  -29.8688  -24.6751   20.2166 C   0  0  0  0  0  0
  -27.7131  -24.4892   18.8849 C   0  0  0  0  0  0
  -30.8087  -21.1387   16.0458 C   0  0  0  0  0  0
  -29.1845  -22.3486   19.1369 C   0  0  1  0  0  0
  -29.8311  -21.2154   18.2441 C   0  0  2  0  0  0
  -30.6605  -19.9749   18.7766 C   0  0  1  0  0  0
  -28.4021  -25.1798   20.0882 C   0  0  2  0  0  0
  -29.9417  -16.9415   21.1643 C   0  0  0  0  0  0
  -30.2972  -17.6736   19.8455 C   0  0  0  0  0  0
  -30.6727  -21.9149   17.2674 N   0  0  0  0  0  0
  -29.8307  -15.4681   21.0727 N   0  0  0  0  0  0
  -29.9885  -19.1474   19.8308 N   0  3  0  0  0  0
  -31.4732  -12.4653   19.1065 H   0  0  0  0  0  0
  -30.3452  -11.3172   19.7701 H   0  0  0  0  0  0
  -29.7433  -11.8694   17.3878 H   0  0  0  0  0  0
  -29.6444  -13.5647   17.7948 H   0  0  0  0  0  0
  -27.8363  -11.3369   18.7829 H   0  0  0  0  0  0
  -27.3636  -12.6885   17.7811 H   0  0  0  0  0  0
  -27.7098  -14.2622   19.5955 H   0  0  0  0  0  0
  -28.6921  -11.9101   21.2839 H   0  0  0  0  0  0
  -28.4589  -13.5196   21.8886 H   0  0  0  0  0  0
  -25.2801   -9.5594   22.4791 H   0  0  0  0  0  0
  -23.9970   -7.4611   22.7465 H   0  0  0  0  0  0
  -21.0843   -8.8876   19.8954 H   0  0  0  0  0  0
  -22.3808  -10.9716   19.6164 H   0  0  0  0  0  0
  -21.2065   -7.6176   23.9757 H   0  0  0  0  0  0
  -21.1437   -6.0511   25.9087 H   0  0  0  0  0  0
  -22.0605   -2.7628   23.2825 H   0  0  0  0  0  0
  -22.4123  -11.9818   22.4677 H   0  0  0  0  0  0
  -21.1186  -13.1292   22.2690 H   0  0  0  0  0  0
  -24.6527  -15.8321   20.4708 H   0  0  0  0  0  0
  -26.2734  -15.6198   20.0452 H   0  0  0  0  0  0
  -26.7136  -32.5477   23.1157 H   0  0  0  0  0  0
  -25.0311  -33.9785   25.0586 H   0  0  0  0  0  0
  -22.6981  -31.3198   21.4140 H   0  0  0  0  0  0
  -23.3797  -35.9603   23.3305 H   0  0  0  0  0  0
  -24.3596  -36.8871   22.2049 H   0  0  0  0  0  0
  -23.7214  -37.6487   23.6638 H   0  0  0  0  0  0
  -26.1001  -31.5898   20.6271 H   0  0  0  0  0  0
  -26.8261  -30.8360   22.0132 H   0  0  0  0  0  0
  -28.1127  -29.0549   21.1195 H   0  0  0  0  0  0
  -25.8624  -25.9822   19.0437 H   0  0  0  0  0  0
  -23.9329  -27.3249   19.0588 H   0  0  0  0  0  0
  -23.7477  -30.6326   19.4154 H   0  0  0  0  0  0
  -22.7401  -29.2831   19.8481 H   0  0  0  0  0  0
  -25.1306  -36.1983   25.0822 H   0  0  0  0  0  0
  -20.9991  -28.3144   24.1402 H   0  0  0  0  0  0
  -20.5687  -26.2212   23.3527 H   0  0  0  0  0  0
  -21.6645  -26.7356   22.1185 H   0  0  0  0  0  0
  -19.6957  -25.6243   21.1197 H   0  0  0  0  0  0
  -19.6772  -27.3156   20.6720 H   0  0  0  0  0  0
  -17.4224  -26.6657   21.3977 H   0  0  0  0  0  0
  -18.0365  -26.0017   22.8954 H   0  0  0  0  0  0
  -19.7980  -30.7231   24.2216 H   0  0  0  0  0  0
  -17.5065  -31.6249   24.5145 H   0  0  0  0  0  0
  -15.5394  -30.2961   23.7673 H   0  0  0  0  0  0
  -15.8687  -28.0810   22.7039 H   0  0  0  0  0  0
  -24.5972  -30.7004   25.7858 H   0  0  0  0  0  0
  -24.8859  -32.2884   26.4942 H   0  0  0  0  0  0
  -25.8113  -30.8964   27.0288 H   0  0  0  0  0  0
  -26.2813  -29.6909   24.1165 H   0  0  0  0  0  0
  -27.3974  -29.7270   25.4635 H   0  0  0  0  0  0
  -27.8713  -30.4423   23.9394 H   0  0  0  0  0  0
  -27.2675  -33.3688   26.2099 H   0  0  0  0  0  0
  -28.3864  -32.6873   25.0362 H   0  0  0  0  0  0
  -28.0711  -31.8499   26.5453 H   0  0  0  0  0  0
  -28.2590  -38.0119   24.7515 H   0  0  0  0  0  0
  -28.1078  -36.2627   24.6283 H   0  0  0  0  0  0
  -27.2278  -37.1408   25.8863 H   0  0  0  0  0  0
  -20.9298  -29.8834   21.7029 H   0  0  0  0  0  0
  -26.0193  -38.2885   24.1449 H   0  0  0  0  0  0
  -31.7495  -19.2867   15.4920 H   0  0  0  0  0  0
  -32.6695  -20.2322   16.6347 H   0  0  0  0  0  0
  -29.8881  -22.7156   21.1480 H   0  0  0  0  0  0
  -31.1318  -22.9100   19.9612 H   0  0  0  0  0  0
  -29.1991  -23.8656   17.5480 H   0  0  0  0  0  0
  -27.7929  -22.8359   17.5355 H   0  0  0  0  0  0
  -31.7844  -18.3450   17.7871 H   0  0  0  0  0  0
  -30.1693  -18.5884   17.1546 H   0  0  0  0  0  0
  -30.4597  -25.1406   19.4301 H   0  0  0  0  0  0
  -30.2922  -25.0501   21.1493 H   0  0  0  0  0  0
  -26.7498  -24.0870   19.2052 H   0  0  0  0  0  0
  -27.5239  -25.2224   18.1007 H   0  0  0  0  0  0
  -29.8307  -20.8623   15.6427 H   0  0  0  0  0  0
  -31.3051  -21.7415   15.2836 H   0  0  0  0  0  0
  -28.3964  -21.8776   19.7263 H   0  0  0  0  0  0
  -28.9805  -20.7943   17.6995 H   0  0  0  0  0  0
  -31.5800  -20.3492   19.2275 H   0  0  0  0  0  0
  -27.8702  -24.8790   20.9917 H   0  0  0  0  0  0
  -28.9711  -17.2930   21.5146 H   0  0  0  0  0  0
  -30.6640  -17.2030   21.9401 H   0  0  0  0  0  0
  -29.7692  -17.2045   19.0130 H   0  0  0  0  0  0
  -31.3643  -17.5161   19.6960 H   0  0  0  0  0  0
  -30.2031  -22.7848   17.0339 H   0  0  0  0  0  0
  -28.9474  -15.1019   21.3952 H   0  0  0  0  0  0
  -28.9923  -19.2562   19.7318 H   0  0  0  0  0  0
  -30.2400  -19.5437   20.7228 H   0  0  0  0  0  0
  1 25  1  0  0  0
  1 30  2  0  0  0
  1 85  1  0  0  0
  2  3  1  0  0  0
  2 25  1  0  0  0
  2 87  1  0  0  0
  2 88  1  0  0  0
  3  4  1  0  0  0
  3 89  1  0  0  0
  3 90  1  0  0  0
  4  5  1  0  0  0
  4 91  1  0  0  0
  4 92  1  0  0  0
  5  6  1  0  0  0
  5 26  1  0  0  0
  5 93  1  0  0  0
  6 25  1  0  0  0
  6 94  1  0  0  0
  6 95  1  0  0  0
  7  8  2  0  0  0
  7 26  1  0  0  0
  7 29  1  0  0  0
  8  9  1  0  0  0
  8 22  1  0  0  0
  9 10  1  0  0  0
  9 27  2  0  0  0
 10 11  2  0  0  0
 10 15  1  0  0  0
 11 12  1  0  0  0
 11 96  1  0  0  0
 12 13  2  0  0  0
 12 97  1  0  0  0
 13 14  1  0  0  0
 13 31  1  0  0  0
 14 15  2  0  0  0
 14 98  1  0  0  0
 15 99  1  0  0  0
 16 17  2  0  0  0
 16 21  1  0  0  0
 16 31  1  0  0  0
 17 18  1  0  0  0
 17100  1  0  0  0
 18 19  2  0  0  0
 18101  1  0  0  0
 19 20  1  0  0  0
 19 24  1  0  0  0
 20 21  2  0  0  0
 20102  1  0  0  0
 21 23  1  0  0  0
 22 28  1  0  0  0
 22 32  2  0  0  0
 26 27  1  0  0  0
 28103  1  0  0  0
 28104  1  0  0  0
 29105  1  0  0  0
 29106  1  0  0  0
 33 34  1  0  0  0
 33 66  1  0  0  0
 33 70  2  0  0  0
 34 36  1  0  0  0
 34 59  1  0  0  0
 34107  1  0  0  0
 35 44  2  0  0  0
 35 45  1  0  0  0
 35 68  1  0  0  0
 36 56  1  0  0  0
 36108  1  0  0  0
 37 39  1  0  0  0
 37 47  1  0  0  0
 37 66  1  0  0  0
 37109  1  0  0  0
 38 43  2  0  0  0
 38 46  1  0  0  0
 38 47  1  0  0  0
 39 64  1  0  0  0
 39 67  2  0  0  0
 40 52  1  0  0  0
 40 53  2  0  0  0
 40 58  1  0  0  0
 41110  1  0  0  0
 41111  1  0  0  0
 41112  1  0  0  0
 41 48  1  0  0  0
 42 43  1  0  0  0
 42 66  1  0  0  0
 42113  1  0  0  0
 42114  1  0  0  0
 43 44  1  0  0  0
 44115  1  0  0  0
 45 46  2  0  0  0
 45116  1  0  0  0
 46117  1  0  0  0
 47118  1  0  0  0
 47119  1  0  0  0
 48 56  1  0  0  0
 48 65  1  0  0  0
 48120  1  0  0  0
 49 50  1  0  0  0
 49 53  1  0  0  0
 49 64  1  0  0  0
 49121  1  0  0  0
 50 51  1  0  0  0
 50122  1  0  0  0
 50123  1  0  0  0
 51 52  1  0  0  0
 51124  1  0  0  0
 51125  1  0  0  0
 52126  1  0  0  0
 52127  1  0  0  0
 53 54  1  0  0  0
 54 55  2  0  0  0
 54128  1  0  0  0
 55 57  1  0  0  0
 55129  1  0  0  0
 56 69  2  0  0  0
 57 58  2  0  0  0
 57130  1  0  0  0
 58131  1  0  0  0
 59 60  1  0  0  0
 59 61  1  0  0  0
 59 62  1  0  0  0
 60132  1  0  0  0
 60133  1  0  0  0
 60134  1  0  0  0
 61135  1  0  0  0
 61136  1  0  0  0
 61137  1  0  0  0
 62138  1  0  0  0
 62139  1  0  0  0
 62140  1  0  0  0
 63 65  1  0  0  0
 63141  1  0  0  0
 63142  1  0  0  0
 63143  1  0  0  0
 64144  1  0  0  0
 65145  1  0  0  0
 68 81  1  0  0  0
 71 74  1  0  0  0
 71 77  1  0  0  0
 71146  1  0  0  0
 71147  1  0  0  0
 72 75  1  0  0  0
 72148  1  0  0  0
 72149  1  0  0  0
 72 78  1  0  0  0
 73 76  1  0  0  0
 73 78  1  0  0  0
 73150  1  0  0  0
 73151  1  0  0  0
 74 80  1  0  0  0
 74152  1  0  0  0
 74153  1  0  0  0
 75 81  1  0  0  0
 75154  1  0  0  0
 75155  1  0  0  0
 76 81  1  0  0  0
 76156  1  0  0  0
 76157  1  0  0  0
 77 84  1  0  0  0
 77158  1  0  0  0
 77159  1  0  0  0
 78 79  1  0  0  0
 78160  1  0  0  0
 79 80  1  0  0  0
 79 84  1  0  0  0
 79161  1  0  0  0
 80 86  1  0  0  0
 80162  1  0  0  0
 81163  1  0  0  0
 82 83  1  0  0  0
 82 85  1  0  0  0
 82164  1  0  0  0
 82165  1  0  0  0
 83 86  1  0  0  0
 83166  1  0  0  0
 83167  1  0  0  0
 84168  1  0  0  0
 85169  1  0  0  0
 86170  1  0  0  0
 86171  1  0  0  0
M  CHG  1  86   1
M  ISO  4   1 100  68 101  81 101  85 100
M  END
> <chiral flag>
0

> <version>
0

> <s_m_source_file>
/data/baiqing/PycharmProjects/Reinvent-master-3.2/result/LINK_invent/BTK/process_docking_weight1_custom_sum_contain_oxygen_bond_distance_aromatic_linkinvent_7_9_3/rearranged_h_0126.sdf

> <i_m_source_file_index>
53

> <r_mmod_Potential_Energy-OPLS-2005>
-59.474796295166

> <r_mmod_Stretch_Energy-OPLS-2005>
55.2334289550781

> <r_mmod_Bend_Energy-OPLS-2005>
160.342529296875

> <r_mmod_Torsional_Energy-OPLS-2005>
320.743927001953

> <r_mmod_Improper_Torsional_Energy-OPLS-2005>
4.45845603942871

> <r_mmod_Van_der_Waal_Energy-OPLS-2005>
170.631149291992

> <r_mmod_Electrostatic_Energy-OPLS-2005>
-325.3994140625

> <r_mmod_Solvation_Energy-OPLS-2005>
-465.641235351562

> <b_mmod_Minimization_Converged-OPLS-2005>
0

> <r_mmod_RMS_Derivative-OPLS-2005>
5.00214529037476

$$$$
53
                    3D
 Structure written by MMmdl.
164173  0  0  1  0            999 V2000
  -30.6551  -14.5934   20.4927 C   0  0  0  0  0  0
  -30.4299  -12.3646   19.4396 C   0  0  0  0  0  0
  -29.4982  -12.4919   18.2147 C   0  0  0  0  0  0
  -28.0221  -12.3391   18.6315 C   0  0  0  0  0  0
  -27.6497  -13.2121   19.8593 C   0  0  2  0  0  0
  -28.6976  -13.0762   20.9873 C   0  0  0  0  0  0
  -25.2555  -13.8164   20.5697 C   0  0  0  0  0  0
  -24.1818  -13.0434   20.9201 C   0  0  0  0  0  0
  -24.6384  -11.6903   20.8751 C   0  0  0  0  0  0
  -23.9061  -10.4283   21.0401 C   0  0  0  0  0  0
  -24.3618   -9.4202   21.9177 C   0  0  0  0  0  0
  -23.6298   -8.2229   22.0748 C   0  0  0  0  0  0
  -22.4278   -8.0265   21.3536 C   0  0  0  0  0  0
  -21.9912   -9.0239   20.4636 C   0  0  0  0  0  0
  -22.7237  -10.2119   20.3043 C   0  0  0  0  0  0
  -21.6845   -6.0728   22.5278 C   0  0  0  0  0  0
  -21.3999   -6.5635   23.8211 C   0  0  0  0  0  0
  -21.3667   -5.6793   24.9178 C   0  0  0  0  0  0
  -21.6051   -4.3056   24.7226 C   0  0  0  0  0  0
  -21.8819   -3.8141   23.4350 C   0  0  0  0  0  0
  -21.9189   -4.6956   22.3404 C   0  0  0  0  0  0
  -22.7838  -13.5227   21.1859 C   0  0  0  0  0  0
  -22.1657   -4.2140   21.0981 F   0  0  0  0  0  0
  -21.5647   -3.4541   25.7741 F   0  0  0  0  0  0
  -30.0131  -13.3895   20.4127 N   0  0  0  0  0  0
  -26.2971  -12.9336   20.3326 N   0  0  0  0  0  0
  -25.9305  -11.6501   20.5758 N   0  0  0  0  0  0
  -22.0480  -12.8212   22.0407 N   0  0  0  0  0  0
  -25.4290  -15.1884   20.4130 N   0  0  0  0  0  0
  -31.8329  -14.7291   20.1511 O   0  0  0  0  0  0
  -21.6640   -6.8865   21.4237 O   0  0  0  0  0  0
  -22.3528  -14.5535   20.6708 O   0  0  0  0  0  0
  -24.6196  -31.8650   23.2059 C   0  0  0  0  0  0
  -25.9071  -32.4806   23.8378 C   0  0  1  0  0  0
  -27.2277  -27.3877   20.1054 C   0  0  0  0  0  0
  -25.5916  -33.8607   24.2309 N   0  0  0  0  0  0
  -23.4106  -30.4865   21.5478 C   0  0  2  0  0  0
  -24.8598  -28.9496   20.1105 C   0  0  0  0  0  0
  -22.7447  -29.4631   22.4973 C   0  0  0  0  0  0
  -18.0275  -28.1370   22.8490 C   0  0  0  0  0  0
  -24.1489  -36.7301   23.2637 C   0  0  0  0  0  0
  -25.9447  -30.8169   21.3658 C   0  0  0  0  0  0
  -26.0242  -29.4484   20.7105 C   0  0  0  0  0  0
  -27.2161  -28.6756   20.7042 C   0  0  0  0  0  0
  -26.0501  -26.9208   19.4872 C   0  0  0  0  0  0
  -24.8701  -27.6876   19.4925 C   0  0  0  0  0  0
  -23.6220  -29.8200   20.1624 C   0  0  0  0  0  0
  -25.4109  -36.3102   24.0339 C   0  0  1  0  0  0
  -20.5873  -28.3662   23.1309 C   0  0  2  0  0  0
  -20.6761  -26.9396   22.5414 C   0  0  0  0  0  0
  -19.5743  -26.6379   21.5209 C   0  0  0  0  0  0
  -18.1923  -26.7918   22.1615 C   0  0  0  0  0  0
  -19.1526  -28.8830   23.2893 C   0  0  0  0  0  0
  -18.9454  -30.1436   23.8902 C   0  0  0  0  0  0
  -17.6456  -30.6578   24.0551 C   0  0  0  0  0  0
  -25.9041  -34.9471   23.5120 C   0  0  0  0  0  0
  -16.5345  -29.9074   23.6328 C   0  0  0  0  0  0
  -16.7262  -28.6488   23.0353 C   0  0  0  0  0  0
  -26.4483  -31.6594   25.0723 C   0  0  0  0  0  0
  -25.3741  -31.3708   26.1469 C   0  0  0  0  0  0
  -27.0306  -30.3033   24.6115 C   0  0  0  0  0  0
  -27.6066  -32.4303   25.7485 C   0  0  0  0  0  0
  -27.5585  -37.1801   24.8461 C   0  0  0  0  0  0
  -21.4165  -29.3029   22.3723 N   0  0  0  0  0  0
  -26.4285  -37.3800   23.9421 N   0  0  0  0  0  0
  -24.6767  -31.0707   22.0980 N   0  0  0  0  0  0
  -23.4201  -28.8174   23.3026 O   0  0  0  0  0  0
  -28.3232  -26.5374   20.1375 O   0  0  0  0  0  0
  -26.5599  -34.8930   22.4677 O   0  0  0  0  0  0
  -23.5377  -32.1420   23.7420 O   0  0  0  0  0  0
  -29.5571  -22.2458   19.4230 C   0  0  0  0  0  0
  -29.0416  -23.5594   19.6001 C   0  0  0  0  0  0
  -29.5500  -21.9084   21.8154 C   0  0  0  0  0  0
  -29.8403  -21.3997   20.5276 C   0  0  0  0  0  0
  -28.7871  -24.0781   20.8921 C   0  0  0  0  0  0
  -29.0207  -23.2225   22.0060 C   0  0  0  0  0  0
  -29.6860  -16.5185   21.7904 C   0  0  0  0  0  0
  -29.4728  -16.4617   19.3679 C   0  0  0  0  0  0
  -30.2987  -17.9593   21.6936 C   0  0  0  0  0  0
  -30.1302  -17.8693   19.2677 C   0  0  0  0  0  0
  -28.9537  -22.9357   24.4014 C   0  0  0  0  0  0
  -30.6262  -20.0655   20.3457 C   0  0  0  0  0  0
  -28.1801  -25.4908   21.1386 C   0  0  0  0  0  0
  -29.8457  -15.6971   20.5753 N   0  0  0  0  0  0
  -29.9183  -18.7308   20.4680 N   0  3  0  0  0  0
  -28.7151  -23.7345   23.2503 O   0  0  0  0  0  0
  -31.4712  -12.4811   19.1330 H   0  0  0  0  0  0
  -30.3553  -11.3697   19.8812 H   0  0  0  0  0  0
  -29.7533  -11.7385   17.4685 H   0  0  0  0  0  0
  -29.6462  -13.4599   17.7324 H   0  0  0  0  0  0
  -27.8554  -11.2870   18.8656 H   0  0  0  0  0  0
  -27.3655  -12.5683   17.7909 H   0  0  0  0  0  0
  -27.6611  -14.2441   19.5136 H   0  0  0  0  0  0
  -28.6982  -12.0645   21.3947 H   0  0  0  0  0  0
  -28.4575  -13.7425   21.8179 H   0  0  0  0  0  0
  -25.2755   -9.5685   22.4765 H   0  0  0  0  0  0
  -24.0009   -7.4617   22.7464 H   0  0  0  0  0  0
  -21.0839   -8.8744   19.8944 H   0  0  0  0  0  0
  -22.3684  -10.9655   19.6152 H   0  0  0  0  0  0
  -21.1971   -7.6139   23.9710 H   0  0  0  0  0  0
  -21.1503   -6.0523   25.9086 H   0  0  0  0  0  0
  -22.0596   -2.7602   23.2845 H   0  0  0  0  0  0
  -22.4086  -11.9865   22.4784 H   0  0  0  0  0  0
  -21.1089  -13.1221   22.2602 H   0  0  0  0  0  0
  -24.6673  -15.8486   20.5272 H   0  0  0  0  0  0
  -26.2907  -15.6241   20.1131 H   0  0  0  0  0  0
  -26.7143  -32.5510   23.1138 H   0  0  0  0  0  0
  -25.0089  -33.9770   25.0472 H   0  0  0  0  0  0
  -22.7006  -31.3041   21.4066 H   0  0  0  0  0  0
  -23.3770  -35.9611   23.3277 H   0  0  0  0  0  0
  -24.3602  -36.8937   22.2057 H   0  0  0  0  0  0
  -23.7210  -37.6487   23.6666 H   0  0  0  0  0  0
  -26.0643  -31.5834   20.5986 H   0  0  0  0  0  0
  -26.8289  -30.8679   21.9888 H   0  0  0  0  0  0
  -28.1114  -29.0495   21.1814 H   0  0  0  0  0  0
  -26.0416  -25.9453   19.0216 H   0  0  0  0  0  0
  -23.9767  -27.2986   19.0232 H   0  0  0  0  0  0
  -23.7297  -30.5961   19.4032 H   0  0  0  0  0  0
  -22.7454  -29.2403   19.8660 H   0  0  0  0  0  0
  -25.1282  -36.1955   25.0830 H   0  0  0  0  0  0
  -20.9952  -28.3214   24.1432 H   0  0  0  0  0  0
  -20.5652  -26.2268   23.3601 H   0  0  0  0  0  0
  -21.6634  -26.7429   22.1209 H   0  0  0  0  0  0
  -19.6904  -25.6294   21.1230 H   0  0  0  0  0  0
  -19.6689  -27.3191   20.6743 H   0  0  0  0  0  0
  -17.4200  -26.6675   21.4013 H   0  0  0  0  0  0
  -18.0318  -26.0050   22.8997 H   0  0  0  0  0  0
  -19.7935  -30.7244   24.2279 H   0  0  0  0  0  0
  -17.5016  -31.6264   24.5140 H   0  0  0  0  0  0
  -15.5348  -30.2970   23.7659 H   0  0  0  0  0  0
  -15.8665  -28.0801   22.7072 H   0  0  0  0  0  0
  -24.5908  -30.7065   25.7805 H   0  0  0  0  0  0
  -24.8940  -32.2859   26.4946 H   0  0  0  0  0  0
  -25.8090  -30.8859   27.0217 H   0  0  0  0  0  0
  -26.2848  -29.6800   24.1164 H   0  0  0  0  0  0
  -27.4062  -29.7273   25.4583 H   0  0  0  0  0  0
  -27.8698  -30.4349   23.9277 H   0  0  0  0  0  0
  -27.2703  -33.3608   26.2070 H   0  0  0  0  0  0
  -28.3877  -32.6842   25.0306 H   0  0  0  0  0  0
  -28.0727  -31.8410   26.5391 H   0  0  0  0  0  0
  -28.2580  -38.0122   24.7554 H   0  0  0  0  0  0
  -28.1103  -36.2659   24.6221 H   0  0  0  0  0  0
  -27.2320  -37.1363   25.8867 H   0  0  0  0  0  0
  -20.9330  -29.8769   21.6961 H   0  0  0  0  0  0
  -26.0171  -38.2872   24.1446 H   0  0  0  0  0  0
  -29.7795  -21.9086   18.4192 H   0  0  0  0  0  0
  -28.8502  -24.1788   18.7346 H   0  0  0  0  0  0
  -29.7809  -21.2799   22.6628 H   0  0  0  0  0  0
  -28.6173  -16.5954   21.9967 H   0  0  0  0  0  0
  -30.1138  -16.0024   22.6512 H   0  0  0  0  0  0
  -29.7131  -15.8936   18.4671 H   0  0  0  0  0  0
  -28.3881  -16.5732   19.3588 H   0  0  0  0  0  0
  -31.3855  -17.8676   21.7244 H   0  0  0  0  0  0
  -30.0214  -18.5335   22.5787 H   0  0  0  0  0  0
  -29.7464  -18.3850   18.3856 H   0  0  0  0  0  0
  -31.2022  -17.7435   19.1053 H   0  0  0  0  0  0
  -28.6342  -23.4819   25.2888 H   0  0  0  0  0  0
  -30.0152  -22.7140   24.5180 H   0  0  0  0  0  0
  -28.3866  -22.0047   24.3705 H   0  0  0  0  0  0
  -31.4677  -20.0924   21.0388 H   0  0  0  0  0  0
  -31.1050  -20.1252   19.3670 H   0  0  0  0  0  0
  -28.6299  -25.8986   22.0446 H   0  0  0  0  0  0
  -27.1308  -25.3267   21.3917 H   0  0  0  0  0  0
  -28.9314  -18.9340   20.5204 H   0  0  0  0  0  0
  1 25  1  0  0  0
  1 30  2  0  0  0
  1 84  1  0  0  0
  2  3  1  0  0  0
  2 25  1  0  0  0
  2 87  1  0  0  0
  2 88  1  0  0  0
  3  4  1  0  0  0
  3 89  1  0  0  0
  3 90  1  0  0  0
  4  5  1  0  0  0
  4 91  1  0  0  0
  4 92  1  0  0  0
  5  6  1  0  0  0
  5 26  1  0  0  0
  5 93  1  0  0  0
  6 25  1  0  0  0
  6 94  1  0  0  0
  6 95  1  0  0  0
  7  8  2  0  0  0
  7 26  1  0  0  0
  7 29  1  0  0  0
  8  9  1  0  0  0
  8 22  1  0  0  0
  9 10  1  0  0  0
  9 27  2  0  0  0
 10 11  2  0  0  0
 10 15  1  0  0  0
 11 12  1  0  0  0
 11 96  1  0  0  0
 12 13  2  0  0  0
 12 97  1  0  0  0
 13 14  1  0  0  0
 13 31  1  0  0  0
 14 15  2  0  0  0
 14 98  1  0  0  0
 15 99  1  0  0  0
 16 17  2  0  0  0
 16 21  1  0  0  0
 16 31  1  0  0  0
 17 18  1  0  0  0
 17100  1  0  0  0
 18 19  2  0  0  0
 18101  1  0  0  0
 19 20  1  0  0  0
 19 24  1  0  0  0
 20 21  2  0  0  0
 20102  1  0  0  0
 21 23  1  0  0  0
 22 28  1  0  0  0
 22 32  2  0  0  0
 26 27  1  0  0  0
 28103  1  0  0  0
 28104  1  0  0  0
 29105  1  0  0  0
 29106  1  0  0  0
 33 34  1  0  0  0
 33 66  1  0  0  0
 33 70  2  0  0  0
 34 36  1  0  0  0
 34 59  1  0  0  0
 34107  1  0  0  0
 35 44  2  0  0  0
 35 45  1  0  0  0
 35 68  1  0  0  0
 36 56  1  0  0  0
 36108  1  0  0  0
 37 39  1  0  0  0
 37 47  1  0  0  0
 37 66  1  0  0  0
 37109  1  0  0  0
 38 43  2  0  0  0
 38 46  1  0  0  0
 38 47  1  0  0  0
 39 64  1  0  0  0
 39 67  2  0  0  0
 40 52  1  0  0  0
 40 53  2  0  0  0
 40 58  1  0  0  0
 41110  1  0  0  0
 41111  1  0  0  0
 41112  1  0  0  0
 41 48  1  0  0  0
 42 43  1  0  0  0
 42 66  1  0  0  0
 42113  1  0  0  0
 42114  1  0  0  0
 43 44  1  0  0  0
 44115  1  0  0  0
 45 46  2  0  0  0
 45116  1  0  0  0
 46117  1  0  0  0
 47118  1  0  0  0
 47119  1  0  0  0
 48 56  1  0  0  0
 48 65  1  0  0  0
 48120  1  0  0  0
 49 50  1  0  0  0
 49 53  1  0  0  0
 49 64  1  0  0  0
 49121  1  0  0  0
 50 51  1  0  0  0
 50122  1  0  0  0
 50123  1  0  0  0
 51 52  1  0  0  0
 51124  1  0  0  0
 51125  1  0  0  0
 52126  1  0  0  0
 52127  1  0  0  0
 53 54  1  0  0  0
 54 55  2  0  0  0
 54128  1  0  0  0
 55 57  1  0  0  0
 55129  1  0  0  0
 56 69  2  0  0  0
 57 58  2  0  0  0
 57130  1  0  0  0
 58131  1  0  0  0
 59 60  1  0  0  0
 59 61  1  0  0  0
 59 62  1  0  0  0
 60132  1  0  0  0
 60133  1  0  0  0
 60134  1  0  0  0
 61135  1  0  0  0
 61136  1  0  0  0
 61137  1  0  0  0
 62138  1  0  0  0
 62139  1  0  0  0
 62140  1  0  0  0
 63 65  1  0  0  0
 63141  1  0  0  0
 63142  1  0  0  0
 63143  1  0  0  0
 64144  1  0  0  0
 65145  1  0  0  0
 68 83  1  0  0  0
 71 72  2  0  0  0
 71 74  1  0  0  0
 71146  1  0  0  0
 72 75  1  0  0  0
 72147  1  0  0  0
 73 74  2  0  0  0
 73 76  1  0  0  0
 73148  1  0  0  0
 74 82  1  0  0  0
 75 76  2  0  0  0
 75 83  1  0  0  0
 76 86  1  0  0  0
 77 79  1  0  0  0
 77 84  1  0  0  0
 77149  1  0  0  0
 77150  1  0  0  0
 78 80  1  0  0  0
 78 84  1  0  0  0
 78151  1  0  0  0
 78152  1  0  0  0
 79 85  1  0  0  0
 79153  1  0  0  0
 79154  1  0  0  0
 80 85  1  0  0  0
 80155  1  0  0  0
 80156  1  0  0  0
 81 86  1  0  0  0
 81157  1  0  0  0
 81158  1  0  0  0
 81159  1  0  0  0
 82160  1  0  0  0
 82161  1  0  0  0
 82 85  1  0  0  0
 83162  1  0  0  0
 83163  1  0  0  0
 85164  1  0  0  0
M  CHG  1  85   1
M  ISO  4   1 100  68 101  83 101  84 100
M  END
> <chiral flag>
0

> <version>
0

> <s_m_source_file>
/data/baiqing/PycharmProjects/Reinvent-master-3.2/result/LINK_invent/BTK/process_docking_weight1_custom_sum_contain_oxygen_bond_distance_aromatic_linkinvent_7_9_3/rearranged_h_0126.sdf

> <i_m_source_file_index>
54

> <r_mmod_Potential_Energy-OPLS-2005>
140.812026977539

> <r_mmod_Stretch_Energy-OPLS-2005>
59.4452285766602

> <r_mmod_Bend_Energy-OPLS-2005>
124.910690307617

> <r_mmod_Torsional_Energy-OPLS-2005>
427.472564697266

> <r_mmod_Improper_Torsional_Energy-OPLS-2005>
13.2113790512085

> <r_mmod_Van_der_Waal_Energy-OPLS-2005>
146.753829956055

> <r_mmod_Electrostatic_Energy-OPLS-2005>
-216.427215576172

> <r_mmod_Solvation_Energy-OPLS-2005>
-448.761322021484

> <b_mmod_Minimization_Converged-OPLS-2005>
0

> <r_mmod_RMS_Derivative-OPLS-2005>
1.45782554149628

$$$$
54
                    3D
 Structure written by MMmdl.
188197  0  0  1  0            999 V2000
  -30.9100  -14.4920   20.4977 C   0  0  0  0  0  0
  -30.3456  -12.3516   19.4276 C   0  0  0  0  0  0
  -29.4536  -12.4829   18.1919 C   0  0  0  0  0  0
  -27.9895  -12.3555   18.6255 C   0  0  0  0  0  0
  -27.6357  -13.2502   19.8431 C   0  0  2  0  0  0
  -28.7060  -13.2216   20.9646 C   0  0  0  0  0  0
  -25.2512  -13.8270   20.5768 C   0  0  0  0  0  0
  -24.1823  -13.0454   20.9225 C   0  0  0  0  0  0
  -24.6459  -11.6952   20.8806 C   0  0  0  0  0  0
  -23.9130  -10.4307   21.0413 C   0  0  0  0  0  0
  -24.3658   -9.4191   21.9179 C   0  0  0  0  0  0
  -23.6300   -8.2251   22.0772 C   0  0  0  0  0  0
  -22.4292   -8.0310   21.3541 C   0  0  0  0  0  0
  -21.9925   -9.0286   20.4658 C   0  0  0  0  0  0
  -22.7293  -10.2144   20.3049 C   0  0  0  0  0  0
  -21.6871   -6.0746   22.5275 C   0  0  0  0  0  0
  -21.4015   -6.5646   23.8206 C   0  0  0  0  0  0
  -21.3658   -5.6799   24.9178 C   0  0  0  0  0  0
  -21.6026   -4.3054   24.7216 C   0  0  0  0  0  0
  -21.8830   -3.8151   23.4346 C   0  0  0  0  0  0
  -21.9183   -4.6971   22.3402 C   0  0  0  0  0  0
  -22.7831  -13.5222   21.1793 C   0  0  0  0  0  0
  -22.1671   -4.2149   21.0977 F   0  0  0  0  0  0
  -21.5607   -3.4535   25.7734 F   0  0  0  0  0  0
  -30.0010  -13.4800   20.3323 N   0  0  0  0  0  0
  -26.2946  -12.9527   20.3345 N   0  0  0  0  0  0
  -25.9400  -11.6647   20.5862 N   0  0  0  0  0  0
  -22.0465  -12.8243   22.0401 N   0  0  0  0  0  0
  -25.4127  -15.1975   20.4168 N   0  0  0  0  0  0
  -32.0692  -14.2041   20.2301 O   0  0  0  0  0  0
  -21.6635   -6.8900   21.4257 O   0  0  0  0  0  0
  -22.3514  -14.5503   20.6623 O   0  0  0  0  0  0
  -24.6181  -31.8706   23.2138 C   0  0  0  0  0  0
  -25.9047  -32.4823   23.8433 C   0  0  1  0  0  0
  -27.1911  -27.3811   20.1007 C   0  0  0  0  0  0
  -25.5839  -33.8623   24.2311 N   0  0  0  0  0  0
  -23.4035  -30.5000   21.5546 C   0  0  2  0  0  0
  -24.8349  -28.9698   20.1219 C   0  0  0  0  0  0
  -22.7470  -29.4716   22.5018 C   0  0  0  0  0  0
  -18.0318  -28.1338   22.8477 C   0  0  0  0  0  0
  -24.1468  -36.7311   23.2645 C   0  0  0  0  0  0
  -25.9350  -30.8371   21.3558 C   0  0  0  0  0  0
  -26.0069  -29.4654   20.7028 C   0  0  0  0  0  0
  -27.1923  -28.6841   20.6735 C   0  0  0  0  0  0
  -25.9658  -26.8959   19.5970 C   0  0  0  0  0  0
  -24.8093  -27.6884   19.5645 C   0  0  0  0  0  0
  -23.6091  -29.8461   20.1648 C   0  0  0  0  0  0
  -25.4071  -36.3105   24.0354 C   0  0  1  0  0  0
  -20.5926  -28.3669   23.1326 C   0  0  2  0  0  0
  -20.6872  -26.9425   22.5430 C   0  0  0  0  0  0
  -19.5870  -26.6406   21.5234 C   0  0  0  0  0  0
  -18.2023  -26.7888   22.1607 C   0  0  0  0  0  0
  -19.1555  -28.8787   23.2935 C   0  0  0  0  0  0
  -18.9480  -30.1380   23.8892 C   0  0  0  0  0  0
  -17.6487  -30.6524   24.0581 C   0  0  0  0  0  0
  -25.9013  -34.9444   23.5126 C   0  0  0  0  0  0
  -16.5376  -29.9076   23.6256 C   0  0  0  0  0  0
  -16.7313  -28.6506   23.0246 C   0  0  0  0  0  0
  -26.4406  -31.6606   25.0768 C   0  0  0  0  0  0
  -25.3678  -31.3721   26.1489 C   0  0  0  0  0  0
  -27.0125  -30.3017   24.6156 C   0  0  0  0  0  0
  -27.5915  -32.4281   25.7636 C   0  0  0  0  0  0
  -27.5543  -37.1799   24.8452 C   0  0  0  0  0  0
  -21.4198  -29.3079   22.3726 N   0  0  0  0  0  0
  -26.4235  -37.3817   23.9440 N   0  0  0  0  0  0
  -24.6714  -31.0851   22.0973 N   0  0  0  0  0  0
  -23.4241  -28.8249   23.3017 O   0  0  0  0  0  0
  -28.3682  -26.6508   20.1051 O   0  0  0  0  0  0
  -26.5655  -34.8910   22.4727 O   0  0  0  0  0  0
  -23.5381  -32.1462   23.7506 O   0  0  0  0  0  0
  -24.8845  -22.1307   18.6018 C   0  0  0  0  0  0
  -24.5140  -23.1658   19.6786 C   0  0  0  0  0  0
  -26.2575  -22.4318   17.9546 C   0  0  0  0  0  0
  -25.6084  -23.3207   20.7647 C   0  0  0  0  0  0
  -31.7188  -17.6542   19.1953 C   0  0  0  0  0  0
  -31.8554  -16.7199   20.4171 C   0  0  0  0  0  0
  -29.4049  -16.6122   21.0685 C   0  0  0  0  0  0
  -31.3579  -19.0615   19.6465 C   0  0  0  0  0  0
  -27.3375  -22.9885   18.9362 C   0  0  2  0  0  0
  -26.9391  -22.6365   20.4074 C   0  0  2  0  0  0
  -29.2488  -18.1620   20.6390 C   0  0  1  0  0  0
  -32.4808  -21.9163   21.4752 C   0  0  0  0  0  0
  -31.8182  -19.4351   22.9432 C   0  0  0  0  0  0
  -27.7208  -24.4771   18.5560 C   0  0  0  0  0  0
  -27.9536  -18.9575   21.0579 C   0  0  0  0  0  0
  -31.0287  -21.4092   21.4689 C   0  0  0  0  0  0
  -28.6396  -25.3461   19.4978 C   0  0  0  0  0  0
  -27.9126  -20.3998   20.4476 C   0  0  0  0  0  0
  -30.7459  -19.9409   21.9536 C   0  0  2  0  0  0
  -30.6412  -15.8537   20.6132 N   0  0  0  0  0  0
  -30.5290  -18.9337   20.8571 N   0  3  2  0  0  0
  -26.7508  -21.2080   20.6382 O   0  0  0  0  0  0
  -31.3823  -12.3135   19.0956 H   0  0  0  0  0  0
  -30.1802  -11.3955   19.9269 H   0  0  0  0  0  0
  -29.7010  -11.7155   17.4548 H   0  0  0  0  0  0
  -29.6212  -13.4435   17.7032 H   0  0  0  0  0  0
  -27.8213  -11.3079   18.8735 H   0  0  0  0  0  0
  -27.3295  -12.5785   17.7872 H   0  0  0  0  0  0
  -27.6169  -14.2666   19.4515 H   0  0  0  0  0  0
  -28.7182  -12.2494   21.4623 H   0  0  0  0  0  0
  -28.4920  -13.9613   21.7391 H   0  0  0  0  0  0
  -25.2810   -9.5648   22.4747 H   0  0  0  0  0  0
  -23.9987   -7.4645   22.7510 H   0  0  0  0  0  0
  -21.0830   -8.8823   19.8977 H   0  0  0  0  0  0
  -22.3759  -10.9686   19.6151 H   0  0  0  0  0  0
  -21.2048   -7.6150   23.9712 H   0  0  0  0  0  0
  -21.1455   -6.0522   25.9060 H   0  0  0  0  0  0
  -22.0609   -2.7610   23.2841 H   0  0  0  0  0  0
  -22.4119  -11.9923   22.4809 H   0  0  0  0  0  0
  -21.1091  -13.1268   22.2560 H   0  0  0  0  0  0
  -24.6285  -15.8361   20.5046 H   0  0  0  0  0  0
  -26.2480  -15.6374   20.0531 H   0  0  0  0  0  0
  -26.7154  -32.5525   23.1246 H   0  0  0  0  0  0
  -24.9734  -33.9800   25.0259 H   0  0  0  0  0  0
  -22.6903  -31.3139   21.4209 H   0  0  0  0  0  0
  -23.3699  -35.9691   23.3368 H   0  0  0  0  0  0
  -24.3537  -36.8910   22.2053 H   0  0  0  0  0  0
  -23.7261  -37.6545   23.6647 H   0  0  0  0  0  0
  -26.0541  -31.6113   20.5946 H   0  0  0  0  0  0
  -26.8249  -30.8915   21.9726 H   0  0  0  0  0  0
  -28.1107  -29.0704   21.0999 H   0  0  0  0  0  0
  -25.8043  -25.8839   19.3133 H   0  0  0  0  0  0
  -23.8903  -27.2848   19.1688 H   0  0  0  0  0  0
  -23.7449  -30.6215   19.4125 H   0  0  0  0  0  0
  -22.7336  -29.2795   19.8465 H   0  0  0  0  0  0
  -25.1240  -36.1974   25.0875 H   0  0  0  0  0  0
  -21.0078  -28.3188   24.1393 H   0  0  0  0  0  0
  -20.5728  -26.2259   23.3602 H   0  0  0  0  0  0
  -21.6758  -26.7643   22.1252 H   0  0  0  0  0  0
  -19.6853  -27.3130   20.6696 H   0  0  0  0  0  0
  -19.7088  -25.6299   21.1358 H   0  0  0  0  0  0
  -17.4401  -26.6647   21.3893 H   0  0  0  0  0  0
  -18.0453  -25.9972   22.8991 H   0  0  0  0  0  0
  -19.7941  -30.7220   24.2255 H   0  0  0  0  0  0
  -17.5122  -31.6171   24.5274 H   0  0  0  0  0  0
  -15.5428  -30.3100   23.7430 H   0  0  0  0  0  0
  -15.8754  -28.0838   22.6887 H   0  0  0  0  0  0
  -24.5852  -30.7092   25.7799 H   0  0  0  0  0  0
  -24.8928  -32.2908   26.4954 H   0  0  0  0  0  0
  -25.8011  -30.8894   27.0250 H   0  0  0  0  0  0
  -26.2569  -29.6891   24.1237 H   0  0  0  0  0  0
  -27.3802  -29.7210   25.4614 H   0  0  0  0  0  0
  -27.8552  -30.4251   23.9362 H   0  0  0  0  0  0
  -27.2403  -33.3452   26.2386 H   0  0  0  0  0  0
  -28.3685  -32.7007   25.0495 H   0  0  0  0  0  0
  -28.0594  -31.8337   26.5510 H   0  0  0  0  0  0
  -28.2609  -38.0058   24.7491 H   0  0  0  0  0  0
  -28.1010  -36.2608   24.6293 H   0  0  0  0  0  0
  -27.2287  -37.1464   25.8865 H   0  0  0  0  0  0
  -20.9468  -29.8845   21.6942 H   0  0  0  0  0  0
  -26.0109  -38.2856   24.1606 H   0  0  0  0  0  0
  -24.0976  -22.0567   17.8447 H   0  0  0  0  0  0
  -24.9206  -21.1438   19.0652 H   0  0  0  0  0  0
  -23.5634  -22.9101   20.1488 H   0  0  0  0  0  0
  -24.3439  -24.1206   19.1833 H   0  0  0  0  0  0
  -26.1123  -23.1260   17.1256 H   0  0  0  0  0  0
  -26.6285  -21.5178   17.4828 H   0  0  0  0  0  0
  -25.8172  -24.3787   20.9167 H   0  0  0  0  0  0
  -25.2585  -22.9610   21.7316 H   0  0  0  0  0  0
  -30.9881  -17.2565   18.4861 H   0  0  0  0  0  0
  -32.6532  -17.6995   18.6385 H   0  0  0  0  0  0
  -32.1066  -17.2023   21.3609 H   0  0  0  0  0  0
  -32.8230  -16.2504   20.2583 H   0  0  0  0  0  0
  -28.5338  -16.0732   20.7026 H   0  0  0  0  0  0
  -29.3633  -16.5365   22.1553 H   0  0  0  0  0  0
  -30.8616  -19.6345   18.8608 H   0  0  0  0  0  0
  -32.2836  -19.5749   19.8950 H   0  0  0  0  0  0
  -28.2578  -22.4434   18.7381 H   0  0  0  0  0  0
  -27.7071  -22.9983   21.0964 H   0  0  0  0  0  0
  -29.1106  -18.0990   19.5563 H   0  0  0  0  0  0
  -32.5084  -22.9896   21.2619 H   0  0  0  0  0  0
  -33.0960  -21.4340   20.7190 H   0  0  0  0  0  0
  -32.9612  -21.7750   22.4440 H   0  0  0  0  0  0
  -31.9356  -20.1231   23.7831 H   0  0  0  0  0  0
  -32.7932  -19.3094   22.4725 H   0  0  0  0  0  0
  -31.5413  -18.4704   23.3573 H   0  0  0  0  0  0
  -26.9260  -25.0088   18.0438 H   0  0  0  0  0  0
  -28.3528  -24.3275   17.6776 H   0  0  0  0  0  0
  -27.8586  -18.9959   22.1431 H   0  0  0  0  0  0
  -27.0741  -18.4166   20.7048 H   0  0  0  0  0  0
  -30.4674  -22.0714   22.1294 H   0  0  0  0  0  0
  -30.6134  -21.5946   20.4751 H   0  0  0  0  0  0
  -29.4908  -25.6215   18.8657 H   0  0  0  0  0  0
  -29.0881  -24.7002   20.2591 H   0  0  0  0  0  0
  -28.1649  -20.3447   19.3884 H   0  0  0  0  0  0
  -28.6678  -20.9775   20.9411 H   0  0  0  0  0  0
  -29.8352  -19.9649   22.5488 H   0  0  0  0  0  0
  -31.0343  -18.1622   21.2691 H   0  0  0  0  0  0
  1 25  1  0  0  0
  1 30  2  0  0  0
  1 90  1  0  0  0
  2  3  1  0  0  0
  2 25  1  0  0  0
  2 93  1  0  0  0
  2 94  1  0  0  0
  3  4  1  0  0  0
  3 95  1  0  0  0
  3 96  1  0  0  0
  4  5  1  0  0  0
  4 97  1  0  0  0
  4 98  1  0  0  0
  5  6  1  0  0  0
  5 26  1  0  0  0
  5 99  1  0  0  0
  6 25  1  0  0  0
  6100  1  0  0  0
  6101  1  0  0  0
  7  8  2  0  0  0
  7 26  1  0  0  0
  7 29  1  0  0  0
  8  9  1  0  0  0
  8 22  1  0  0  0
  9 10  1  0  0  0
  9 27  2  0  0  0
 10 11  2  0  0  0
 10 15  1  0  0  0
 11 12  1  0  0  0
 11102  1  0  0  0
 12 13  2  0  0  0
 12103  1  0  0  0
 13 14  1  0  0  0
 13 31  1  0  0  0
 14 15  2  0  0  0
 14104  1  0  0  0
 15105  1  0  0  0
 16 17  2  0  0  0
 16 21  1  0  0  0
 16 31  1  0  0  0
 17 18  1  0  0  0
 17106  1  0  0  0
 18 19  2  0  0  0
 18107  1  0  0  0
 19 20  1  0  0  0
 19 24  1  0  0  0
 20 21  2  0  0  0
 20108  1  0  0  0
 21 23  1  0  0  0
 22 28  1  0  0  0
 22 32  2  0  0  0
 26 27  1  0  0  0
 28109  1  0  0  0
 28110  1  0  0  0
 29111  1  0  0  0
 29112  1  0  0  0
 33 34  1  0  0  0
 33 66  1  0  0  0
 33 70  2  0  0  0
 34 36  1  0  0  0
 34 59  1  0  0  0
 34113  1  0  0  0
 35 44  2  0  0  0
 35 45  1  0  0  0
 35 68  1  0  0  0
 36 56  1  0  0  0
 36114  1  0  0  0
 37 39  1  0  0  0
 37 47  1  0  0  0
 37 66  1  0  0  0
 37115  1  0  0  0
 38 43  2  0  0  0
 38 46  1  0  0  0
 38 47  1  0  0  0
 39 64  1  0  0  0
 39 67  2  0  0  0
 40 52  1  0  0  0
 40 53  2  0  0  0
 40 58  1  0  0  0
 41116  1  0  0  0
 41117  1  0  0  0
 41118  1  0  0  0
 41 48  1  0  0  0
 42 43  1  0  0  0
 42 66  1  0  0  0
 42119  1  0  0  0
 42120  1  0  0  0
 43 44  1  0  0  0
 44121  1  0  0  0
 45 46  2  0  0  0
 45122  1  0  0  0
 46123  1  0  0  0
 47124  1  0  0  0
 47125  1  0  0  0
 48 56  1  0  0  0
 48 65  1  0  0  0
 48126  1  0  0  0
 49 50  1  0  0  0
 49 53  1  0  0  0
 49 64  1  0  0  0
 49127  1  0  0  0
 50 51  1  0  0  0
 50128  1  0  0  0
 50129  1  0  0  0
 51 52  1  0  0  0
 51130  1  0  0  0
 51131  1  0  0  0
 52132  1  0  0  0
 52133  1  0  0  0
 53 54  1  0  0  0
 54 55  2  0  0  0
 54134  1  0  0  0
 55 57  1  0  0  0
 55135  1  0  0  0
 56 69  2  0  0  0
 57 58  2  0  0  0
 57136  1  0  0  0
 58137  1  0  0  0
 59 60  1  0  0  0
 59 61  1  0  0  0
 59 62  1  0  0  0
 60138  1  0  0  0
 60139  1  0  0  0
 60140  1  0  0  0
 61141  1  0  0  0
 61142  1  0  0  0
 61143  1  0  0  0
 62144  1  0  0  0
 62145  1  0  0  0
 62146  1  0  0  0
 63 65  1  0  0  0
 63147  1  0  0  0
 63148  1  0  0  0
 63149  1  0  0  0
 64150  1  0  0  0
 65151  1  0  0  0
 68 87  1  0  0  0
 71 72  1  0  0  0
 71 73  1  0  0  0
 71152  1  0  0  0
 71153  1  0  0  0
 72 74  1  0  0  0
 72154  1  0  0  0
 72155  1  0  0  0
 73 79  1  0  0  0
 73156  1  0  0  0
 73157  1  0  0  0
 74 80  1  0  0  0
 74158  1  0  0  0
 74159  1  0  0  0
 75 76  1  0  0  0
 75 78  1  0  0  0
 75160  1  0  0  0
 75161  1  0  0  0
 76 90  1  0  0  0
 76162  1  0  0  0
 76163  1  0  0  0
 77 81  1  0  0  0
 77 90  1  0  0  0
 77164  1  0  0  0
 77165  1  0  0  0
 78166  1  0  0  0
 78167  1  0  0  0
 78 91  1  0  0  0
 79 80  1  0  0  0
 79 84  1  0  0  0
 79168  1  0  0  0
 80 92  1  0  0  0
 80169  1  0  0  0
 81 85  1  0  0  0
 81 91  1  0  0  0
 81170  1  0  0  0
 82 86  1  0  0  0
 82171  1  0  0  0
 82172  1  0  0  0
 82173  1  0  0  0
 83174  1  0  0  0
 83175  1  0  0  0
 83176  1  0  0  0
 83 89  1  0  0  0
 84 87  1  0  0  0
 84177  1  0  0  0
 84178  1  0  0  0
 85 88  1  0  0  0
 85179  1  0  0  0
 85180  1  0  0  0
 86 89  1  0  0  0
 86181  1  0  0  0
 86182  1  0  0  0
 87183  1  0  0  0
 87184  1  0  0  0
 88 92  1  0  0  0
 88185  1  0  0  0
 88186  1  0  0  0
 89 91  1  0  0  0
 89187  1  0  0  0
 91188  1  0  0  0
M  CHG  1  91   1
M  ISO  4   1 100  68 101  87 101  90 100
M  END
> <chiral flag>
0

> <version>
0

> <s_m_source_file>
/data/baiqing/PycharmProjects/Reinvent-master-3.2/result/LINK_invent/BTK/process_docking_weight1_custom_sum_contain_oxygen_bond_distance_aromatic_linkinvent_7_9_3/rearranged_h_0126.sdf

> <i_m_source_file_index>
55

> <r_mmod_Potential_Energy-OPLS-2005>
592.831237792969

> <r_mmod_Stretch_Energy-OPLS-2005>
88.833869934082

> <r_mmod_Bend_Energy-OPLS-2005>
334.541442871094

> <r_mmod_Torsional_Energy-OPLS-2005>
465.651916503906

> <r_mmod_Improper_Torsional_Energy-OPLS-2005>
9.53277778625488

> <r_mmod_Van_der_Waal_Energy-OPLS-2005>
209.821472167969

> <r_mmod_Electrostatic_Energy-OPLS-2005>
-169.478698730469

> <r_mmod_Solvation_Energy-OPLS-2005>
-420.267944335938

> <b_mmod_Minimization_Converged-OPLS-2005>
0

> <r_mmod_RMS_Derivative-OPLS-2005>
8.62963199615479

$$$$
55
                    3D
 Structure written by MMmdl.
167176  0  0  1  0            999 V2000
  -30.6457  -14.5551   20.4686 C   0  0  0  0  0  0
  -30.4159  -12.3304   19.4398 C   0  0  0  0  0  0
  -29.4949  -12.4758   18.2105 C   0  0  0  0  0  0
  -28.0156  -12.3329   18.6254 C   0  0  0  0  0  0
  -27.6428  -13.2045   19.8573 C   0  0  2  0  0  0
  -28.6877  -13.0641   20.9851 C   0  0  0  0  0  0
  -25.2532  -13.8144   20.5694 C   0  0  0  0  0  0
  -24.1793  -13.0424   20.9174 C   0  0  0  0  0  0
  -24.6350  -11.6888   20.8743 C   0  0  0  0  0  0
  -23.9032  -10.4277   21.0409 C   0  0  0  0  0  0
  -24.3602   -9.4196   21.9182 C   0  0  0  0  0  0
  -23.6278   -8.2238   22.0755 C   0  0  0  0  0  0
  -22.4267   -8.0271   21.3544 C   0  0  0  0  0  0
  -21.9895   -9.0243   20.4651 C   0  0  0  0  0  0
  -22.7216  -10.2119   20.3053 C   0  0  0  0  0  0
  -21.6845   -6.0738   22.5284 C   0  0  0  0  0  0
  -21.4012   -6.5639   23.8217 C   0  0  0  0  0  0
  -21.3660   -5.6790   24.9177 C   0  0  0  0  0  0
  -21.6036   -4.3052   24.7224 C   0  0  0  0  0  0
  -21.8821   -3.8151   23.4342 C   0  0  0  0  0  0
  -21.9189   -4.6969   22.3405 C   0  0  0  0  0  0
  -22.7825  -13.5228   21.1852 C   0  0  0  0  0  0
  -22.1655   -4.2161   21.0980 F   0  0  0  0  0  0
  -21.5631   -3.4540   25.7733 F   0  0  0  0  0  0
  -30.0035  -13.3571   20.4081 N   0  0  0  0  0  0
  -26.2926  -12.9283   20.3308 N   0  0  0  0  0  0
  -25.9263  -11.6456   20.5750 N   0  0  0  0  0  0
  -22.0472  -12.8231   22.0413 N   0  0  0  0  0  0
  -25.4301  -15.1873   20.4170 N   0  0  0  0  0  0
  -31.8394  -14.6707   20.1690 O   0  0  0  0  0  0
  -21.6633   -6.8876   21.4239 O   0  0  0  0  0  0
  -22.3515  -14.5540   20.6696 O   0  0  0  0  0  0
  -24.6163  -31.8673   23.2074 C   0  0  0  0  0  0
  -25.9060  -32.4819   23.8381 C   0  0  1  0  0  0
  -27.2402  -27.4230   20.1033 C   0  0  0  0  0  0
  -25.5927  -33.8618   24.2324 N   0  0  0  0  0  0
  -23.4056  -30.4896   21.5482 C   0  0  2  0  0  0
  -24.8511  -28.9505   20.1165 C   0  0  0  0  0  0
  -22.7414  -29.4664   22.4990 C   0  0  0  0  0  0
  -18.0267  -28.1382   22.8481 C   0  0  0  0  0  0
  -24.1491  -36.7307   23.2625 C   0  0  0  0  0  0
  -25.9332  -30.8338   21.3544 C   0  0  0  0  0  0
  -26.0129  -29.4662   20.7052 C   0  0  0  0  0  0
  -27.2101  -28.7134   20.6837 C   0  0  0  0  0  0
  -26.0543  -26.9217   19.5237 C   0  0  0  0  0  0
  -24.8671  -27.6790   19.5219 C   0  0  0  0  0  0
  -23.6125  -29.8166   20.1651 C   0  0  0  0  0  0
  -25.4097  -36.3103   24.0335 C   0  0  1  0  0  0
  -20.5848  -28.3670   23.1318 C   0  0  2  0  0  0
  -20.6761  -26.9407   22.5411 C   0  0  0  0  0  0
  -19.5735  -26.6382   21.5214 C   0  0  0  0  0  0
  -18.1905  -26.7924   22.1615 C   0  0  0  0  0  0
  -19.1511  -28.8840   23.2898 C   0  0  0  0  0  0
  -18.9446  -30.1444   23.8913 C   0  0  0  0  0  0
  -17.6451  -30.6592   24.0562 C   0  0  0  0  0  0
  -25.9049  -34.9475   23.5113 C   0  0  0  0  0  0
  -16.5344  -29.9089   23.6330 C   0  0  0  0  0  0
  -16.7257  -28.6505   23.0353 C   0  0  0  0  0  0
  -26.4477  -31.6607   25.0717 C   0  0  0  0  0  0
  -25.3752  -31.3730   26.1486 C   0  0  0  0  0  0
  -27.0286  -30.3050   24.6064 C   0  0  0  0  0  0
  -27.6080  -32.4316   25.7449 C   0  0  0  0  0  0
  -27.5600  -37.1748   24.8421 C   0  0  0  0  0  0
  -21.4135  -29.3040   22.3738 N   0  0  0  0  0  0
  -26.4255  -37.3822   23.9470 N   0  0  0  0  0  0
  -24.6712  -31.0778   22.0968 N   0  0  0  0  0  0
  -23.4163  -28.8210   23.3042 O   0  0  0  0  0  0
  -28.4232  -26.7040   20.1024 O   0  0  0  0  0  0
  -26.5601  -34.8934   22.4672 O   0  0  0  0  0  0
  -23.5358  -32.1425   23.7469 O   0  0  0  0  0  0
  -29.3943  -21.2387   20.9398 C   0  0  0  0  0  0
  -28.6953  -17.6381   19.3775 C   0  0  0  0  0  0
  -29.3183  -17.9094   21.7215 C   0  0  0  0  0  0
  -28.4480  -24.4479   19.0301 C   0  0  0  0  0  0
  -29.5570  -24.8835   21.2493 C   0  0  0  0  0  0
  -29.5614  -16.3538   19.2859 C   0  0  0  0  0  0
  -30.1655  -16.6071   21.6750 C   0  0  0  0  0  0
  -28.4329  -22.9182   19.3211 C   0  0  0  0  0  0
  -30.2705  -23.5632   20.8527 C   0  0  0  0  0  0
  -29.2816  -18.6571   20.3693 C   0  0  0  0  0  0
  -28.3772  -25.2787   20.3303 C   0  0  0  0  0  0
  -27.1573  -20.0249   20.9867 C   0  0  0  0  0  0
  -28.5582  -20.0646   20.3403 C   0  0  1  0  0  0
  -29.3432  -22.5002   20.4099 N   0  0  0  0  0  0
  -29.8544  -15.6682   20.5722 N   0  0  0  0  0  0
  -30.1254  -20.9869   21.9011 O   0  0  0  0  0  0
  -31.4625  -12.4278   19.1453 H   0  0  0  0  0  0
  -30.3173  -11.3367   19.8784 H   0  0  0  0  0  0
  -29.7458  -11.7236   17.4603 H   0  0  0  0  0  0
  -29.6566  -13.4438   17.7339 H   0  0  0  0  0  0
  -27.8436  -11.2802   18.8551 H   0  0  0  0  0  0
  -27.3636  -12.5689   17.7828 H   0  0  0  0  0  0
  -27.6485  -14.2362   19.5159 H   0  0  0  0  0  0
  -28.6758  -12.0570   21.4029 H   0  0  0  0  0  0
  -28.4567  -13.7414   21.8084 H   0  0  0  0  0  0
  -25.2750   -9.5686   22.4745 H   0  0  0  0  0  0
  -24.0003   -7.4630   22.7466 H   0  0  0  0  0  0
  -21.0836   -8.8747   19.8948 H   0  0  0  0  0  0
  -22.3672  -10.9658   19.6165 H   0  0  0  0  0  0
  -21.2004   -7.6149   23.9724 H   0  0  0  0  0  0
  -21.1477   -6.0522   25.9080 H   0  0  0  0  0  0
  -22.0599   -2.7615   23.2837 H   0  0  0  0  0  0
  -22.4084  -11.9896   22.4810 H   0  0  0  0  0  0
  -21.1083  -13.1256   22.2604 H   0  0  0  0  0  0
  -24.6746  -15.8508   20.5497 H   0  0  0  0  0  0
  -26.3054  -15.6257   20.1616 H   0  0  0  0  0  0
  -26.7125  -32.5533   23.1151 H   0  0  0  0  0  0
  -25.0158  -33.9792   25.0514 H   0  0  0  0  0  0
  -22.6963  -31.3066   21.4043 H   0  0  0  0  0  0
  -23.3787  -35.9597   23.3209 H   0  0  0  0  0  0
  -24.3625  -36.9007   22.2059 H   0  0  0  0  0  0
  -23.7169  -37.6454   23.6683 H   0  0  0  0  0  0
  -26.0376  -31.5947   20.5801 H   0  0  0  0  0  0
  -26.8263  -30.8959   21.9659 H   0  0  0  0  0  0
  -28.1106  -29.1125   21.1284 H   0  0  0  0  0  0
  -26.0286  -25.9469   19.0663 H   0  0  0  0  0  0
  -23.9730  -27.2724   19.0711 H   0  0  0  0  0  0
  -23.7175  -30.5882   19.4021 H   0  0  0  0  0  0
  -22.7368  -29.2339   19.8738 H   0  0  0  0  0  0
  -25.1243  -36.1953   25.0817 H   0  0  0  0  0  0
  -20.9933  -28.3225   24.1442 H   0  0  0  0  0  0
  -20.5688  -26.2271   23.3594 H   0  0  0  0  0  0
  -21.6626  -26.7464   22.1184 H   0  0  0  0  0  0
  -19.6924  -25.6300   21.1227 H   0  0  0  0  0  0
  -19.6691  -27.3202   20.6753 H   0  0  0  0  0  0
  -17.4185  -26.6676   21.4011 H   0  0  0  0  0  0
  -18.0313  -26.0071   22.9016 H   0  0  0  0  0  0
  -19.7926  -30.7242   24.2286 H   0  0  0  0  0  0
  -17.5014  -31.6273   24.5152 H   0  0  0  0  0  0
  -15.5342  -30.3003   23.7655 H   0  0  0  0  0  0
  -15.8648  -28.0830   22.7078 H   0  0  0  0  0  0
  -24.5897  -30.7110   25.7836 H   0  0  0  0  0  0
  -24.8983  -32.2895   26.4961 H   0  0  0  0  0  0
  -25.8105  -30.8866   27.0229 H   0  0  0  0  0  0
  -26.2804  -29.6834   24.1130 H   0  0  0  0  0  0
  -27.4096  -29.7264   25.4490 H   0  0  0  0  0  0
  -27.8621  -30.4391   23.9168 H   0  0  0  0  0  0
  -27.2723  -33.3609   26.2063 H   0  0  0  0  0  0
  -28.3842  -32.6899   25.0237 H   0  0  0  0  0  0
  -28.0800  -31.8427   26.5326 H   0  0  0  0  0  0
  -28.2461  -38.0203   24.7740 H   0  0  0  0  0  0
  -28.1250  -36.2760   24.5879 H   0  0  0  0  0  0
  -27.2378  -37.0960   25.8824 H   0  0  0  0  0  0
  -20.9309  -29.8772   21.6963 H   0  0  0  0  0  0
  -26.0132  -38.2856   24.1654 H   0  0  0  0  0  0
  -27.6764  -17.3826   19.6717 H   0  0  0  0  0  0
  -28.6135  -18.0828   18.3837 H   0  0  0  0  0  0
  -29.7109  -18.5535   22.5073 H   0  0  0  0  0  0
  -28.3013  -17.6579   22.0267 H   0  0  0  0  0  0
  -27.6288  -24.6935   18.3578 H   0  0  0  0  0  0
  -29.3550  -24.7110   18.4835 H   0  0  0  0  0  0
  -30.3070  -25.6757   21.2504 H   0  0  0  0  0  0
  -29.2044  -24.8177   22.2791 H   0  0  0  0  0  0
  -30.5054  -16.6146   18.8039 H   0  0  0  0  0  0
  -29.0685  -15.6609   18.6025 H   0  0  0  0  0  0
  -30.0417  -16.0833   22.6250 H   0  0  0  0  0  0
  -31.2195  -16.8861   21.6137 H   0  0  0  0  0  0
  -28.6785  -22.3815   18.4041 H   0  0  0  0  0  0
  -27.4139  -22.6354   19.5871 H   0  0  0  0  0  0
  -30.9180  -23.2538   21.6741 H   0  0  0  0  0  0
  -30.9517  -23.7557   20.0211 H   0  0  0  0  0  0
  -30.3140  -18.8377   20.0612 H   0  0  0  0  0  0
  -27.4579  -25.0172   20.8578 H   0  0  0  0  0  0
  -26.6897  -21.0088   20.9962 H   0  0  0  0  0  0
  -27.1955  -19.6865   22.0212 H   0  0  0  0  0  0
  -26.4904  -19.3599   20.4401 H   0  0  0  0  0  0
  -28.4165  -20.3014   19.2868 H   0  0  0  0  0  0
  1 25  1  0  0  0
  1 30  2  0  0  0
  1 85  1  0  0  0
  2  3  1  0  0  0
  2 25  1  0  0  0
  2 87  1  0  0  0
  2 88  1  0  0  0
  3  4  1  0  0  0
  3 89  1  0  0  0
  3 90  1  0  0  0
  4  5  1  0  0  0
  4 91  1  0  0  0
  4 92  1  0  0  0
  5  6  1  0  0  0
  5 26  1  0  0  0
  5 93  1  0  0  0
  6 25  1  0  0  0
  6 94  1  0  0  0
  6 95  1  0  0  0
  7  8  2  0  0  0
  7 26  1  0  0  0
  7 29  1  0  0  0
  8  9  1  0  0  0
  8 22  1  0  0  0
  9 10  1  0  0  0
  9 27  2  0  0  0
 10 11  2  0  0  0
 10 15  1  0  0  0
 11 12  1  0  0  0
 11 96  1  0  0  0
 12 13  2  0  0  0
 12 97  1  0  0  0
 13 14  1  0  0  0
 13 31  1  0  0  0
 14 15  2  0  0  0
 14 98  1  0  0  0
 15 99  1  0  0  0
 16 17  2  0  0  0
 16 21  1  0  0  0
 16 31  1  0  0  0
 17 18  1  0  0  0
 17100  1  0  0  0
 18 19  2  0  0  0
 18101  1  0  0  0
 19 20  1  0  0  0
 19 24  1  0  0  0
 20 21  2  0  0  0
 20102  1  0  0  0
 21 23  1  0  0  0
 22 28  1  0  0  0
 22 32  2  0  0  0
 26 27  1  0  0  0
 28103  1  0  0  0
 28104  1  0  0  0
 29105  1  0  0  0
 29106  1  0  0  0
 33 34  1  0  0  0
 33 66  1  0  0  0
 33 70  2  0  0  0
 34 36  1  0  0  0
 34 59  1  0  0  0
 34107  1  0  0  0
 35 44  2  0  0  0
 35 45  1  0  0  0
 35 68  1  0  0  0
 36 56  1  0  0  0
 36108  1  0  0  0
 37 39  1  0  0  0
 37 47  1  0  0  0
 37 66  1  0  0  0
 37109  1  0  0  0
 38 43  2  0  0  0
 38 46  1  0  0  0
 38 47  1  0  0  0
 39 64  1  0  0  0
 39 67  2  0  0  0
 40 52  1  0  0  0
 40 53  2  0  0  0
 40 58  1  0  0  0
 41110  1  0  0  0
 41111  1  0  0  0
 41112  1  0  0  0
 41 48  1  0  0  0
 42 43  1  0  0  0
 42 66  1  0  0  0
 42113  1  0  0  0
 42114  1  0  0  0
 43 44  1  0  0  0
 44115  1  0  0  0
 45 46  2  0  0  0
 45116  1  0  0  0
 46117  1  0  0  0
 47118  1  0  0  0
 47119  1  0  0  0
 48 56  1  0  0  0
 48 65  1  0  0  0
 48120  1  0  0  0
 49 50  1  0  0  0
 49 53  1  0  0  0
 49 64  1  0  0  0
 49121  1  0  0  0
 50 51  1  0  0  0
 50122  1  0  0  0
 50123  1  0  0  0
 51 52  1  0  0  0
 51124  1  0  0  0
 51125  1  0  0  0
 52126  1  0  0  0
 52127  1  0  0  0
 53 54  1  0  0  0
 54 55  2  0  0  0
 54128  1  0  0  0
 55 57  1  0  0  0
 55129  1  0  0  0
 56 69  2  0  0  0
 57 58  2  0  0  0
 57130  1  0  0  0
 58131  1  0  0  0
 59 60  1  0  0  0
 59 61  1  0  0  0
 59 62  1  0  0  0
 60132  1  0  0  0
 60133  1  0  0  0
 60134  1  0  0  0
 61135  1  0  0  0
 61136  1  0  0  0
 61137  1  0  0  0
 62138  1  0  0  0
 62139  1  0  0  0
 62140  1  0  0  0
 63 65  1  0  0  0
 63141  1  0  0  0
 63142  1  0  0  0
 63143  1  0  0  0
 64144  1  0  0  0
 65145  1  0  0  0
 68 81  1  0  0  0
 71 83  1  0  0  0
 71 84  1  0  0  0
 71 86  2  0  0  0
 72 76  1  0  0  0
 72146  1  0  0  0
 72147  1  0  0  0
 72 80  1  0  0  0
 73 77  1  0  0  0
 73 80  1  0  0  0
 73148  1  0  0  0
 73149  1  0  0  0
 74 78  1  0  0  0
 74 81  1  0  0  0
 74150  1  0  0  0
 74151  1  0  0  0
 75 79  1  0  0  0
 75 81  1  0  0  0
 75152  1  0  0  0
 75153  1  0  0  0
 76 85  1  0  0  0
 76154  1  0  0  0
 76155  1  0  0  0
 77 85  1  0  0  0
 77156  1  0  0  0
 77157  1  0  0  0
 78 84  1  0  0  0
 78158  1  0  0  0
 78159  1  0  0  0
 79 84  1  0  0  0
 79160  1  0  0  0
 79161  1  0  0  0
 80 83  1  0  0  0
 80162  1  0  0  0
 81163  1  0  0  0
 82164  1  0  0  0
 82165  1  0  0  0
 82166  1  0  0  0
 82 83  1  0  0  0
 83167  1  0  0  0
M  ISO  4   1 100  68 101  81 101  85 100
M  END
> <chiral flag>
0

> <version>
0

> <s_m_source_file>
/data/baiqing/PycharmProjects/Reinvent-master-3.2/result/LINK_invent/BTK/process_docking_weight1_custom_sum_contain_oxygen_bond_distance_aromatic_linkinvent_7_9_3/rearranged_h_0126.sdf

> <i_m_source_file_index>
56

> <r_mmod_Potential_Energy-OPLS-2005>
308.506042480469

> <r_mmod_Stretch_Energy-OPLS-2005>
51.5901908874512

> <r_mmod_Bend_Energy-OPLS-2005>
124.757942199707

> <r_mmod_Torsional_Energy-OPLS-2005>
418.977966308594

> <r_mmod_Improper_Torsional_Energy-OPLS-2005>
11.2432041168213

> <r_mmod_Van_der_Waal_Energy-OPLS-2005>
149.097763061523

> <r_mmod_Electrostatic_Energy-OPLS-2005>
-263.103790283203

> <r_mmod_Solvation_Energy-OPLS-2005>
-209.203674316406

> <b_mmod_Minimization_Converged-OPLS-2005>
0

> <r_mmod_RMS_Derivative-OPLS-2005>
2.82071304321289

$$$$
56
                    3D
 Structure written by MMmdl.
152160  0  0  1  0            999 V2000
  -30.6037  -14.7713   20.4310 C   0  0  0  0  0  0
  -30.4391  -12.4741   19.4726 C   0  0  0  0  0  0
  -29.5167  -12.5060   18.2331 C   0  0  0  0  0  0
  -28.0404  -12.3365   18.6423 C   0  0  0  0  0  0
  -27.6416  -13.2382   19.8419 C   0  0  2  0  0  0
  -28.6838  -13.1864   20.9795 C   0  0  0  0  0  0
  -25.2520  -13.8228   20.5737 C   0  0  0  0  0  0
  -24.1810  -13.0444   20.9249 C   0  0  0  0  0  0
  -24.6438  -11.6941   20.8751 C   0  0  0  0  0  0
  -23.9126  -10.4300   21.0411 C   0  0  0  0  0  0
  -24.3669   -9.4200   21.9168 C   0  0  0  0  0  0
  -23.6324   -8.2247   22.0738 C   0  0  0  0  0  0
  -22.4284   -8.0321   21.3548 C   0  0  0  0  0  0
  -21.9955   -9.0302   20.4636 C   0  0  0  0  0  0
  -22.7319  -10.2172   20.3044 C   0  0  0  0  0  0
  -21.6853   -6.0783   22.5284 C   0  0  0  0  0  0
  -21.4022   -6.5660   23.8229 C   0  0  0  0  0  0
  -21.3660   -5.6799   24.9173 C   0  0  0  0  0  0
  -21.6036   -4.3066   24.7202 C   0  0  0  0  0  0
  -21.8810   -3.8182   23.4314 C   0  0  0  0  0  0
  -21.9187   -4.7015   22.3392 C   0  0  0  0  0  0
  -22.7824  -13.5242   21.1878 C   0  0  0  0  0  0
  -22.1643   -4.2215   21.0960 F   0  0  0  0  0  0
  -21.5625   -3.4524   25.7700 F   0  0  0  0  0  0
  -29.9911  -13.5359   20.4037 N   0  0  0  0  0  0
  -26.2932  -12.9460   20.3202 N   0  0  0  0  0  0
  -25.9352  -11.6581   20.5647 N   0  0  0  0  0  0
  -22.0450  -12.8234   22.0430 N   0  0  0  0  0  0
  -25.4170  -15.1960   20.4247 N   0  0  0  0  0  0
  -31.7834  -14.8803   20.0859 O   0  0  0  0  0  0
  -21.6631   -6.8945   21.4248 O   0  0  0  0  0  0
  -22.3509  -14.5531   20.6707 O   0  0  0  0  0  0
  -24.6329  -31.8611   23.1992 C   0  0  0  0  0  0
  -25.9164  -32.4781   23.8341 C   0  0  1  0  0  0
  -27.2388  -27.2901   20.0979 C   0  0  0  0  0  0
  -25.5965  -33.8576   24.2257 N   0  0  0  0  0  0
  -23.4282  -30.4850   21.5462 C   0  0  2  0  0  0
  -24.8779  -28.9395   20.1094 C   0  0  0  0  0  0
  -22.7512  -29.4648   22.4941 C   0  0  0  0  0  0
  -18.0313  -28.1438   22.8522 C   0  0  0  0  0  0
  -24.1495  -36.7279   23.2638 C   0  0  0  0  0  0
  -25.9774  -30.7780   21.3769 C   0  0  0  0  0  0
  -26.0543  -29.4074   20.7099 C   0  0  0  0  0  0
  -27.2365  -28.6003   20.6893 C   0  0  0  0  0  0
  -26.0318  -26.8906   19.4724 C   0  0  0  0  0  0
  -24.8726  -27.6893   19.4790 C   0  0  0  0  0  0
  -23.6448  -29.8229   20.1628 C   0  0  0  0  0  0
  -25.4125  -36.3070   24.0316 C   0  0  1  0  0  0
  -20.5914  -28.3743   23.1297 C   0  0  2  0  0  0
  -20.6798  -26.9460   22.5439 C   0  0  0  0  0  0
  -19.5748  -26.6422   21.5274 C   0  0  0  0  0  0
  -18.1937  -26.7974   22.1680 C   0  0  0  0  0  0
  -19.1564  -28.8916   23.2899 C   0  0  0  0  0  0
  -18.9462  -30.1515   23.8912 C   0  0  0  0  0  0
  -17.6456  -30.6621   24.0593 C   0  0  0  0  0  0
  -25.9067  -34.9460   23.5090 C   0  0  0  0  0  0
  -16.5357  -29.9118   23.6351 C   0  0  0  0  0  0
  -16.7292  -28.6554   23.0343 C   0  0  0  0  0  0
  -26.4502  -31.6587   25.0733 C   0  0  0  0  0  0
  -25.3697  -31.3767   26.1437 C   0  0  0  0  0  0
  -27.0323  -30.2985   24.6221 C   0  0  0  0  0  0
  -27.6056  -32.4336   25.7505 C   0  0  0  0  0  0
  -27.5575  -37.1798   24.8466 C   0  0  0  0  0  0
  -21.4220  -29.3082   22.3682 N   0  0  0  0  0  0
  -26.4293  -37.3769   23.9423 N   0  0  0  0  0  0
  -24.6999  -31.0570   22.0983 N   0  0  0  0  0  0
  -23.4215  -28.8198   23.3041 O   0  0  0  0  0  0
  -28.3435  -26.3979   20.1402 O   0  0  0  0  0  0
  -26.5639  -34.8914   22.4654 O   0  0  0  0  0  0
  -23.5485  -32.1455   23.7287 O   0  0  0  0  0  0
  -31.4176  -22.9491   20.4371 C   0  0  0  0  0  0
  -30.4982  -24.0246   20.3359 C   0  0  0  0  0  0
  -31.0054  -21.5932   20.4370 C   0  0  0  0  0  0
  -28.7266  -22.3703   20.1960 C   0  0  0  0  0  0
  -29.1133  -23.7688   20.2209 C   0  0  0  0  0  0
  -29.6418  -21.2510   20.3061 C   0  0  0  0  0  0
  -28.0368  -24.9284   20.0775 C   0  0  0  0  0  0
  -29.8912  -18.6404   20.8221 C   0  0  0  0  0  0
  -29.9557  -17.2834   19.9465 C   0  0  0  0  0  0
  -29.2179  -19.8666   20.2302 N   0  0  0  0  0  0
  -29.8110  -15.8978   20.5846 N   0  0  0  0  0  0
  -31.4762  -12.6106   19.1624 H   0  0  0  0  0  0
  -30.4019  -11.5048   19.9669 H   0  0  0  0  0  0
  -29.8039  -11.7200   17.5332 H   0  0  0  0  0  0
  -29.6381  -13.4467   17.6945 H   0  0  0  0  0  0
  -27.8957  -11.2878   18.9013 H   0  0  0  0  0  0
  -27.3912  -12.5275   17.7869 H   0  0  0  0  0  0
  -27.6284  -14.2590   19.4554 H   0  0  0  0  0  0
  -28.7218  -12.1940   21.4290 H   0  0  0  0  0  0
  -28.4113  -13.8780   21.7807 H   0  0  0  0  0  0
  -25.2827   -9.5653   22.4724 H   0  0  0  0  0  0
  -24.0036   -7.4629   22.7452 H   0  0  0  0  0  0
  -21.0883   -8.8856   19.8930 H   0  0  0  0  0  0
  -22.3804  -10.9713   19.6137 H   0  0  0  0  0  0
  -21.2010   -7.6169   23.9759 H   0  0  0  0  0  0
  -21.1479   -6.0504   25.9086 H   0  0  0  0  0  0
  -22.0588   -2.7637   23.2762 H   0  0  0  0  0  0
  -22.4091  -11.9970   22.4908 H   0  0  0  0  0  0
  -21.1019  -13.1209   22.2534 H   0  0  0  0  0  0
  -24.6494  -15.8421   20.5756 H   0  0  0  0  0  0
  -26.2602  -15.6487   20.0954 H   0  0  0  0  0  0
  -26.7258  -32.5406   23.1093 H   0  0  0  0  0  0
  -25.0120  -33.9746   25.0397 H   0  0  0  0  0  0
  -22.7230  -31.3072   21.4072 H   0  0  0  0  0  0
  -23.3740  -35.9621   23.3318 H   0  0  0  0  0  0
  -24.3589  -36.8893   22.2048 H   0  0  0  0  0  0
  -23.7242  -37.6487   23.6650 H   0  0  0  0  0  0
  -26.1164  -31.5443   20.6137 H   0  0  0  0  0  0
  -26.8554  -30.8227   22.0102 H   0  0  0  0  0  0
  -28.1343  -28.9693   21.1648 H   0  0  0  0  0  0
  -25.9418  -25.9415   18.9666 H   0  0  0  0  0  0
  -23.9721  -27.3271   18.9989 H   0  0  0  0  0  0
  -23.7595  -30.6081   19.4144 H   0  0  0  0  0  0
  -22.7614  -29.2584   19.8602 H   0  0  0  0  0  0
  -25.1286  -36.1924   25.0801 H   0  0  0  0  0  0
  -21.0016  -28.3341   24.1405 H   0  0  0  0  0  0
  -20.5788  -26.2356   23.3650 H   0  0  0  0  0  0
  -21.6647  -26.7548   22.1166 H   0  0  0  0  0  0
  -19.6903  -25.6336   21.1300 H   0  0  0  0  0  0
  -19.6654  -27.3242   20.6809 H   0  0  0  0  0  0
  -17.4205  -26.6784   21.4063 H   0  0  0  0  0  0
  -18.0281  -26.0124   22.9081 H   0  0  0  0  0  0
  -19.7921  -30.7375   24.2240 H   0  0  0  0  0  0
  -17.4986  -31.6279   24.5221 H   0  0  0  0  0  0
  -15.5338  -30.3006   23.7661 H   0  0  0  0  0  0
  -15.8706  -28.0885   22.6991 H   0  0  0  0  0  0
  -24.5907  -30.7076   25.7770 H   0  0  0  0  0  0
  -24.8841  -32.2949   26.4755 H   0  0  0  0  0  0
  -25.8003  -30.9034   27.0263 H   0  0  0  0  0  0
  -26.2911  -29.6761   24.1204 H   0  0  0  0  0  0
  -27.3937  -29.7226   25.4743 H   0  0  0  0  0  0
  -27.8805  -30.4227   23.9490 H   0  0  0  0  0  0
  -27.2663  -33.3659   26.2012 H   0  0  0  0  0  0
  -28.3877  -32.6868   25.0344 H   0  0  0  0  0  0
  -28.0680  -31.8503   26.5467 H   0  0  0  0  0  0
  -28.2590  -38.0092   24.7500 H   0  0  0  0  0  0
  -28.1069  -36.2626   24.6295 H   0  0  0  0  0  0
  -27.2308  -37.1440   25.8872 H   0  0  0  0  0  0
  -20.9433  -29.8729   21.6803 H   0  0  0  0  0  0
  -26.0161  -38.2851   24.1388 H   0  0  0  0  0  0
  -32.4748  -23.1646   20.5015 H   0  0  0  0  0  0
  -30.8721  -25.0398   20.3297 H   0  0  0  0  0  0
  -31.7629  -20.8251   20.5014 H   0  0  0  0  0  0
  -27.6724  -22.1635   20.0782 H   0  0  0  0  0  0
  -27.2886  -24.7433   20.8513 H   0  0  0  0  0  0
  -27.5684  -24.6977   19.1214 H   0  0  0  0  0  0
  -30.9035  -18.8942   21.1323 H   0  0  0  0  0  0
  -29.3641  -18.4062   21.7495 H   0  0  0  0  0  0
  -30.8723  -17.3074   19.3558 H   0  0  0  0  0  0
  -29.1576  -17.3333   19.2032 H   0  0  0  0  0  0
  -28.2117  -19.7612   20.1228 H   0  0  0  0  0  0
  -28.8787  -15.6973   20.9135 H   0  0  0  0  0  0
  1 25  1  0  0  0
  1 30  2  0  0  0
  1 81  1  0  0  0
  2  3  1  0  0  0
  2 25  1  0  0  0
  2 82  1  0  0  0
  2 83  1  0  0  0
  3  4  1  0  0  0
  3 84  1  0  0  0
  3 85  1  0  0  0
  4  5  1  0  0  0
  4 86  1  0  0  0
  4 87  1  0  0  0
  5  6  1  0  0  0
  5 26  1  0  0  0
  5 88  1  0  0  0
  6 25  1  0  0  0
  6 89  1  0  0  0
  6 90  1  0  0  0
  7  8  2  0  0  0
  7 26  1  0  0  0
  7 29  1  0  0  0
  8  9  1  0  0  0
  8 22  1  0  0  0
  9 10  1  0  0  0
  9 27  2  0  0  0
 10 11  2  0  0  0
 10 15  1  0  0  0
 11 12  1  0  0  0
 11 91  1  0  0  0
 12 13  2  0  0  0
 12 92  1  0  0  0
 13 14  1  0  0  0
 13 31  1  0  0  0
 14 15  2  0  0  0
 14 93  1  0  0  0
 15 94  1  0  0  0
 16 17  2  0  0  0
 16 21  1  0  0  0
 16 31  1  0  0  0
 17 18  1  0  0  0
 17 95  1  0  0  0
 18 19  2  0  0  0
 18 96  1  0  0  0
 19 20  1  0  0  0
 19 24  1  0  0  0
 20 21  2  0  0  0
 20 97  1  0  0  0
 21 23  1  0  0  0
 22 28  1  0  0  0
 22 32  2  0  0  0
 26 27  1  0  0  0
 28 98  1  0  0  0
 28 99  1  0  0  0
 29100  1  0  0  0
 29101  1  0  0  0
 33 34  1  0  0  0
 33 66  1  0  0  0
 33 70  2  0  0  0
 34 36  1  0  0  0
 34 59  1  0  0  0
 34102  1  0  0  0
 35 44  2  0  0  0
 35 45  1  0  0  0
 35 68  1  0  0  0
 36 56  1  0  0  0
 36103  1  0  0  0
 37 39  1  0  0  0
 37 47  1  0  0  0
 37 66  1  0  0  0
 37104  1  0  0  0
 38 43  2  0  0  0
 38 46  1  0  0  0
 38 47  1  0  0  0
 39 64  1  0  0  0
 39 67  2  0  0  0
 40 52  1  0  0  0
 40 53  2  0  0  0
 40 58  1  0  0  0
 41105  1  0  0  0
 41106  1  0  0  0
 41107  1  0  0  0
 41 48  1  0  0  0
 42 43  1  0  0  0
 42 66  1  0  0  0
 42108  1  0  0  0
 42109  1  0  0  0
 43 44  1  0  0  0
 44110  1  0  0  0
 45 46  2  0  0  0
 45111  1  0  0  0
 46112  1  0  0  0
 47113  1  0  0  0
 47114  1  0  0  0
 48 56  1  0  0  0
 48 65  1  0  0  0
 48115  1  0  0  0
 49 50  1  0  0  0
 49 53  1  0  0  0
 49 64  1  0  0  0
 49116  1  0  0  0
 50 51  1  0  0  0
 50117  1  0  0  0
 50118  1  0  0  0
 51 52  1  0  0  0
 51119  1  0  0  0
 51120  1  0  0  0
 52121  1  0  0  0
 52122  1  0  0  0
 53 54  1  0  0  0
 54 55  2  0  0  0
 54123  1  0  0  0
 55 57  1  0  0  0
 55124  1  0  0  0
 56 69  2  0  0  0
 57 58  2  0  0  0
 57125  1  0  0  0
 58126  1  0  0  0
 59 60  1  0  0  0
 59 61  1  0  0  0
 59 62  1  0  0  0
 60127  1  0  0  0
 60128  1  0  0  0
 60129  1  0  0  0
 61130  1  0  0  0
 61131  1  0  0  0
 61132  1  0  0  0
 62133  1  0  0  0
 62134  1  0  0  0
 62135  1  0  0  0
 63 65  1  0  0  0
 63136  1  0  0  0
 63137  1  0  0  0
 63138  1  0  0  0
 64139  1  0  0  0
 65140  1  0  0  0
 68 77  1  0  0  0
 71 72  2  0  0  0
 71 73  1  0  0  0
 71141  1  0  0  0
 72 75  1  0  0  0
 72142  1  0  0  0
 73 76  2  0  0  0
 73143  1  0  0  0
 74 75  2  0  0  0
 74 76  1  0  0  0
 74144  1  0  0  0
 75 77  1  0  0  0
 76 80  1  0  0  0
 77145  1  0  0  0
 77146  1  0  0  0
 78 79  1  0  0  0
 78 80  1  0  0  0
 78147  1  0  0  0
 78148  1  0  0  0
 79 81  1  0  0  0
 79149  1  0  0  0
 79150  1  0  0  0
 80151  1  0  0  0
 81152  1  0  0  0
M  ISO  4   1 100  68 101  77 101  81 100
M  END
> <chiral flag>
0

> <version>
0

> <s_m_source_file>
/data/baiqing/PycharmProjects/Reinvent-master-3.2/result/LINK_invent/BTK/process_docking_weight1_custom_sum_contain_oxygen_bond_distance_aromatic_linkinvent_7_9_3/rearranged_h_0126.sdf

> <i_m_source_file_index>
57

> <r_mmod_Potential_Energy-OPLS-2005>
97.4958877563477

> <r_mmod_Stretch_Energy-OPLS-2005>
114.411865234375

> <r_mmod_Bend_Energy-OPLS-2005>
169.167358398438

> <r_mmod_Torsional_Energy-OPLS-2005>
218.305221557617

> <r_mmod_Improper_Torsional_Energy-OPLS-2005>
9.30879402160645

> <r_mmod_Van_der_Waal_Energy-OPLS-2005>
141.872970581055

> <r_mmod_Electrostatic_Energy-OPLS-2005>
-413.545471191406

> <r_mmod_Solvation_Energy-OPLS-2005>
-227.949829101562

> <b_mmod_Minimization_Converged-OPLS-2005>
0

> <r_mmod_RMS_Derivative-OPLS-2005>
4.96575164794922

$$$$
57
                    3D
 Structure written by MMmdl.
197207  0  0  1  0            999 V2000
  -30.6804  -14.5067   20.6279 C   0  0  0  0  0  0
  -30.4265  -12.3602   19.3924 C   0  0  0  0  0  0
  -29.4954  -12.5156   18.1734 C   0  0  0  0  0  0
  -28.0157  -12.3143   18.5789 C   0  0  0  0  0  0
  -27.6514  -13.1461   19.8328 C   0  0  2  0  0  0
  -28.6985  -12.9054   20.9495 C   0  0  0  0  0  0
  -25.2623  -13.7953   20.5557 C   0  0  0  0  0  0
  -24.1859  -13.0302   20.9165 C   0  0  0  0  0  0
  -24.6383  -11.6747   20.8806 C   0  0  0  0  0  0
  -23.9035  -10.4172   21.0532 C   0  0  0  0  0  0
  -24.3555   -9.4067   21.9307 C   0  0  0  0  0  0
  -23.6202   -8.2108   22.0779 C   0  0  0  0  0  0
  -22.4189   -8.0238   21.3553 C   0  0  0  0  0  0
  -21.9854   -9.0252   20.4686 C   0  0  0  0  0  0
  -22.7239  -10.2086   20.3136 C   0  0  0  0  0  0
  -21.6838   -6.0670   22.5248 C   0  0  0  0  0  0
  -21.4071   -6.5583   23.8190 C   0  0  0  0  0  0
  -21.3637   -5.6728   24.9141 C   0  0  0  0  0  0
  -21.6041   -4.2994   24.7208 C   0  0  0  0  0  0
  -21.8847   -3.8072   23.4356 C   0  0  0  0  0  0
  -21.9183   -4.6877   22.3407 C   0  0  0  0  0  0
  -22.7908  -13.5178   21.1759 C   0  0  0  0  0  0
  -22.1643   -4.2037   21.0974 F   0  0  0  0  0  0
  -21.5563   -3.4528   25.7760 F   0  0  0  0  0  0
  -29.9977  -13.3340   20.4234 N   0  0  0  0  0  0
  -26.2965  -12.9000   20.3112 N   0  0  0  0  0  0
  -25.9242  -11.6240   20.5687 N   0  0  0  0  0  0
  -22.0471  -12.8331   22.0365 N   0  0  0  0  0  0
  -25.4269  -15.1677   20.3952 N   0  0  0  0  0  0
  -31.8172  -14.6080   20.1448 O   0  0  0  0  0  0
  -21.6587   -6.8825   21.4218 O   0  0  0  0  0  0
  -22.3685  -14.5500   20.6555 O   0  0  0  0  0  0
  -24.6078  -31.8781   23.2101 C   0  0  0  0  0  0
  -25.8975  -32.4900   23.8407 C   0  0  1  0  0  0
  -27.2411  -27.4767   20.0890 C   0  0  0  0  0  0
  -25.5841  -33.8680   24.2392 N   0  0  0  0  0  0
  -23.3915  -30.4967   21.5580 C   0  0  2  0  0  0
  -24.8368  -28.9593   20.1248 C   0  0  0  0  0  0
  -22.7384  -29.4688   22.5088 C   0  0  0  0  0  0
  -18.0268  -28.1347   22.8513 C   0  0  0  0  0  0
  -24.1488  -36.7315   23.2636 C   0  0  0  0  0  0
  -25.9118  -30.8580   21.3455 C   0  0  0  0  0  0
  -25.9915  -29.4870   20.7088 C   0  0  0  0  0  0
  -27.1955  -28.7532   20.6866 C   0  0  0  0  0  0
  -26.0611  -26.9436   19.5158 C   0  0  0  0  0  0
  -24.8621  -27.6873   19.5252 C   0  0  0  0  0  0
  -23.5967  -29.8202   20.1757 C   0  0  0  0  0  0
  -25.4099  -36.3152   24.0370 C   0  0  1  0  0  0
  -20.5852  -28.3616   23.1394 C   0  0  2  0  0  0
  -20.6745  -26.9377   22.5446 C   0  0  0  0  0  0
  -19.5724  -26.6392   21.5223 C   0  0  0  0  0  0
  -18.1906  -26.7898   22.1637 C   0  0  0  0  0  0
  -19.1530  -28.8812   23.2955 C   0  0  0  0  0  0
  -18.9442  -30.1417   23.8946 C   0  0  0  0  0  0
  -17.6457  -30.6577   24.0569 C   0  0  0  0  0  0
  -25.9009  -34.9532   23.5174 C   0  0  0  0  0  0
  -16.5349  -29.9066   23.6328 C   0  0  0  0  0  0
  -16.7273  -28.6481   23.0364 C   0  0  0  0  0  0
  -26.4394  -31.6597   25.0680 C   0  0  0  0  0  0
  -25.3673  -31.3662   26.1443 C   0  0  0  0  0  0
  -27.0176  -30.3092   24.5857 C   0  0  0  0  0  0
  -27.6059  -32.4240   25.7403 C   0  0  0  0  0  0
  -27.5611  -37.1797   24.8465 C   0  0  0  0  0  0
  -21.4127  -29.3015   22.3835 N   0  0  0  0  0  0
  -26.4303  -37.3834   23.9451 N   0  0  0  0  0  0
  -24.6574  -31.0894   22.0995 N   0  0  0  0  0  0
  -23.4189  -28.8246   23.3126 O   0  0  0  0  0  0
  -28.4682  -26.8543   20.0641 O   0  0  0  0  0  0
  -26.5612  -34.8955   22.4782 O   0  0  0  0  0  0
  -23.5296  -32.1512   23.7534 O   0  0  0  0  0  0
  -34.8672  -25.4731   19.9719 C   0  0  0  0  0  0
  -33.3306  -25.5243   19.9183 C   0  0  0  0  0  0
  -35.3853  -24.1848   19.3205 C   0  0  0  0  0  0
  -28.2895  -17.2833   21.8637 C   0  0  0  0  0  0
  -28.9640  -18.1054   20.7679 C   0  0  0  0  0  0
  -32.6957  -24.2800   20.5566 C   0  0  0  0  0  0
  -34.7996  -22.9480   20.0146 C   0  0  0  0  0  0
  -31.3925  -17.6986   18.7343 C   0  0  0  0  0  0
  -28.7186  -15.8051   21.7346 C   0  0  0  0  0  0
  -30.9781  -16.7592   21.6464 C   0  0  0  0  0  0
  -32.2676  -18.1217   17.5593 C   0  0  0  0  0  0
  -31.9042  -20.4739   18.1292 C   0  0  0  0  0  0
  -30.4840  -18.1265   21.0611 C   0  0  1  0  0  0
  -31.3949  -18.6893   19.9263 C   0  0  2  0  0  0
  -33.2600  -22.9488   20.0072 C   0  0  0  0  0  0
  -31.0806  -20.1467   19.4261 C   0  0  1  0  0  0
  -32.7212  -21.7122   20.7727 C   0  0  0  0  0  0
  -30.3731  -21.3800   21.7303 C   0  0  0  0  0  0
  -29.8425  -22.7758   22.1389 C   0  0  0  0  0  0
  -28.5473  -24.7446   21.2604 C   0  0  0  0  0  0
  -28.5739  -25.4473   19.8926 C   0  0  0  0  0  0
  -31.2491  -21.3559   20.4374 C   0  0  2  0  0  0
  -30.1309  -15.5775   21.3105 N   0  0  0  0  0  0
  -31.8324  -19.4389   17.0800 N   0  3  0  0  0  0
  -28.9162  -23.3180   21.1141 N   0  3  0  0  0  0
  -31.4656  -12.4827   19.0872 H   0  0  0  0  0  0
  -30.3650  -11.3411   19.7799 H   0  0  0  0  0  0
  -29.7687  -11.8084   17.3864 H   0  0  0  0  0  0
  -29.6306  -13.5111   17.7474 H   0  0  0  0  0  0
  -27.8398  -11.2503   18.7519 H   0  0  0  0  0  0
  -27.3655  -12.5837   17.7444 H   0  0  0  0  0  0
  -27.6822  -14.1600   19.4435 H   0  0  0  0  0  0
  -28.7390  -11.8392   21.1793 H   0  0  0  0  0  0
  -28.4428  -13.3432   21.9062 H   0  0  0  0  0  0
  -25.2675   -9.5477   22.4946 H   0  0  0  0  0  0
  -23.9817   -7.4478   22.7538 H   0  0  0  0  0  0
  -21.0719   -8.8892   19.9067 H   0  0  0  0  0  0
  -22.3782  -10.9657   19.6242 H   0  0  0  0  0  0
  -21.2195   -7.6097   23.9677 H   0  0  0  0  0  0
  -21.1397   -6.0460   25.9024 H   0  0  0  0  0  0
  -22.0673   -2.7553   23.2910 H   0  0  0  0  0  0
  -22.3906  -11.9985   22.4896 H   0  0  0  0  0  0
  -21.1173  -13.1644   22.2506 H   0  0  0  0  0  0
  -24.6564  -15.8128   20.5292 H   0  0  0  0  0  0
  -26.2613  -15.6193   20.0498 H   0  0  0  0  0  0
  -26.7052  -32.5633   23.1195 H   0  0  0  0  0  0
  -24.9931  -33.9856   25.0475 H   0  0  0  0  0  0
  -22.6742  -31.3107   21.4186 H   0  0  0  0  0  0
  -23.3801  -35.9599   23.3271 H   0  0  0  0  0  0
  -24.3594  -36.8939   22.2051 H   0  0  0  0  0  0
  -23.7172  -37.6493   23.6641 H   0  0  0  0  0  0
  -25.9889  -31.6119   20.5615 H   0  0  0  0  0  0
  -26.8165  -30.9450   21.9354 H   0  0  0  0  0  0
  -28.0960  -29.1663   21.1200 H   0  0  0  0  0  0
  -26.0341  -25.9786   19.0311 H   0  0  0  0  0  0
  -23.9749  -27.2862   19.0552 H   0  0  0  0  0  0
  -23.6872  -30.5891   19.4074 H   0  0  0  0  0  0
  -22.7218  -29.2286   19.8975 H   0  0  0  0  0  0
  -25.1259  -36.2037   25.0863 H   0  0  0  0  0  0
  -20.9971  -28.3167   24.1496 H   0  0  0  0  0  0
  -20.5611  -26.2235   23.3601 H   0  0  0  0  0  0
  -21.6620  -26.7392   22.1270 H   0  0  0  0  0  0
  -19.6878  -25.6316   21.1214 H   0  0  0  0  0  0
  -19.6669  -27.3225   20.6759 H   0  0  0  0  0  0
  -17.4190  -26.6725   21.4019 H   0  0  0  0  0  0
  -18.0281  -25.9996   22.8979 H   0  0  0  0  0  0
  -19.7928  -30.7238   24.2335 H   0  0  0  0  0  0
  -17.5003  -31.6249   24.5173 H   0  0  0  0  0  0
  -15.5348  -30.2997   23.7572 H   0  0  0  0  0  0
  -15.8660  -28.0788   22.7055 H   0  0  0  0  0  0
  -24.5873  -30.6961   25.7786 H   0  0  0  0  0  0
  -24.8773  -32.2764   26.4905 H   0  0  0  0  0  0
  -25.8024  -30.8841   27.0198 H   0  0  0  0  0  0
  -26.2620  -29.6933   24.0964 H   0  0  0  0  0  0
  -27.4107  -29.7224   25.4165 H   0  0  0  0  0  0
  -27.8375  -30.4525   23.8832 H   0  0  0  0  0  0
  -27.2799  -33.3586   26.1981 H   0  0  0  0  0  0
  -28.3840  -32.6717   25.0168 H   0  0  0  0  0  0
  -28.0723  -31.8308   26.5271 H   0  0  0  0  0  0
  -28.2609  -38.0122   24.7630 H   0  0  0  0  0  0
  -28.1135  -36.2685   24.6142 H   0  0  0  0  0  0
  -27.2361  -37.1257   25.8869 H   0  0  0  0  0  0
  -20.9271  -29.8721   21.7055 H   0  0  0  0  0  0
  -26.0214  -38.2928   24.1482 H   0  0  0  0  0  0
  -35.2127  -25.5314   21.0058 H   0  0  0  0  0  0
  -35.2902  -26.3370   19.4563 H   0  0  0  0  0  0
  -33.0049  -25.6154   18.8803 H   0  0  0  0  0  0
  -32.9707  -26.4203   20.4271 H   0  0  0  0  0  0
  -36.4754  -24.1544   19.3672 H   0  0  0  0  0  0
  -35.1215  -24.1747   18.2628 H   0  0  0  0  0  0
  -27.2005  -17.3706   21.8012 H   0  0  0  0  0  0
  -28.5591  -17.6878   22.8382 H   0  0  0  0  0  0
  -28.5329  -19.1044   20.7421 H   0  0  0  0  0  0
  -28.7371  -17.6637   19.7944 H   0  0  0  0  0  0
  -31.6216  -24.3235   20.3810 H   0  0  0  0  0  0
  -32.8317  -24.3213   21.6382 H   0  0  0  0  0  0
  -35.1701  -22.8988   21.0389 H   0  0  0  0  0  0
  -35.1624  -22.0518   19.5100 H   0  0  0  0  0  0
  -31.7401  -16.7278   19.0580 H   0  0  0  0  0  0
  -30.3803  -17.5506   18.3633 H   0  0  0  0  0  0
  -28.0590  -15.4346   20.9682 H   0  0  0  0  0  0
  -28.4856  -15.2922   22.6720 H   0  0  0  0  0  0
  -30.9877  -16.8340   22.7357 H   0  0  0  0  0  0
  -32.0288  -16.6173   21.3992 H   0  0  0  0  0  0
  -32.1774  -17.3906   16.7552 H   0  0  0  0  0  0
  -33.3228  -18.1474   17.8389 H   0  0  0  0  0  0
  -32.9666  -20.5817   18.3551 H   0  0  0  0  0  0
  -31.5757  -21.4227   17.7041 H   0  0  0  0  0  0
  -30.6013  -18.8142   21.8916 H   0  0  0  0  0  0
  -32.4066  -18.7101   20.3375 H   0  0  0  0  0  0
  -32.9553  -22.8872   18.9616 H   0  0  0  0  0  0
  -30.0358  -20.1363   19.1144 H   0  0  0  0  0  0
  -32.8445  -21.8861   21.8430 H   0  0  0  0  0  0
  -33.3520  -20.8437   20.5810 H   0  0  0  0  0  0
  -29.5091  -20.7337   21.6319 H   0  0  0  0  0  0
  -30.9448  -20.9748   22.5707 H   0  0  0  0  0  0
  -30.6797  -23.4526   22.3089 H   0  0  0  0  0  0
  -29.3157  -22.7167   23.0924 H   0  0  0  0  0  0
  -27.5599  -24.8280   21.7218 H   0  0  0  0  0  0
  -29.2459  -25.2546   21.9267 H   0  0  0  0  0  0
  -27.8668  -25.0200   19.1882 H   0  0  0  0  0  0
  -29.5498  -25.2947   19.4298 H   0  0  0  0  0  0
  -30.8715  -22.1897   19.8506 H   0  0  0  0  0  0
  -30.8983  -19.3780   16.7070 H   0  0  0  0  0  0
  -32.4356  -19.7104   16.3175 H   0  0  0  0  0  0
  -28.0745  -22.7602   21.0916 H   0  0  0  0  0  0
  -29.3699  -23.2107   20.2185 H   0  0  0  0  0  0
  1 25  1  0  0  0
  1 30  2  0  0  0
  1 93  1  0  0  0
  2  3  1  0  0  0
  2 25  1  0  0  0
  2 96  1  0  0  0
  2 97  1  0  0  0
  3  4  1  0  0  0
  3 98  1  0  0  0
  3 99  1  0  0  0
  4  5  1  0  0  0
  4100  1  0  0  0
  4101  1  0  0  0
  5  6  1  0  0  0
  5 26  1  0  0  0
  5102  1  0  0  0
  6 25  1  0  0  0
  6103  1  0  0  0
  6104  1  0  0  0
  7  8  2  0  0  0
  7 26  1  0  0  0
  7 29  1  0  0  0
  8  9  1  0  0  0
  8 22  1  0  0  0
  9 10  1  0  0  0
  9 27  2  0  0  0
 10 11  2  0  0  0
 10 15  1  0  0  0
 11 12  1  0  0  0
 11105  1  0  0  0
 12 13  2  0  0  0
 12106  1  0  0  0
 13 14  1  0  0  0
 13 31  1  0  0  0
 14 15  2  0  0  0
 14107  1  0  0  0
 15108  1  0  0  0
 16 17  2  0  0  0
 16 21  1  0  0  0
 16 31  1  0  0  0
 17 18  1  0  0  0
 17109  1  0  0  0
 18 19  2  0  0  0
 18110  1  0  0  0
 19 20  1  0  0  0
 19 24  1  0  0  0
 20 21  2  0  0  0
 20111  1  0  0  0
 21 23  1  0  0  0
 22 28  1  0  0  0
 22 32  2  0  0  0
 26 27  1  0  0  0
 28112  1  0  0  0
 28113  1  0  0  0
 29114  1  0  0  0
 29115  1  0  0  0
 33 34  1  0  0  0
 33 66  1  0  0  0
 33 70  2  0  0  0
 34 36  1  0  0  0
 34 59  1  0  0  0
 34116  1  0  0  0
 35 44  2  0  0  0
 35 45  1  0  0  0
 35 68  1  0  0  0
 36 56  1  0  0  0
 36117  1  0  0  0
 37 39  1  0  0  0
 37 47  1  0  0  0
 37 66  1  0  0  0
 37118  1  0  0  0
 38 43  2  0  0  0
 38 46  1  0  0  0
 38 47  1  0  0  0
 39 64  1  0  0  0
 39 67  2  0  0  0
 40 52  1  0  0  0
 40 53  2  0  0  0
 40 58  1  0  0  0
 41119  1  0  0  0
 41120  1  0  0  0
 41121  1  0  0  0
 41 48  1  0  0  0
 42 43  1  0  0  0
 42 66  1  0  0  0
 42122  1  0  0  0
 42123  1  0  0  0
 43 44  1  0  0  0
 44124  1  0  0  0
 45 46  2  0  0  0
 45125  1  0  0  0
 46126  1  0  0  0
 47127  1  0  0  0
 47128  1  0  0  0
 48 56  1  0  0  0
 48 65  1  0  0  0
 48129  1  0  0  0
 49 50  1  0  0  0
 49 53  1  0  0  0
 49 64  1  0  0  0
 49130  1  0  0  0
 50 51  1  0  0  0
 50131  1  0  0  0
 50132  1  0  0  0
 51 52  1  0  0  0
 51133  1  0  0  0
 51134  1  0  0  0
 52135  1  0  0  0
 52136  1  0  0  0
 53 54  1  0  0  0
 54 55  2  0  0  0
 54137  1  0  0  0
 55 57  1  0  0  0
 55138  1  0  0  0
 56 69  2  0  0  0
 57 58  2  0  0  0
 57139  1  0  0  0
 58140  1  0  0  0
 59 60  1  0  0  0
 59 61  1  0  0  0
 59 62  1  0  0  0
 60141  1  0  0  0
 60142  1  0  0  0
 60143  1  0  0  0
 61144  1  0  0  0
 61145  1  0  0  0
 61146  1  0  0  0
 62147  1  0  0  0
 62148  1  0  0  0
 62149  1  0  0  0
 63 65  1  0  0  0
 63150  1  0  0  0
 63151  1  0  0  0
 63152  1  0  0  0
 64153  1  0  0  0
 65154  1  0  0  0
 68 91  1  0  0  0
 71 72  1  0  0  0
 71 73  1  0  0  0
 71155  1  0  0  0
 71156  1  0  0  0
 72 76  1  0  0  0
 72157  1  0  0  0
 72158  1  0  0  0
 73 77  1  0  0  0
 73159  1  0  0  0
 73160  1  0  0  0
 74 75  1  0  0  0
 74 79  1  0  0  0
 74161  1  0  0  0
 74162  1  0  0  0
 75163  1  0  0  0
 75164  1  0  0  0
 75 83  1  0  0  0
 76 85  1  0  0  0
 76165  1  0  0  0
 76166  1  0  0  0
 77 85  1  0  0  0
 77167  1  0  0  0
 77168  1  0  0  0
 78 81  1  0  0  0
 78169  1  0  0  0
 78170  1  0  0  0
 78 84  1  0  0  0
 79 93  1  0  0  0
 79171  1  0  0  0
 79172  1  0  0  0
 80 83  1  0  0  0
 80 93  1  0  0  0
 80173  1  0  0  0
 80174  1  0  0  0
 81 94  1  0  0  0
 81175  1  0  0  0
 81176  1  0  0  0
 82 94  1  0  0  0
 82177  1  0  0  0
 82178  1  0  0  0
 82 86  1  0  0  0
 83 84  1  0  0  0
 83179  1  0  0  0
 84 86  1  0  0  0
 84180  1  0  0  0
 85 87  1  0  0  0
 85181  1  0  0  0
 86 92  1  0  0  0
 86182  1  0  0  0
 87183  1  0  0  0
 87184  1  0  0  0
 87 92  1  0  0  0
 88 89  1  0  0  0
 88 92  1  0  0  0
 88185  1  0  0  0
 88186  1  0  0  0
 89 95  1  0  0  0
 89187  1  0  0  0
 89188  1  0  0  0
 90 91  1  0  0  0
 90 95  1  0  0  0
 90189  1  0  0  0
 90190  1  0  0  0
 91191  1  0  0  0
 91192  1  0  0  0
 92193  1  0  0  0
 94194  1  0  0  0
 94195  1  0  0  0
 95196  1  0  0  0
 95197  1  0  0  0
M  CHG  2  94   1  95   1
M  ISO  4   1 100  68 101  91 101  93 100
M  END
> <chiral flag>
0

> <version>
0

> <s_m_source_file>
/data/baiqing/PycharmProjects/Reinvent-master-3.2/result/LINK_invent/BTK/process_docking_weight1_custom_sum_contain_oxygen_bond_distance_aromatic_linkinvent_7_9_3/rearranged_h_0126.sdf

> <i_m_source_file_index>
58

> <r_mmod_Potential_Energy-OPLS-2005>
90.3981781005859

> <r_mmod_Stretch_Energy-OPLS-2005>
57.6143836975098

> <r_mmod_Bend_Energy-OPLS-2005>
184.433395385742

> <r_mmod_Torsional_Energy-OPLS-2005>
413.096069335938

> <r_mmod_Improper_Torsional_Energy-OPLS-2005>
1.91528308391571

> <r_mmod_Van_der_Waal_Energy-OPLS-2005>
172.453155517578

> <r_mmod_Electrostatic_Energy-OPLS-2005>
127.046691894531

> <r_mmod_Solvation_Energy-OPLS-2005>
-884.864318847656

> <b_mmod_Minimization_Converged-OPLS-2005>
0

> <r_mmod_RMS_Derivative-OPLS-2005>
7.67989349365234

$$$$
58
                    3D
 Structure written by MMmdl.
181190  0  0  1  0            999 V2000
  -30.8910  -14.1946   20.7822 C   0  0  0  0  0  0
  -30.4105  -12.2725   19.3401 C   0  0  0  0  0  0
  -29.4611  -12.5415   18.1668 C   0  0  0  0  0  0
  -27.9985  -12.3806   18.6075 C   0  0  0  0  0  0
  -27.6725  -13.2039   19.8782 C   0  0  2  0  0  0
  -28.7194  -12.9554   20.9899 C   0  0  0  0  0  0
  -25.2641  -13.8170   20.5701 C   0  0  0  0  0  0
  -24.1877  -13.0453   20.9188 C   0  0  0  0  0  0
  -24.6428  -11.6916   20.8740 C   0  0  0  0  0  0
  -23.9082  -10.4300   21.0407 C   0  0  0  0  0  0
  -24.3627   -9.4210   21.9183 C   0  0  0  0  0  0
  -23.6300   -8.2249   22.0751 C   0  0  0  0  0  0
  -22.4286   -8.0289   21.3536 C   0  0  0  0  0  0
  -21.9923   -9.0268   20.4643 C   0  0  0  0  0  0
  -22.7255  -10.2147   20.3052 C   0  0  0  0  0  0
  -21.6846   -6.0741   22.5281 C   0  0  0  0  0  0
  -21.4020   -6.5644   23.8215 C   0  0  0  0  0  0
  -21.3651   -5.6794   24.9173 C   0  0  0  0  0  0
  -21.6052   -4.3059   24.7225 C   0  0  0  0  0  0
  -21.8810   -3.8150   23.4343 C   0  0  0  0  0  0
  -21.9200   -4.6972   22.3404 C   0  0  0  0  0  0
  -22.7893  -13.5250   21.1842 C   0  0  0  0  0  0
  -22.1659   -4.2161   21.0977 F   0  0  0  0  0  0
  -21.5629   -3.4540   25.7732 F   0  0  0  0  0  0
  -30.0772  -13.1698   20.4479 N   0  0  0  0  0  0
  -26.3098  -12.9347   20.3423 N   0  0  0  0  0  0
  -25.9366  -11.6506   20.5802 N   0  0  0  0  0  0
  -22.0527  -12.8232   22.0388 N   0  0  0  0  0  0
  -25.4381  -15.1883   20.4092 N   0  0  0  0  0  0
  -31.7085  -14.7203   20.0205 O   0  0  0  0  0  0
  -21.6638   -6.8891   21.4244 O   0  0  0  0  0  0
  -22.3578  -14.5552   20.6690 O   0  0  0  0  0  0
  -24.6128  -31.8703   23.2117 C   0  0  0  0  0  0
  -25.9029  -32.4840   23.8425 C   0  0  1  0  0  0
  -27.2251  -27.4652   20.0959 C   0  0  0  0  0  0
  -25.5902  -33.8644   24.2352 N   0  0  0  0  0  0
  -23.3995  -30.4959   21.5499 C   0  0  2  0  0  0
  -24.8451  -28.9737   20.1047 C   0  0  0  0  0  0
  -22.7425  -29.4657   22.4969 C   0  0  0  0  0  0
  -18.0286  -28.1391   22.8493 C   0  0  0  0  0  0
  -24.1478  -36.7345   23.2634 C   0  0  0  0  0  0
  -25.9261  -30.8512   21.3554 C   0  0  0  0  0  0
  -26.0038  -29.4898   20.6976 C   0  0  0  0  0  0
  -27.2015  -28.7442   20.6852 C   0  0  0  0  0  0
  -26.0594  -26.9620   19.4803 C   0  0  0  0  0  0
  -24.8681  -27.7114   19.4877 C   0  0  0  0  0  0
  -23.6047  -29.8347   20.1625 C   0  0  0  0  0  0
  -25.4096  -36.3128   24.0329 C   0  0  1  0  0  0
  -20.5876  -28.3654   23.1327 C   0  0  2  0  0  0
  -20.6787  -26.9390   22.5432 C   0  0  0  0  0  0
  -19.5763  -26.6390   21.5237 C   0  0  0  0  0  0
  -18.1918  -26.7939   22.1624 C   0  0  0  0  0  0
  -19.1530  -28.8839   23.2904 C   0  0  0  0  0  0
  -18.9446  -30.1458   23.8903 C   0  0  0  0  0  0
  -17.6444  -30.6580   24.0563 C   0  0  0  0  0  0
  -25.9033  -34.9495   23.5136 C   0  0  0  0  0  0
  -16.5340  -29.9080   23.6343 C   0  0  0  0  0  0
  -16.7266  -28.6510   23.0334 C   0  0  0  0  0  0
  -26.4453  -31.6605   25.0750 C   0  0  0  0  0  0
  -25.3720  -31.3682   26.1494 C   0  0  0  0  0  0
  -27.0271  -30.3058   24.6101 C   0  0  0  0  0  0
  -27.6038  -32.4313   25.7503 C   0  0  0  0  0  0
  -27.5571  -37.1813   24.8462 C   0  0  0  0  0  0
  -21.4153  -29.3028   22.3739 N   0  0  0  0  0  0
  -26.4286  -37.3813   23.9416 N   0  0  0  0  0  0
  -24.6646  -31.0849   22.0988 N   0  0  0  0  0  0
  -23.4233  -28.8192   23.2986 O   0  0  0  0  0  0
  -28.3628  -26.6985   20.1789 O   0  0  0  0  0  0
  -26.5619  -34.8934   22.4716 O   0  0  0  0  0  0
  -23.5342  -32.1431   23.7544 O   0  0  0  0  0  0
  -27.4294  -18.2552   23.0602 C   0  0  0  0  0  0
  -29.2742  -19.3884   24.3861 C   0  0  0  0  0  0
  -27.5121  -17.0366   24.0030 C   0  0  0  0  0  0
  -29.3389  -18.1723   25.3270 C   0  0  0  0  0  0
  -27.6036  -24.5051   23.2628 C   0  0  0  0  0  0
  -29.4578  -23.4585   21.8803 C   0  0  0  0  0  0
  -27.8298  -25.7863   22.4250 C   0  0  0  0  0  0
  -29.4425  -24.6201   20.8551 C   0  0  0  0  0  0
  -27.8758  -19.5642   23.7531 C   0  0  1  0  0  0
  -28.0736  -23.2234   22.5395 C   0  0  1  0  0  0
  -28.9164  -16.8732   24.6166 C   0  0  2  0  0  0
  -28.1770  -25.4967   20.9408 C   0  0  2  0  0  0
  -33.1292  -14.4680   23.2655 C   0  0  0  0  0  0
  -27.8453  -20.7560   22.7707 C   0  0  0  0  0  0
  -31.1630  -15.9121   24.0183 C   0  0  0  0  0  0
  -31.8797  -15.2515   22.8287 C   0  0  2  0  0  0
  -30.9372  -14.3887   22.1042 N   0  0  0  0  0  0
  -28.0610  -22.0557   23.4500 N   0  3  0  0  0  0
  -29.8841  -16.4929   23.5670 N   0  3  0  0  0  0
  -31.4484  -12.3862   19.0175 H   0  0  0  0  0  0
  -30.3183  -11.2384   19.6773 H   0  0  0  0  0  0
  -29.6800  -11.8622   17.3439 H   0  0  0  0  0  0
  -29.6235  -13.5500   17.7848 H   0  0  0  0  0  0
  -27.8179  -11.3205   18.7944 H   0  0  0  0  0  0
  -27.3281  -12.6649   17.7950 H   0  0  0  0  0  0
  -27.7305  -14.2570   19.6012 H   0  0  0  0  0  0
  -28.6465  -11.9319   21.3602 H   0  0  0  0  0  0
  -28.5003  -13.6033   21.8388 H   0  0  0  0  0  0
  -25.2775   -9.5676   22.4754 H   0  0  0  0  0  0
  -24.0007   -7.4633   22.7461 H   0  0  0  0  0  0
  -21.0858   -8.8789   19.8944 H   0  0  0  0  0  0
  -22.3721  -10.9685   19.6155 H   0  0  0  0  0  0
  -21.2005   -7.6149   23.9723 H   0  0  0  0  0  0
  -21.1479   -6.0519   25.9075 H   0  0  0  0  0  0
  -22.0603   -2.7618   23.2837 H   0  0  0  0  0  0
  -22.4124  -11.9886   22.4766 H   0  0  0  0  0  0
  -21.1142  -13.1242   22.2582 H   0  0  0  0  0  0
  -24.6700  -15.8442   20.4985 H   0  0  0  0  0  0
  -26.2899  -15.6191   20.0728 H   0  0  0  0  0  0
  -26.7089  -32.5533   23.1173 H   0  0  0  0  0  0
  -25.0034  -33.9825   25.0486 H   0  0  0  0  0  0
  -22.6830  -31.3088   21.4096 H   0  0  0  0  0  0
  -23.3730  -35.9680   23.3316 H   0  0  0  0  0  0
  -24.3569  -36.8988   22.2051 H   0  0  0  0  0  0
  -23.7237  -37.6547   23.6665 H   0  0  0  0  0  0
  -26.0397  -31.6196   20.5873 H   0  0  0  0  0  0
  -26.8178  -30.9062   21.9686 H   0  0  0  0  0  0
  -28.0951  -29.1306   21.1573 H   0  0  0  0  0  0
  -26.0640  -25.9883   19.0105 H   0  0  0  0  0  0
  -23.9799  -27.3089   19.0219 H   0  0  0  0  0  0
  -23.7024  -30.6120   19.4035 H   0  0  0  0  0  0
  -22.7276  -29.2525   19.8751 H   0  0  0  0  0  0
  -25.1253  -36.2001   25.0816 H   0  0  0  0  0  0
  -20.9953  -28.3209   24.1451 H   0  0  0  0  0  0
  -20.5715  -26.2248   23.3608 H   0  0  0  0  0  0
  -21.6636  -26.7458   22.1160 H   0  0  0  0  0  0
  -19.6926  -25.6311   21.1240 H   0  0  0  0  0  0
  -19.6699  -27.3222   20.6783 H   0  0  0  0  0  0
  -17.4197  -26.6703   21.4012 H   0  0  0  0  0  0
  -18.0263  -26.0075   22.9011 H   0  0  0  0  0  0
  -19.7915  -30.7291   24.2230 H   0  0  0  0  0  0
  -17.4995  -31.6251   24.5192 H   0  0  0  0  0  0
  -15.5347  -30.2978   23.7673 H   0  0  0  0  0  0
  -15.8669  -28.0862   22.7021 H   0  0  0  0  0  0
  -24.5902  -30.7014   25.7830 H   0  0  0  0  0  0
  -24.8853  -32.2813   26.4954 H   0  0  0  0  0  0
  -25.8053  -30.8841   27.0257 H   0  0  0  0  0  0
  -26.2803  -29.6810   24.1172 H   0  0  0  0  0  0
  -27.4105  -29.7300   25.4538 H   0  0  0  0  0  0
  -27.8606  -30.4408   23.9188 H   0  0  0  0  0  0
  -27.2702  -33.3635   26.2069 H   0  0  0  0  0  0
  -28.3833  -32.6870   25.0314 H   0  0  0  0  0  0
  -28.0712  -31.8437   26.5406 H   0  0  0  0  0  0
  -28.2581  -38.0123   24.7535 H   0  0  0  0  0  0
  -28.1067  -36.2662   24.6221 H   0  0  0  0  0  0
  -27.2309  -37.1416   25.8871 H   0  0  0  0  0  0
  -20.9308  -29.8746   21.6957 H   0  0  0  0  0  0
  -26.0179  -38.2885   24.1417 H   0  0  0  0  0  0
  -26.4039  -18.3551   22.7014 H   0  0  0  0  0  0
  -28.0358  -18.0831   22.1696 H   0  0  0  0  0  0
  -30.0281  -19.2941   23.6022 H   0  0  0  0  0  0
  -29.5457  -20.2768   24.9545 H   0  0  0  0  0  0
  -27.2205  -16.1288   23.4727 H   0  0  0  0  0  0
  -26.7846  -17.1524   24.8067 H   0  0  0  0  0  0
  -28.6707  -18.3395   26.1723 H   0  0  0  0  0  0
  -30.3391  -18.0781   25.7523 H   0  0  0  0  0  0
  -26.5407  -24.4104   23.4991 H   0  0  0  0  0  0
  -28.1092  -24.6180   24.2239 H   0  0  0  0  0  0
  -30.1864  -23.6897   22.6593 H   0  0  0  0  0  0
  -29.8270  -22.5558   21.3915 H   0  0  0  0  0  0
  -28.6333  -26.3735   22.8745 H   0  0  0  0  0  0
  -26.9361  -26.4035   22.5077 H   0  0  0  0  0  0
  -29.5284  -24.2222   19.8440 H   0  0  0  0  0  0
  -30.3277  -25.2377   21.0090 H   0  0  0  0  0  0
  -27.1583  -19.7621   24.5517 H   0  0  0  0  0  0
  -27.3474  -23.0173   21.7506 H   0  0  0  0  0  0
  -28.8719  -16.0629   25.3484 H   0  0  0  0  0  0
  -27.3590  -24.9241   20.5001 H   0  0  0  0  0  0
  -33.8306  -15.1169   23.7920 H   0  0  0  0  0  0
  -33.6562  -14.0519   22.4057 H   0  0  0  0  0  0
  -32.8799  -13.6430   23.9342 H   0  0  0  0  0  0
  -26.8764  -20.7807   22.2674 H   0  0  0  0  0  0
  -28.5923  -20.6151   21.9881 H   0  0  0  0  0  0
  -31.7942  -16.6784   24.4694 H   0  0  0  0  0  0
  -30.9744  -15.1651   24.7914 H   0  0  0  0  0  0
  -32.2117  -16.0504   22.1599 H   0  0  0  0  0  0
  -30.3826  -13.7382   22.6458 H   0  0  0  0  0  0
  -27.3023  -22.1761   24.1015 H   0  0  0  0  0  0
  -28.9126  -22.0374   23.9886 H   0  0  0  0  0  0
  -30.0746  -17.2818   22.9709 H   0  0  0  0  0  0
  -29.4512  -15.7871   22.9970 H   0  0  0  0  0  0
  1 25  1  0  0  0
  1 30  2  0  0  0
  1 87  1  0  0  0
  2  3  1  0  0  0
  2 25  1  0  0  0
  2 90  1  0  0  0
  2 91  1  0  0  0
  3  4  1  0  0  0
  3 92  1  0  0  0
  3 93  1  0  0  0
  4  5  1  0  0  0
  4 94  1  0  0  0
  4 95  1  0  0  0
  5  6  1  0  0  0
  5 26  1  0  0  0
  5 96  1  0  0  0
  6 25  1  0  0  0
  6 97  1  0  0  0
  6 98  1  0  0  0
  7  8  2  0  0  0
  7 26  1  0  0  0
  7 29  1  0  0  0
  8  9  1  0  0  0
  8 22  1  0  0  0
  9 10  1  0  0  0
  9 27  2  0  0  0
 10 11  2  0  0  0
 10 15  1  0  0  0
 11 12  1  0  0  0
 11 99  1  0  0  0
 12 13  2  0  0  0
 12100  1  0  0  0
 13 14  1  0  0  0
 13 31  1  0  0  0
 14 15  2  0  0  0
 14101  1  0  0  0
 15102  1  0  0  0
 16 17  2  0  0  0
 16 21  1  0  0  0
 16 31  1  0  0  0
 17 18  1  0  0  0
 17103  1  0  0  0
 18 19  2  0  0  0
 18104  1  0  0  0
 19 20  1  0  0  0
 19 24  1  0  0  0
 20 21  2  0  0  0
 20105  1  0  0  0
 21 23  1  0  0  0
 22 28  1  0  0  0
 22 32  2  0  0  0
 26 27  1  0  0  0
 28106  1  0  0  0
 28107  1  0  0  0
 29108  1  0  0  0
 29109  1  0  0  0
 33 34  1  0  0  0
 33 66  1  0  0  0
 33 70  2  0  0  0
 34 36  1  0  0  0
 34 59  1  0  0  0
 34110  1  0  0  0
 35 44  2  0  0  0
 35 45  1  0  0  0
 35 68  1  0  0  0
 36 56  1  0  0  0
 36111  1  0  0  0
 37 39  1  0  0  0
 37 47  1  0  0  0
 37 66  1  0  0  0
 37112  1  0  0  0
 38 43  2  0  0  0
 38 46  1  0  0  0
 38 47  1  0  0  0
 39 64  1  0  0  0
 39 67  2  0  0  0
 40 52  1  0  0  0
 40 53  2  0  0  0
 40 58  1  0  0  0
 41113  1  0  0  0
 41114  1  0  0  0
 41115  1  0  0  0
 41 48  1  0  0  0
 42 43  1  0  0  0
 42 66  1  0  0  0
 42116  1  0  0  0
 42117  1  0  0  0
 43 44  1  0  0  0
 44118  1  0  0  0
 45 46  2  0  0  0
 45119  1  0  0  0
 46120  1  0  0  0
 47121  1  0  0  0
 47122  1  0  0  0
 48 56  1  0  0  0
 48 65  1  0  0  0
 48123  1  0  0  0
 49 50  1  0  0  0
 49 53  1  0  0  0
 49 64  1  0  0  0
 49124  1  0  0  0
 50 51  1  0  0  0
 50125  1  0  0  0
 50126  1  0  0  0
 51 52  1  0  0  0
 51127  1  0  0  0
 51128  1  0  0  0
 52129  1  0  0  0
 52130  1  0  0  0
 53 54  1  0  0  0
 54 55  2  0  0  0
 54131  1  0  0  0
 55 57  1  0  0  0
 55132  1  0  0  0
 56 69  2  0  0  0
 57 58  2  0  0  0
 57133  1  0  0  0
 58134  1  0  0  0
 59 60  1  0  0  0
 59 61  1  0  0  0
 59 62  1  0  0  0
 60135  1  0  0  0
 60136  1  0  0  0
 60137  1  0  0  0
 61138  1  0  0  0
 61139  1  0  0  0
 61140  1  0  0  0
 62141  1  0  0  0
 62142  1  0  0  0
 62143  1  0  0  0
 63 65  1  0  0  0
 63144  1  0  0  0
 63145  1  0  0  0
 63146  1  0  0  0
 64147  1  0  0  0
 65148  1  0  0  0
 68 82  1  0  0  0
 71 73  1  0  0  0
 71 79  1  0  0  0
 71149  1  0  0  0
 71150  1  0  0  0
 72 74  1  0  0  0
 72 79  1  0  0  0
 72151  1  0  0  0
 72152  1  0  0  0
 73 81  1  0  0  0
 73153  1  0  0  0
 73154  1  0  0  0
 74 81  1  0  0  0
 74155  1  0  0  0
 74156  1  0  0  0
 75 77  1  0  0  0
 75 80  1  0  0  0
 75157  1  0  0  0
 75158  1  0  0  0
 76 78  1  0  0  0
 76 80  1  0  0  0
 76159  1  0  0  0
 76160  1  0  0  0
 77 82  1  0  0  0
 77161  1  0  0  0
 77162  1  0  0  0
 78 82  1  0  0  0
 78163  1  0  0  0
 78164  1  0  0  0
 79 84  1  0  0  0
 79165  1  0  0  0
 80 88  1  0  0  0
 80166  1  0  0  0
 81 89  1  0  0  0
 81167  1  0  0  0
 82168  1  0  0  0
 83169  1  0  0  0
 83170  1  0  0  0
 83171  1  0  0  0
 83 86  1  0  0  0
 84 88  1  0  0  0
 84172  1  0  0  0
 84173  1  0  0  0
 85 86  1  0  0  0
 85 89  1  0  0  0
 85174  1  0  0  0
 85175  1  0  0  0
 86 87  1  0  0  0
 86176  1  0  0  0
 87177  1  0  0  0
 88178  1  0  0  0
 88179  1  0  0  0
 89180  1  0  0  0
 89181  1  0  0  0
M  CHG  2  88   1  89   1
M  ISO  4   1 100  68 101  82 101  87 100
M  END
> <chiral flag>
0

> <version>
0

> <s_m_source_file>
/data/baiqing/PycharmProjects/Reinvent-master-3.2/result/LINK_invent/BTK/process_docking_weight1_custom_sum_contain_oxygen_bond_distance_aromatic_linkinvent_7_9_3/rearranged_h_0126.sdf

> <i_m_source_file_index>
59

> <r_mmod_Potential_Energy-OPLS-2005>
-269.404144287109

> <r_mmod_Stretch_Energy-OPLS-2005>
34.0150108337402

> <r_mmod_Bend_Energy-OPLS-2005>
91.2688446044922

> <r_mmod_Torsional_Energy-OPLS-2005>
349.764007568359

> <r_mmod_Improper_Torsional_Energy-OPLS-2005>
6.81202077865601

> <r_mmod_Van_der_Waal_Energy-OPLS-2005>
140.282318115234

> <r_mmod_Electrostatic_Energy-OPLS-2005>
16.7309265136719

> <r_mmod_Solvation_Energy-OPLS-2005>
-925.063720703125

> <b_mmod_Minimization_Converged-OPLS-2005>
0

> <r_mmod_RMS_Derivative-OPLS-2005>
3.47336506843567

$$$$
59
                    3D
 Structure written by MMmdl.
156165  0  0  1  0            999 V2000
  -30.6690  -14.6616   20.4817 C   0  0  0  0  0  0
  -30.4246  -12.4101   19.4619 C   0  0  0  0  0  0
  -29.4995  -12.4817   18.2290 C   0  0  0  0  0  0
  -28.0270  -12.3185   18.6485 C   0  0  0  0  0  0
  -27.6427  -13.2250   19.8482 C   0  0  2  0  0  0
  -28.6874  -13.1513   20.9831 C   0  0  0  0  0  0
  -25.2520  -13.8199   20.5678 C   0  0  0  0  0  0
  -24.1799  -13.0448   20.9206 C   0  0  0  0  0  0
  -24.6387  -11.6933   20.8757 C   0  0  0  0  0  0
  -23.9071  -10.4307   21.0417 C   0  0  0  0  0  0
  -24.3627   -9.4219   21.9192 C   0  0  0  0  0  0
  -23.6306   -8.2250   22.0755 C   0  0  0  0  0  0
  -22.4286   -8.0288   21.3544 C   0  0  0  0  0  0
  -21.9927   -9.0259   20.4640 C   0  0  0  0  0  0
  -22.7252  -10.2143   20.3057 C   0  0  0  0  0  0
  -21.6850   -6.0747   22.5284 C   0  0  0  0  0  0
  -21.4011   -6.5649   23.8215 C   0  0  0  0  0  0
  -21.3657   -5.6799   24.9175 C   0  0  0  0  0  0
  -21.6043   -4.3065   24.7220 C   0  0  0  0  0  0
  -21.8819   -3.8159   23.4342 C   0  0  0  0  0  0
  -21.9192   -4.6979   22.3401 C   0  0  0  0  0  0
  -22.7826  -13.5235   21.1862 C   0  0  0  0  0  0
  -22.1662   -4.2166   21.0979 F   0  0  0  0  0  0
  -21.5629   -3.4547   25.7731 F   0  0  0  0  0  0
  -29.9970  -13.4693   20.4007 N   0  0  0  0  0  0
  -26.2937  -12.9393   20.3274 N   0  0  0  0  0  0
  -25.9313  -11.6549   20.5780 N   0  0  0  0  0  0
  -22.0467  -12.8207   22.0408 N   0  0  0  0  0  0
  -25.4210  -15.1915   20.4072 N   0  0  0  0  0  0
  -31.8539  -14.7300   20.1474 O   0  0  0  0  0  0
  -21.6644   -6.8890   21.4244 O   0  0  0  0  0  0
  -22.3507  -14.5535   20.6710 O   0  0  0  0  0  0
  -24.6286  -31.8596   23.2021 C   0  0  0  0  0  0
  -25.9141  -32.4758   23.8346 C   0  0  1  0  0  0
  -27.2040  -27.2858   20.0991 C   0  0  0  0  0  0
  -25.5961  -33.8562   24.2266 N   0  0  0  0  0  0
  -23.4212  -30.4861   21.5465 C   0  0  2  0  0  0
  -24.8619  -28.9430   20.1083 C   0  0  0  0  0  0
  -22.7501  -29.4621   22.4934 C   0  0  0  0  0  0
  -18.0289  -28.1403   22.8478 C   0  0  0  0  0  0
  -24.1502  -36.7280   23.2627 C   0  0  0  0  0  0
  -25.9682  -30.7734   21.3848 C   0  0  0  0  0  0
  -26.0341  -29.4026   20.7187 C   0  0  0  0  0  0
  -27.2049  -28.5834   20.7083 C   0  0  0  0  0  0
  -25.9937  -26.8805   19.4863 C   0  0  0  0  0  0
  -24.8439  -27.6886   19.4882 C   0  0  0  0  0  0
  -23.6363  -29.8304   20.1586 C   0  0  0  0  0  0
  -25.4127  -36.3061   24.0310 C   0  0  1  0  0  0
  -20.5892  -28.3704   23.1283 C   0  0  2  0  0  0
  -20.6793  -26.9434   22.5402 C   0  0  0  0  0  0
  -19.5769  -26.6405   21.5207 C   0  0  0  0  0  0
  -18.1944  -26.7946   22.1615 C   0  0  0  0  0  0
  -19.1545  -28.8876   23.2866 C   0  0  0  0  0  0
  -18.9462  -30.1472   23.8895 C   0  0  0  0  0  0
  -17.6462  -30.6601   24.0574 C   0  0  0  0  0  0
  -25.9077  -34.9432   23.5088 C   0  0  0  0  0  0
  -16.5355  -29.9099   23.6336 C   0  0  0  0  0  0
  -16.7280  -28.6516   23.0354 C   0  0  0  0  0  0
  -26.4520  -31.6577   25.0734 C   0  0  0  0  0  0
  -25.3740  -31.3694   26.1446 C   0  0  0  0  0  0
  -27.0375  -30.2992   24.6225 C   0  0  0  0  0  0
  -27.6084  -32.4326   25.7493 C   0  0  0  0  0  0
  -27.5592  -37.1773   24.8450 C   0  0  0  0  0  0
  -21.4212  -29.3046   22.3679 N   0  0  0  0  0  0
  -26.4291  -37.3768   23.9417 N   0  0  0  0  0  0
  -24.6909  -31.0579   22.0993 N   0  0  0  0  0  0
  -23.4227  -28.8154   23.3005 O   0  0  0  0  0  0
  -28.3343  -26.4441   20.1481 O   0  0  0  0  0  0
  -26.5648  -34.8904   22.4653 O   0  0  0  0  0  0
  -23.5450  -32.1445   23.7325 O   0  0  0  0  0  0
  -28.7211  -18.7106   19.7881 C   0  0  0  0  0  0
  -28.1798  -20.0047   19.5116 C   0  0  0  0  0  0
  -30.3752  -19.7523   21.1943 C   0  0  0  0  0  0
  -29.8268  -21.0489   20.9333 C   0  0  0  0  0  0
  -29.8482  -18.5486   20.6316 C   0  0  0  0  0  0
  -28.7247  -21.1992   20.0619 C   0  0  0  0  0  0
  -30.4106  -22.2963   21.5946 C   0  0  0  0  0  0
  -30.0919  -23.6198   20.8474 C   0  0  0  0  0  0
  -28.6195  -23.7577   20.4020 C   0  0  1  0  0  0
  -30.5977  -17.1817   20.8843 C   0  0  0  0  0  0
  -28.3728  -25.0875   19.5300 C   0  0  0  0  0  0
  -28.2090  -22.4901   19.7231 N   0  0  0  0  0  0
  -29.9705  -15.8140   20.7575 N   0  0  0  0  0  0
  -31.4633  -12.5229   19.1481 H   0  0  0  0  0  0
  -30.3637  -11.4328   19.9426 H   0  0  0  0  0  0
  -29.7685  -11.7052   17.5111 H   0  0  0  0  0  0
  -29.6320  -13.4353   17.7162 H   0  0  0  0  0  0
  -27.8785  -11.2711   18.9156 H   0  0  0  0  0  0
  -27.3671  -12.5096   17.8011 H   0  0  0  0  0  0
  -27.6435  -14.2463   19.4670 H   0  0  0  0  0  0
  -28.7029  -12.1581   21.4340 H   0  0  0  0  0  0
  -28.4326  -13.8468   21.7840 H   0  0  0  0  0  0
  -25.2771   -9.5692   22.4771 H   0  0  0  0  0  0
  -24.0014   -7.4639   22.7472 H   0  0  0  0  0  0
  -21.0865   -8.8781   19.8936 H   0  0  0  0  0  0
  -22.3720  -10.9686   19.6166 H   0  0  0  0  0  0
  -21.2003   -7.6157   23.9721 H   0  0  0  0  0  0
  -21.1474   -6.0531   25.9075 H   0  0  0  0  0  0
  -22.0600   -2.7624   23.2836 H   0  0  0  0  0  0
  -22.4112  -11.9888   22.4806 H   0  0  0  0  0  0
  -21.1069  -13.1196   22.2590 H   0  0  0  0  0  0
  -24.6526  -15.8445   20.5158 H   0  0  0  0  0  0
  -26.2676  -15.6304   20.0680 H   0  0  0  0  0  0
  -26.7197  -32.5403   23.1073 H   0  0  0  0  0  0
  -25.0072  -33.9698   25.0387 H   0  0  0  0  0  0
  -22.7140  -31.3059   21.4067 H   0  0  0  0  0  0
  -23.3775  -35.9599   23.3263 H   0  0  0  0  0  0
  -24.3593  -36.8952   22.2050 H   0  0  0  0  0  0
  -23.7246  -37.6455   23.6698 H   0  0  0  0  0  0
  -26.1187  -31.5399   20.6238 H   0  0  0  0  0  0
  -26.8412  -30.8067   22.0249 H   0  0  0  0  0  0
  -28.1021  -28.9267   21.2034 H   0  0  0  0  0  0
  -25.8586  -25.9224   19.0147 H   0  0  0  0  0  0
  -23.9378  -27.3309   19.0179 H   0  0  0  0  0  0
  -23.7620  -30.6129   19.4086 H   0  0  0  0  0  0
  -22.7545  -29.2663   19.8503 H   0  0  0  0  0  0
  -25.1299  -36.1881   25.0797 H   0  0  0  0  0  0
  -20.9949  -28.3273   24.1419 H   0  0  0  0  0  0
  -20.5737  -26.2300   23.3587 H   0  0  0  0  0  0
  -21.6652  -26.7503   22.1163 H   0  0  0  0  0  0
  -19.6942  -25.6317   21.1231 H   0  0  0  0  0  0
  -19.6709  -27.3220   20.6737 H   0  0  0  0  0  0
  -17.4209  -26.6694   21.4023 H   0  0  0  0  0  0
  -18.0346  -26.0095   22.9019 H   0  0  0  0  0  0
  -19.7941  -30.7283   24.2280 H   0  0  0  0  0  0
  -17.5018  -31.6278   24.5185 H   0  0  0  0  0  0
  -15.5356  -30.2998   23.7674 H   0  0  0  0  0  0
  -15.8678  -28.0837   22.7081 H   0  0  0  0  0  0
  -24.5931  -30.7046   25.7737 H   0  0  0  0  0  0
  -24.8910  -32.2841   26.4891 H   0  0  0  0  0  0
  -25.8043  -30.8838   27.0214 H   0  0  0  0  0  0
  -26.2950  -29.6717   24.1280 H   0  0  0  0  0  0
  -27.4088  -29.7274   25.4738 H   0  0  0  0  0  0
  -27.8825  -30.4266   23.9456 H   0  0  0  0  0  0
  -27.2714  -33.3639   26.2062 H   0  0  0  0  0  0
  -28.3888  -32.6876   25.0310 H   0  0  0  0  0  0
  -28.0779  -31.8468   26.5410 H   0  0  0  0  0  0
  -28.2537  -38.0140   24.7583 H   0  0  0  0  0  0
  -28.1160  -36.2666   24.6171 H   0  0  0  0  0  0
  -27.2317  -37.1289   25.8850 H   0  0  0  0  0  0
  -20.9420  -29.8740   21.6850 H   0  0  0  0  0  0
  -26.0160  -38.2823   24.1478 H   0  0  0  0  0  0
  -28.2833  -17.8428   19.3142 H   0  0  0  0  0  0
  -27.3330  -20.0691   18.8424 H   0  0  0  0  0  0
  -31.2453  -19.6833   21.8333 H   0  0  0  0  0  0
  -31.4898  -22.1803   21.6979 H   0  0  0  0  0  0
  -30.0050  -22.3549   22.6053 H   0  0  0  0  0  0
  -30.7256  -23.6749   19.9614 H   0  0  0  0  0  0
  -30.3707  -24.4708   21.4695 H   0  0  0  0  0  0
  -27.9863  -23.8307   21.2883 H   0  0  0  0  0  0
  -31.0137  -17.2267   21.8917 H   0  0  0  0  0  0
  -31.4656  -17.2187   20.2239 H   0  0  0  0  0  0
  -27.5245  -24.8894   18.8875 H   0  0  0  0  0  0
  -29.1828  -25.1469   18.8022 H   0  0  0  0  0  0
  -27.3578  -22.5240   19.1679 H   0  0  0  0  0  0
  -28.9947  -15.7264   20.9962 H   0  0  0  0  0  0
  1 25  1  0  0  0
  1 30  2  0  0  0
  1 83  1  0  0  0
  2  3  1  0  0  0
  2 25  1  0  0  0
  2 84  1  0  0  0
  2 85  1  0  0  0
  3  4  1  0  0  0
  3 86  1  0  0  0
  3 87  1  0  0  0
  4  5  1  0  0  0
  4 88  1  0  0  0
  4 89  1  0  0  0
  5  6  1  0  0  0
  5 26  1  0  0  0
  5 90  1  0  0  0
  6 25  1  0  0  0
  6 91  1  0  0  0
  6 92  1  0  0  0
  7  8  2  0  0  0
  7 26  1  0  0  0
  7 29  1  0  0  0
  8  9  1  0  0  0
  8 22  1  0  0  0
  9 10  1  0  0  0
  9 27  2  0  0  0
 10 11  2  0  0  0
 10 15  1  0  0  0
 11 12  1  0  0  0
 11 93  1  0  0  0
 12 13  2  0  0  0
 12 94  1  0  0  0
 13 14  1  0  0  0
 13 31  1  0  0  0
 14 15  2  0  0  0
 14 95  1  0  0  0
 15 96  1  0  0  0
 16 17  2  0  0  0
 16 21  1  0  0  0
 16 31  1  0  0  0
 17 18  1  0  0  0
 17 97  1  0  0  0
 18 19  2  0  0  0
 18 98  1  0  0  0
 19 20  1  0  0  0
 19 24  1  0  0  0
 20 21  2  0  0  0
 20 99  1  0  0  0
 21 23  1  0  0  0
 22 28  1  0  0  0
 22 32  2  0  0  0
 26 27  1  0  0  0
 28100  1  0  0  0
 28101  1  0  0  0
 29102  1  0  0  0
 29103  1  0  0  0
 33 34  1  0  0  0
 33 66  1  0  0  0
 33 70  2  0  0  0
 34 36  1  0  0  0
 34 59  1  0  0  0
 34104  1  0  0  0
 35 44  2  0  0  0
 35 45  1  0  0  0
 35 68  1  0  0  0
 36 56  1  0  0  0
 36105  1  0  0  0
 37 39  1  0  0  0
 37 47  1  0  0  0
 37 66  1  0  0  0
 37106  1  0  0  0
 38 43  2  0  0  0
 38 46  1  0  0  0
 38 47  1  0  0  0
 39 64  1  0  0  0
 39 67  2  0  0  0
 40 52  1  0  0  0
 40 53  2  0  0  0
 40 58  1  0  0  0
 41107  1  0  0  0
 41108  1  0  0  0
 41109  1  0  0  0
 41 48  1  0  0  0
 42 43  1  0  0  0
 42 66  1  0  0  0
 42110  1  0  0  0
 42111  1  0  0  0
 43 44  1  0  0  0
 44112  1  0  0  0
 45 46  2  0  0  0
 45113  1  0  0  0
 46114  1  0  0  0
 47115  1  0  0  0
 47116  1  0  0  0
 48 56  1  0  0  0
 48 65  1  0  0  0
 48117  1  0  0  0
 49 50  1  0  0  0
 49 53  1  0  0  0
 49 64  1  0  0  0
 49118  1  0  0  0
 50 51  1  0  0  0
 50119  1  0  0  0
 50120  1  0  0  0
 51 52  1  0  0  0
 51121  1  0  0  0
 51122  1  0  0  0
 52123  1  0  0  0
 52124  1  0  0  0
 53 54  1  0  0  0
 54 55  2  0  0  0
 54125  1  0  0  0
 55 57  1  0  0  0
 55126  1  0  0  0
 56 69  2  0  0  0
 57 58  2  0  0  0
 57127  1  0  0  0
 58128  1  0  0  0
 59 60  1  0  0  0
 59 61  1  0  0  0
 59 62  1  0  0  0
 60129  1  0  0  0
 60130  1  0  0  0
 60131  1  0  0  0
 61132  1  0  0  0
 61133  1  0  0  0
 61134  1  0  0  0
 62135  1  0  0  0
 62136  1  0  0  0
 62137  1  0  0  0
 63 65  1  0  0  0
 63138  1  0  0  0
 63139  1  0  0  0
 63140  1  0  0  0
 64141  1  0  0  0
 65142  1  0  0  0
 68 81  1  0  0  0
 71 72  2  0  0  0
 71 75  1  0  0  0
 71143  1  0  0  0
 72 76  1  0  0  0
 72144  1  0  0  0
 73 74  1  0  0  0
 73 75  2  0  0  0
 73145  1  0  0  0
 74 76  2  0  0  0
 74 77  1  0  0  0
 75 80  1  0  0  0
 76 82  1  0  0  0
 77 78  1  0  0  0
 77146  1  0  0  0
 77147  1  0  0  0
 78 79  1  0  0  0
 78148  1  0  0  0
 78149  1  0  0  0
 79 81  1  0  0  0
 79 82  1  0  0  0
 79150  1  0  0  0
 80 83  1  0  0  0
 80151  1  0  0  0
 80152  1  0  0  0
 81153  1  0  0  0
 81154  1  0  0  0
 82155  1  0  0  0
 83156  1  0  0  0
M  ISO  4   1 100  68 101  81 101  83 100
M  END
> <chiral flag>
0

> <version>
0

> <s_m_source_file>
/data/baiqing/PycharmProjects/Reinvent-master-3.2/result/LINK_invent/BTK/process_docking_weight1_custom_sum_contain_oxygen_bond_distance_aromatic_linkinvent_7_9_3/rearranged_h_0126.sdf

> <i_m_source_file_index>
60

> <r_mmod_Potential_Energy-OPLS-2005>
2.33362436294556

> <r_mmod_Stretch_Energy-OPLS-2005>
85.5026016235352

> <r_mmod_Bend_Energy-OPLS-2005>
163.149658203125

> <r_mmod_Torsional_Energy-OPLS-2005>
201.167373657227

> <r_mmod_Improper_Torsional_Energy-OPLS-2005>
4.94682550430298

> <r_mmod_Van_der_Waal_Energy-OPLS-2005>
151.932098388672

> <r_mmod_Electrostatic_Energy-OPLS-2005>
-443.240661621094

> <r_mmod_Solvation_Energy-OPLS-2005>
-222.905990600586

> <b_mmod_Minimization_Converged-OPLS-2005>
0

> <r_mmod_RMS_Derivative-OPLS-2005>
1.9058655500412

$$$$
60
                    3D
 Structure written by MMmdl.
168176  0  0  1  0            999 V2000
  -30.7619  -14.3151   20.7156 C   0  0  0  0  0  0
  -30.4338  -12.2698   19.3827 C   0  0  0  0  0  0
  -29.4932  -12.5346   18.1910 C   0  0  0  0  0  0
  -28.0155  -12.3872   18.6024 C   0  0  0  0  0  0
  -27.6773  -13.1871   19.8862 C   0  0  2  0  0  0
  -28.7114  -12.8824   20.9944 C   0  0  0  0  0  0
  -25.2673  -13.8111   20.5652 C   0  0  0  0  0  0
  -24.1900  -13.0434   20.9205 C   0  0  0  0  0  0
  -24.6408  -11.6884   20.8733 C   0  0  0  0  0  0
  -23.9059  -10.4279   21.0401 C   0  0  0  0  0  0
  -24.3607   -9.4192   21.9180 C   0  0  0  0  0  0
  -23.6278   -8.2236   22.0751 C   0  0  0  0  0  0
  -22.4264   -8.0271   21.3542 C   0  0  0  0  0  0
  -21.9899   -9.0251   20.4651 C   0  0  0  0  0  0
  -22.7232  -10.2127   20.3057 C   0  0  0  0  0  0
  -21.6846   -6.0734   22.5275 C   0  0  0  0  0  0
  -21.4007   -6.5642   23.8205 C   0  0  0  0  0  0
  -21.3663   -5.6800   24.9174 C   0  0  0  0  0  0
  -21.6042   -4.3059   24.7224 C   0  0  0  0  0  0
  -21.8821   -3.8152   23.4345 C   0  0  0  0  0  0
  -21.9190   -4.6962   22.3400 C   0  0  0  0  0  0
  -22.7929  -13.5253   21.1860 C   0  0  0  0  0  0
  -22.1665   -4.2151   21.0977 F   0  0  0  0  0  0
  -21.5630   -3.4545   25.7738 F   0  0  0  0  0  0
  -30.0674  -13.1742   20.4797 N   0  0  0  0  0  0
  -26.3094  -12.9250   20.3365 N   0  0  0  0  0  0
  -25.9322  -11.6425   20.5727 N   0  0  0  0  0  0
  -22.0542  -12.8251   22.0392 N   0  0  0  0  0  0
  -25.4422  -15.1813   20.3911 N   0  0  0  0  0  0
  -31.7234  -14.6963   20.0424 O   0  0  0  0  0  0
  -21.6628   -6.8871   21.4235 O   0  0  0  0  0  0
  -22.3648  -14.5567   20.6690 O   0  0  0  0  0  0
  -24.6091  -31.8706   23.2118 C   0  0  0  0  0  0
  -25.9000  -32.4829   23.8393 C   0  0  1  0  0  0
  -27.2438  -27.4727   20.0735 C   0  0  0  0  0  0
  -25.5874  -33.8627   24.2325 N   0  0  0  0  0  0
  -23.3940  -30.4939   21.5520 C   0  0  2  0  0  0
  -24.8397  -28.9579   20.1258 C   0  0  0  0  0  0
  -22.7360  -29.4684   22.5017 C   0  0  0  0  0  0
  -18.0268  -28.1379   22.8516 C   0  0  0  0  0  0
  -24.1494  -36.7336   23.2631 C   0  0  0  0  0  0
  -25.9180  -30.8459   21.3568 C   0  0  0  0  0  0
  -25.9960  -29.4762   20.7182 C   0  0  0  0  0  0
  -27.1954  -28.7363   20.6990 C   0  0  0  0  0  0
  -26.0625  -26.9578   19.4849 C   0  0  0  0  0  0
  -24.8637  -27.6944   19.5142 C   0  0  0  0  0  0
  -23.6018  -29.8221   20.1690 C   0  0  0  0  0  0
  -25.4104  -36.3110   24.0327 C   0  0  1  0  0  0
  -20.5845  -28.3675   23.1372 C   0  0  2  0  0  0
  -20.6773  -26.9402   22.5482 C   0  0  0  0  0  0
  -19.5760  -26.6370   21.5275 C   0  0  0  0  0  0
  -18.1921  -26.7931   22.1631 C   0  0  0  0  0  0
  -19.1508  -28.8843   23.2935 C   0  0  0  0  0  0
  -18.9439  -30.1455   23.8939 C   0  0  0  0  0  0
  -17.6436  -30.6589   24.0578 C   0  0  0  0  0  0
  -25.9021  -34.9481   23.5115 C   0  0  0  0  0  0
  -16.5335  -29.9089   23.6337 C   0  0  0  0  0  0
  -16.7261  -28.6506   23.0357 C   0  0  0  0  0  0
  -26.4461  -31.6583   25.0690 C   0  0  0  0  0  0
  -25.3760  -31.3674   26.1455 C   0  0  0  0  0  0
  -27.0276  -30.3041   24.5990 C   0  0  0  0  0  0
  -27.6045  -32.4286   25.7457 C   0  0  0  0  0  0
  -27.5575  -37.1818   24.8458 C   0  0  0  0  0  0
  -21.4089  -29.3064   22.3781 N   0  0  0  0  0  0
  -26.4294  -37.3787   23.9397 N   0  0  0  0  0  0
  -24.6588  -31.0829   22.1007 N   0  0  0  0  0  0
  -23.4162  -28.8213   23.3018 O   0  0  0  0  0  0
  -28.4674  -26.8392   20.0231 O   0  0  0  0  0  0
  -26.5592  -34.8927   22.4681 O   0  0  0  0  0  0
  -23.5297  -32.1446   23.7541 O   0  0  0  0  0  0
  -25.6433  -22.1500   21.1262 C   0  0  0  0  0  0
  -27.5789  -21.3086   22.5574 C   0  0  0  0  0  0
  -26.2923  -23.4884   21.5085 C   0  0  0  0  0  0
  -28.4868  -22.4408   22.0271 C   0  0  0  0  0  0
  -26.4614  -20.9076   21.5664 C   0  0  2  0  0  0
  -26.9787  -20.1126   20.3424 C   0  0  0  0  0  0
  -30.2053  -16.4769   21.7729 C   0  0  0  0  0  0
  -28.3671  -24.8059   21.2872 C   0  0  0  0  0  0
  -27.2406  -18.6153   20.5874 C   0  0  0  0  0  0
  -28.8478  -16.8703   21.1595 C   0  0  0  0  0  0
  -28.5227  -25.4244   19.8909 C   0  0  0  0  0  0
  -30.2931  -15.0223   21.7465 N   0  0  0  0  0  0
  -27.7508  -23.4600   21.2290 N   0  3  2  0  0  0
  -28.5724  -18.3188   21.1601 N   0  3  0  0  0  0
  -31.4743  -12.3926   19.0762 H   0  0  0  0  0  0
  -30.3489  -11.2344   19.7172 H   0  0  0  0  0  0
  -29.7245  -11.8504   17.3733 H   0  0  0  0  0  0
  -29.6676  -13.5404   17.8063 H   0  0  0  0  0  0
  -27.8146  -11.3261   18.7600 H   0  0  0  0  0  0
  -27.3671  -12.7022   17.7838 H   0  0  0  0  0  0
  -27.7526  -14.2457   19.6383 H   0  0  0  0  0  0
  -28.6635  -11.8282   21.2725 H   0  0  0  0  0  0
  -28.4485  -13.4219   21.9039 H   0  0  0  0  0  0
  -25.2756   -9.5661   22.4741 H   0  0  0  0  0  0
  -23.9989   -7.4631   22.7467 H   0  0  0  0  0  0
  -21.0835   -8.8771   19.8957 H   0  0  0  0  0  0
  -22.3696  -10.9663   19.6159 H   0  0  0  0  0  0
  -21.1994   -7.6148   23.9712 H   0  0  0  0  0  0
  -21.1487   -6.0526   25.9077 H   0  0  0  0  0  0
  -22.0595   -2.7610   23.2841 H   0  0  0  0  0  0
  -22.4127  -11.9892   22.4762 H   0  0  0  0  0  0
  -21.1167  -13.1296   22.2593 H   0  0  0  0  0  0
  -24.6228  -15.7781   20.3776 H   0  0  0  0  0  0
  -26.1903  -15.5281   19.8071 H   0  0  0  0  0  0
  -26.7063  -32.5557   23.1159 H   0  0  0  0  0  0
  -25.0021  -33.9809   25.0463 H   0  0  0  0  0  0
  -22.6818  -31.3089   21.4103 H   0  0  0  0  0  0
  -23.3731  -35.9694   23.3298 H   0  0  0  0  0  0
  -24.3594  -36.8958   22.2047 H   0  0  0  0  0  0
  -23.7291  -37.6557   23.6655 H   0  0  0  0  0  0
  -26.0042  -31.6038   20.5765 H   0  0  0  0  0  0
  -26.8177  -30.9206   21.9551 H   0  0  0  0  0  0
  -28.0901  -29.1369   21.1558 H   0  0  0  0  0  0
  -26.0360  -26.0177   18.9569 H   0  0  0  0  0  0
  -23.9728  -27.2969   19.0488 H   0  0  0  0  0  0
  -23.7071  -30.5924   19.4034 H   0  0  0  0  0  0
  -22.7318  -29.2351   19.8719 H   0  0  0  0  0  0
  -25.1290  -36.1962   25.0822 H   0  0  0  0  0  0
  -20.9925  -28.3275   24.1495 H   0  0  0  0  0  0
  -20.5704  -26.2276   23.3681 H   0  0  0  0  0  0
  -21.6647  -26.7471   22.1253 H   0  0  0  0  0  0
  -19.6927  -25.6271   21.1312 H   0  0  0  0  0  0
  -19.6712  -27.3171   20.6807 H   0  0  0  0  0  0
  -17.4228  -26.6718   21.3996 H   0  0  0  0  0  0
  -18.0227  -26.0053   22.8994 H   0  0  0  0  0  0
  -19.7908  -30.7292   24.2294 H   0  0  0  0  0  0
  -17.4987  -31.6291   24.5133 H   0  0  0  0  0  0
  -15.5332  -30.2991   23.7628 H   0  0  0  0  0  0
  -15.8672  -28.0842   22.7026 H   0  0  0  0  0  0
  -24.5909  -30.7045   25.7800 H   0  0  0  0  0  0
  -24.8975  -32.2833   26.4936 H   0  0  0  0  0  0
  -25.8134  -30.8816   27.0184 H   0  0  0  0  0  0
  -26.2784  -29.6812   24.1084 H   0  0  0  0  0  0
  -27.4142  -29.7247   25.4382 H   0  0  0  0  0  0
  -27.8574  -30.4392   23.9047 H   0  0  0  0  0  0
  -27.2656  -33.3553   26.2096 H   0  0  0  0  0  0
  -28.3830  -32.6894   25.0278 H   0  0  0  0  0  0
  -28.0731  -31.8365   26.5326 H   0  0  0  0  0  0
  -28.2591  -38.0114   24.7482 H   0  0  0  0  0  0
  -28.1075  -36.2643   24.6305 H   0  0  0  0  0  0
  -27.2294  -37.1493   25.8864 H   0  0  0  0  0  0
  -20.9213  -29.8788   21.7030 H   0  0  0  0  0  0
  -26.0174  -38.2862   24.1398 H   0  0  0  0  0  0
  -25.4764  -22.1440   20.0482 H   0  0  0  0  0  0
  -24.6460  -22.1154   21.5678 H   0  0  0  0  0  0
  -27.1175  -21.6498   23.4852 H   0  0  0  0  0  0
  -28.1842  -20.4526   22.8519 H   0  0  0  0  0  0
  -26.1222  -23.7060   22.5640 H   0  0  0  0  0  0
  -25.8046  -24.2883   20.9487 H   0  0  0  0  0  0
  -29.2755  -22.0308   21.3969 H   0  0  0  0  0  0
  -28.9918  -22.9005   22.8782 H   0  0  0  0  0  0
  -25.7660  -20.2583   22.1027 H   0  0  0  0  0  0
  -27.8398  -20.5968   19.8804 H   0  0  0  0  0  0
  -26.2027  -20.1345   19.5759 H   0  0  0  0  0  0
  -30.2827  -16.8170   22.8062 H   0  0  0  0  0  0
  -31.0312  -16.9300   21.2205 H   0  0  0  0  0  0
  -27.7675  -25.4478   21.9335 H   0  0  0  0  0  0
  -29.3555  -24.7755   21.7441 H   0  0  0  0  0  0
  -27.1637  -18.1066   19.6246 H   0  0  0  0  0  0
  -26.4597  -18.1812   21.2149 H   0  0  0  0  0  0
  -28.8038  -16.5135   20.1289 H   0  0  0  0  0  0
  -28.0446  -16.3656   21.7003 H   0  0  0  0  0  0
  -27.8139  -25.0288   19.1686 H   0  0  0  0  0  0
  -29.4991  -25.1561   19.4845 H   0  0  0  0  0  0
  -29.6341  -14.5270   22.3296 H   0  0  0  0  0  0
  -27.8399  -23.1519   20.2709 H   0  0  0  0  0  0
  -29.2846  -18.7817   20.6172 H   0  0  0  0  0  0
  -28.6167  -18.6581   22.1082 H   0  0  0  0  0  0
  1 25  1  0  0  0
  1 30  2  0  0  0
  1 82  1  0  0  0
  2  3  1  0  0  0
  2 25  1  0  0  0
  2 85  1  0  0  0
  2 86  1  0  0  0
  3  4  1  0  0  0
  3 87  1  0  0  0
  3 88  1  0  0  0
  4  5  1  0  0  0
  4 89  1  0  0  0
  4 90  1  0  0  0
  5  6  1  0  0  0
  5 26  1  0  0  0
  5 91  1  0  0  0
  6 25  1  0  0  0
  6 92  1  0  0  0
  6 93  1  0  0  0
  7  8  2  0  0  0
  7 26  1  0  0  0
  7 29  1  0  0  0
  8  9  1  0  0  0
  8 22  1  0  0  0
  9 10  1  0  0  0
  9 27  2  0  0  0
 10 11  2  0  0  0
 10 15  1  0  0  0
 11 12  1  0  0  0
 11 94  1  0  0  0
 12 13  2  0  0  0
 12 95  1  0  0  0
 13 14  1  0  0  0
 13 31  1  0  0  0
 14 15  2  0  0  0
 14 96  1  0  0  0
 15 97  1  0  0  0
 16 17  2  0  0  0
 16 21  1  0  0  0
 16 31  1  0  0  0
 17 18  1  0  0  0
 17 98  1  0  0  0
 18 19  2  0  0  0
 18 99  1  0  0  0
 19 20  1  0  0  0
 19 24  1  0  0  0
 20 21  2  0  0  0
 20100  1  0  0  0
 21 23  1  0  0  0
 22 28  1  0  0  0
 22 32  2  0  0  0
 26 27  1  0  0  0
 28101  1  0  0  0
 28102  1  0  0  0
 29103  1  0  0  0
 29104  1  0  0  0
 33 34  1  0  0  0
 33 66  1  0  0  0
 33 70  2  0  0  0
 34 36  1  0  0  0
 34 59  1  0  0  0
 34105  1  0  0  0
 35 44  2  0  0  0
 35 45  1  0  0  0
 35 68  1  0  0  0
 36 56  1  0  0  0
 36106  1  0  0  0
 37 39  1  0  0  0
 37 47  1  0  0  0
 37 66  1  0  0  0
 37107  1  0  0  0
 38 43  2  0  0  0
 38 46  1  0  0  0
 38 47  1  0  0  0
 39 64  1  0  0  0
 39 67  2  0  0  0
 40 52  1  0  0  0
 40 53  2  0  0  0
 40 58  1  0  0  0
 41108  1  0  0  0
 41109  1  0  0  0
 41110  1  0  0  0
 41 48  1  0  0  0
 42 43  1  0  0  0
 42 66  1  0  0  0
 42111  1  0  0  0
 42112  1  0  0  0
 43 44  1  0  0  0
 44113  1  0  0  0
 45 46  2  0  0  0
 45114  1  0  0  0
 46115  1  0  0  0
 47116  1  0  0  0
 47117  1  0  0  0
 48 56  1  0  0  0
 48 65  1  0  0  0
 48118  1  0  0  0
 49 50  1  0  0  0
 49 53  1  0  0  0
 49 64  1  0  0  0
 49119  1  0  0  0
 50 51  1  0  0  0
 50120  1  0  0  0
 50121  1  0  0  0
 51 52  1  0  0  0
 51122  1  0  0  0
 51123  1  0  0  0
 52124  1  0  0  0
 52125  1  0  0  0
 53 54  1  0  0  0
 54 55  2  0  0  0
 54126  1  0  0  0
 55 57  1  0  0  0
 55127  1  0  0  0
 56 69  2  0  0  0
 57 58  2  0  0  0
 57128  1  0  0  0
 58129  1  0  0  0
 59 60  1  0  0  0
 59 61  1  0  0  0
 59 62  1  0  0  0
 60130  1  0  0  0
 60131  1  0  0  0
 60132  1  0  0  0
 61133  1  0  0  0
 61134  1  0  0  0
 61135  1  0  0  0
 62136  1  0  0  0
 62137  1  0  0  0
 62138  1  0  0  0
 63 65  1  0  0  0
 63139  1  0  0  0
 63140  1  0  0  0
 63141  1  0  0  0
 64142  1  0  0  0
 65143  1  0  0  0
 68 81  1  0  0  0
 71 73  1  0  0  0
 71 75  1  0  0  0
 71144  1  0  0  0
 71145  1  0  0  0
 72 74  1  0  0  0
 72 75  1  0  0  0
 72146  1  0  0  0
 72147  1  0  0  0
 73 83  1  0  0  0
 73148  1  0  0  0
 73149  1  0  0  0
 74 83  1  0  0  0
 74150  1  0  0  0
 74151  1  0  0  0
 75 76  1  0  0  0
 75152  1  0  0  0
 76 79  1  0  0  0
 76153  1  0  0  0
 76154  1  0  0  0
 77 80  1  0  0  0
 77 82  1  0  0  0
 77155  1  0  0  0
 77156  1  0  0  0
 78 81  1  0  0  0
 78157  1  0  0  0
 78158  1  0  0  0
 78 83  1  0  0  0
 79 84  1  0  0  0
 79159  1  0  0  0
 79160  1  0  0  0
 80 84  1  0  0  0
 80161  1  0  0  0
 80162  1  0  0  0
 81163  1  0  0  0
 81164  1  0  0  0
 82165  1  0  0  0
 83166  1  0  0  0
 84167  1  0  0  0
 84168  1  0  0  0
M  CHG  2  83   1  84   1
M  ISO  4   1 100  68 101  81 101  82 100
M  END
> <chiral flag>
0

> <version>
0

> <s_m_source_file>
/data/baiqing/PycharmProjects/Reinvent-master-3.2/result/LINK_invent/BTK/process_docking_weight1_custom_sum_contain_oxygen_bond_distance_aromatic_linkinvent_7_9_3/rearranged_h_0126.sdf

> <i_m_source_file_index>
61

> <r_mmod_Potential_Energy-OPLS-2005>
-250.94775390625

> <r_mmod_Stretch_Energy-OPLS-2005>
32.2133178710938

> <r_mmod_Bend_Energy-OPLS-2005>
101.319213867188

> <r_mmod_Torsional_Energy-OPLS-2005>
295.165863037109

> <r_mmod_Improper_Torsional_Energy-OPLS-2005>
6.29600954055786

> <r_mmod_Van_der_Waal_Energy-OPLS-2005>
143.621063232422

> <r_mmod_Electrostatic_Energy-OPLS-2005>
96.9746246337891

> <r_mmod_Solvation_Energy-OPLS-2005>
-935.864868164062

> <b_mmod_Minimization_Converged-OPLS-2005>
0

> <r_mmod_RMS_Derivative-OPLS-2005>
2.39875340461731

$$$$
61
                    3D
 Structure written by MMmdl.
178187  0  0  1  0            999 V2000
  -30.7052  -14.5453   20.6216 C   0  0  0  0  0  0
  -30.4455  -12.3645   19.4704 C   0  0  0  0  0  0
  -29.5313  -12.5226   18.2354 C   0  0  0  0  0  0
  -28.0452  -12.3885   18.6296 C   0  0  0  0  0  0
  -27.6707  -13.2257   19.8843 C   0  0  2  0  0  0
  -28.7064  -13.0307   21.0187 C   0  0  0  0  0  0
  -25.2587  -13.8192   20.5629 C   0  0  0  0  0  0
  -24.1816  -13.0445   20.9120 C   0  0  0  0  0  0
  -24.6393  -11.6942   20.8692 C   0  0  0  0  0  0
  -23.9006  -10.4321   21.0361 C   0  0  0  0  0  0
  -24.3599   -9.4269   21.9125 C   0  0  0  0  0  0
  -23.6313   -8.2282   22.0721 C   0  0  0  0  0  0
  -22.4280   -8.0323   21.3514 C   0  0  0  0  0  0
  -21.9872   -9.0256   20.4599 C   0  0  0  0  0  0
  -22.7163  -10.2156   20.3000 C   0  0  0  0  0  0
  -21.6902   -6.0734   22.5249 C   0  0  0  0  0  0
  -21.4002   -6.5614   23.8197 C   0  0  0  0  0  0
  -21.3647   -5.6765   24.9135 C   0  0  0  0  0  0
  -21.6052   -4.3038   24.7193 C   0  0  0  0  0  0
  -21.8841   -3.8134   23.4309 C   0  0  0  0  0  0
  -21.9214   -4.6959   22.3392 C   0  0  0  0  0  0
  -22.7832  -13.5255   21.1823 C   0  0  0  0  0  0
  -22.1676   -4.2149   21.0971 F   0  0  0  0  0  0
  -21.5636   -3.4511   25.7696 F   0  0  0  0  0  0
  -30.0433  -13.3574   20.4854 N   0  0  0  0  0  0
  -26.3079  -12.9411   20.3362 N   0  0  0  0  0  0
  -25.9355  -11.6545   20.5725 N   0  0  0  0  0  0
  -22.0430  -12.8264   22.0389 N   0  0  0  0  0  0
  -25.4297  -15.1895   20.4047 N   0  0  0  0  0  0
  -31.8162  -14.7356   20.1229 O   0  0  0  0  0  0
  -21.6666   -6.8914   21.4244 O   0  0  0  0  0  0
  -22.3481  -14.5489   20.6631 O   0  0  0  0  0  0
  -24.6182  -31.8676   23.2050 C   0  0  0  0  0  0
  -25.9064  -32.4818   23.8390 C   0  0  1  0  0  0
  -27.2363  -27.3842   20.1496 C   0  0  0  0  0  0
  -25.5924  -33.8613   24.2341 N   0  0  0  0  0  0
  -23.4136  -30.4814   21.5441 C   0  0  2  0  0  0
  -24.8649  -28.9333   20.1205 C   0  0  0  0  0  0
  -22.7409  -29.4661   22.4964 C   0  0  0  0  0  0
  -18.0267  -28.1398   22.8521 C   0  0  0  0  0  0
  -24.1450  -36.7294   23.2655 C   0  0  0  0  0  0
  -25.9428  -30.8122   21.3708 C   0  0  0  0  0  0
  -26.0222  -29.4396   20.7280 C   0  0  0  0  0  0
  -27.2147  -28.6744   20.7325 C   0  0  0  0  0  0
  -26.0686  -26.8981   19.5304 C   0  0  0  0  0  0
  -24.8846  -27.6615   19.5155 C   0  0  0  0  0  0
  -23.6273  -29.8101   20.1602 C   0  0  0  0  0  0
  -25.4072  -36.3130   24.0377 C   0  0  1  0  0  0
  -20.5857  -28.3692   23.1246 C   0  0  2  0  0  0
  -20.6750  -26.9414   22.5409 C   0  0  0  0  0  0
  -19.5724  -26.6389   21.5204 C   0  0  0  0  0  0
  -18.1889  -26.7961   22.1630 C   0  0  0  0  0  0
  -19.1533  -28.8847   23.2910 C   0  0  0  0  0  0
  -18.9498  -30.1462   23.8905 C   0  0  0  0  0  0
  -17.6518  -30.6612   24.0551 C   0  0  0  0  0  0
  -25.9031  -34.9465   23.5144 C   0  0  0  0  0  0
  -16.5374  -29.9128   23.6341 C   0  0  0  0  0  0
  -16.7257  -28.6549   23.0358 C   0  0  0  0  0  0
  -26.4461  -31.6606   25.0734 C   0  0  0  0  0  0
  -25.3749  -31.3716   26.1504 C   0  0  0  0  0  0
  -27.0340  -30.3037   24.6203 C   0  0  0  0  0  0
  -27.6035  -32.4317   25.7491 C   0  0  0  0  0  0
  -27.5573  -37.1789   24.8481 C   0  0  0  0  0  0
  -21.4154  -29.3020   22.3610 N   0  0  0  0  0  0
  -26.4266  -37.3805   23.9464 N   0  0  0  0  0  0
  -24.6766  -31.0678   22.1026 N   0  0  0  0  0  0
  -23.4137  -28.8253   23.3060 O   0  0  0  0  0  0
  -28.3827  -26.6128   20.1534 O   0  0  0  0  0  0
  -26.5607  -34.8928   22.4701 O   0  0  0  0  0  0
  -23.5350  -32.1408   23.7391 O   0  0  0  0  0  0
  -26.0550  -21.8389   25.0183 C   0  0  0  0  0  0
  -27.3193  -21.3634   24.2860 C   0  0  0  0  0  0
  -25.5187  -22.2735   23.6429 C   0  0  0  0  0  0
  -28.2398  -19.7052   21.3966 C   0  0  0  0  0  0
  -29.4696  -21.6805   20.5128 C   0  0  0  0  0  0
  -27.0416  -20.7018   21.2965 C   0  0  0  0  0  0
  -26.9919  -22.4172   23.2004 C   0  0  0  0  0  0
  -29.6582  -20.3065   21.2371 C   0  0  2  0  0  0
  -28.5364  -22.7494   21.1999 C   0  0  1  0  0  0
  -29.0357  -24.0646   18.9654 C   0  0  0  0  0  0
  -31.3874  -17.6470   19.0780 C   0  0  0  0  0  0
  -29.8494  -17.0156   21.0591 C   0  0  0  0  0  0
  -28.3886  -25.4283   20.9989 C   0  0  0  0  0  0
  -28.2169  -24.0342   20.2847 C   0  0  2  0  0  0
  -30.9711  -17.9807   20.5300 C   0  0  2  0  0  0
  -30.0063  -15.5344   21.2377 N   0  0  0  0  0  0
  -27.2860  -22.1079   21.7560 N   0  3  1  0  0  0
  -30.6653  -19.4697   20.4566 N   0  3  0  0  0  0
  -31.4952  -12.4581   19.1878 H   0  0  0  0  0  0
  -30.3533  -11.3618   19.8855 H   0  0  0  0  0  0
  -29.7925  -11.7739   17.4848 H   0  0  0  0  0  0
  -29.7051  -13.4898   17.7663 H   0  0  0  0  0  0
  -27.8542  -11.3288   18.8063 H   0  0  0  0  0  0
  -27.4124  -12.6680   17.7893 H   0  0  0  0  0  0
  -27.7103  -14.2699   19.5765 H   0  0  0  0  0  0
  -28.6998  -11.9908   21.3483 H   0  0  0  0  0  0
  -28.4421  -13.6247   21.8965 H   0  0  0  0  0  0
  -25.2770   -9.5748   22.4659 H   0  0  0  0  0  0
  -24.0049   -7.4662   22.7416 H   0  0  0  0  0  0
  -21.0821   -8.8691   19.8889 H   0  0  0  0  0  0
  -22.3599  -10.9650   19.6062 H   0  0  0  0  0  0
  -21.1954   -7.6113   23.9666 H   0  0  0  0  0  0
  -21.1443   -6.0479   25.9030 H   0  0  0  0  0  0
  -22.0632   -2.7609   23.2778 H   0  0  0  0  0  0
  -22.4127  -12.0016   22.4881 H   0  0  0  0  0  0
  -21.0945  -13.1111   22.2419 H   0  0  0  0  0  0
  -24.6440  -15.8309   20.4494 H   0  0  0  0  0  0
  -26.2881  -15.6352   20.1027 H   0  0  0  0  0  0
  -26.7150  -32.5488   23.1173 H   0  0  0  0  0  0
  -25.0107  -33.9746   25.0525 H   0  0  0  0  0  0
  -22.7100  -31.3039   21.3986 H   0  0  0  0  0  0
  -23.3759  -35.9582   23.3266 H   0  0  0  0  0  0
  -24.3562  -36.8938   22.2091 H   0  0  0  0  0  0
  -23.7134  -37.6461   23.6655 H   0  0  0  0  0  0
  -26.0741  -31.5691   20.5956 H   0  0  0  0  0  0
  -26.8238  -30.8579   21.9959 H   0  0  0  0  0  0
  -28.1100  -29.0584   21.2009 H   0  0  0  0  0  0
  -26.0789  -25.9258   19.0636 H   0  0  0  0  0  0
  -23.9925  -27.2582   19.0562 H   0  0  0  0  0  0
  -23.7531  -30.5869   19.4039 H   0  0  0  0  0  0
  -22.7441  -29.2490   19.8568 H   0  0  0  0  0  0
  -25.1209  -36.2023   25.0868 H   0  0  0  0  0  0
  -21.0009  -28.3304   24.1344 H   0  0  0  0  0  0
  -20.5585  -26.2315   23.3626 H   0  0  0  0  0  0
  -21.6611  -26.7398   22.1218 H   0  0  0  0  0  0
  -19.6861  -25.6309   21.1221 H   0  0  0  0  0  0
  -19.6646  -27.3197   20.6717 H   0  0  0  0  0  0
  -17.4161  -26.6725   21.4025 H   0  0  0  0  0  0
  -18.0303  -26.0085   22.9003 H   0  0  0  0  0  0
  -19.7976  -30.7270   24.2236 H   0  0  0  0  0  0
  -17.5078  -31.6281   24.5206 H   0  0  0  0  0  0
  -15.5406  -30.3041   23.7648 H   0  0  0  0  0  0
  -15.8663  -28.0852   22.7070 H   0  0  0  0  0  0
  -24.5884  -30.7122   25.7837 H   0  0  0  0  0  0
  -24.8983  -32.2866   26.5000 H   0  0  0  0  0  0
  -25.8070  -30.8835   27.0250 H   0  0  0  0  0  0
  -26.2925  -29.6760   24.1265 H   0  0  0  0  0  0
  -27.4111  -29.7303   25.4692 H   0  0  0  0  0  0
  -27.8719  -30.4311   23.9354 H   0  0  0  0  0  0
  -27.2671  -33.3579   26.2115 H   0  0  0  0  0  0
  -28.3784  -32.6957   25.0305 H   0  0  0  0  0  0
  -28.0796  -31.8475   26.5370 H   0  0  0  0  0  0
  -28.2603  -38.0075   24.7552 H   0  0  0  0  0  0
  -28.1043  -36.2625   24.6226 H   0  0  0  0  0  0
  -27.2304  -37.1345   25.8882 H   0  0  0  0  0  0
  -20.9335  -29.8692   21.6778 H   0  0  0  0  0  0
  -26.0175  -38.2881   24.1478 H   0  0  0  0  0  0
  -26.2326  -22.6952   25.6770 H   0  0  0  0  0  0
  -25.4718  -21.0624   25.5221 H   0  0  0  0  0  0
  -27.2266  -20.3151   23.9959 H   0  0  0  0  0  0
  -28.2437  -21.5460   24.8317 H   0  0  0  0  0  0
  -24.9491  -23.2045   23.6563 H   0  0  0  0  0  0
  -24.9518  -21.4750   23.1678 H   0  0  0  0  0  0
  -28.0404  -18.9653   20.6261 H   0  0  0  0  0  0
  -28.2010  -19.1763   22.3473 H   0  0  0  0  0  0
  -29.0588  -21.4564   19.5318 H   0  0  0  0  0  0
  -30.4479  -22.1281   20.3388 H   0  0  0  0  0  0
  -26.7433  -20.7765   20.2480 H   0  0  0  0  0  0
  -26.1728  -20.2687   21.7873 H   0  0  0  0  0  0
  -27.3457  -23.4119   23.4801 H   0  0  0  0  0  0
  -30.0738  -20.4936   22.2327 H   0  0  0  0  0  0
  -29.1202  -23.0988   22.0540 H   0  0  0  0  0  0
  -30.1150  -24.1122   19.1482 H   0  0  0  0  0  0
  -28.7877  -24.9356   18.3629 H   0  0  0  0  0  0
  -28.8433  -23.2047   18.3219 H   0  0  0  0  0  0
  -30.6850  -18.0781   18.3625 H   0  0  0  0  0  0
  -31.4315  -16.5969   18.8192 H   0  0  0  0  0  0
  -32.3733  -18.0531   18.8537 H   0  0  0  0  0  0
  -28.9952  -17.1046   20.3909 H   0  0  0  0  0  0
  -29.5418  -17.3878   22.0362 H   0  0  0  0  0  0
  -29.3687  -25.4318   21.4758 H   0  0  0  0  0  0
  -27.6693  -25.5337   21.8116 H   0  0  0  0  0  0
  -27.1710  -23.9699   19.9809 H   0  0  0  0  0  0
  -31.8359  -17.8629   21.1882 H   0  0  0  0  0  0
  -29.2469  -15.1495   21.7787 H   0  0  0  0  0  0
  -26.5397  -22.6133   21.2943 H   0  0  0  0  0  0
  -31.5612  -19.9190   20.6063 H   0  0  0  0  0  0
  -30.4739  -19.6217   19.4773 H   0  0  0  0  0  0
  1 25  1  0  0  0
  1 30  2  0  0  0
  1 86  1  0  0  0
  2  3  1  0  0  0
  2 25  1  0  0  0
  2 89  1  0  0  0
  2 90  1  0  0  0
  3  4  1  0  0  0
  3 91  1  0  0  0
  3 92  1  0  0  0
  4  5  1  0  0  0
  4 93  1  0  0  0
  4 94  1  0  0  0
  5  6  1  0  0  0
  5 26  1  0  0  0
  5 95  1  0  0  0
  6 25  1  0  0  0
  6 96  1  0  0  0
  6 97  1  0  0  0
  7  8  2  0  0  0
  7 26  1  0  0  0
  7 29  1  0  0  0
  8  9  1  0  0  0
  8 22  1  0  0  0
  9 10  1  0  0  0
  9 27  2  0  0  0
 10 11  2  0  0  0
 10 15  1  0  0  0
 11 12  1  0  0  0
 11 98  1  0  0  0
 12 13  2  0  0  0
 12 99  1  0  0  0
 13 14  1  0  0  0
 13 31  1  0  0  0
 14 15  2  0  0  0
 14100  1  0  0  0
 15101  1  0  0  0
 16 17  2  0  0  0
 16 21  1  0  0  0
 16 31  1  0  0  0
 17 18  1  0  0  0
 17102  1  0  0  0
 18 19  2  0  0  0
 18103  1  0  0  0
 19 20  1  0  0  0
 19 24  1  0  0  0
 20 21  2  0  0  0
 20104  1  0  0  0
 21 23  1  0  0  0
 22 28  1  0  0  0
 22 32  2  0  0  0
 26 27  1  0  0  0
 28105  1  0  0  0
 28106  1  0  0  0
 29107  1  0  0  0
 29108  1  0  0  0
 33 34  1  0  0  0
 33 66  1  0  0  0
 33 70  2  0  0  0
 34 36  1  0  0  0
 34 59  1  0  0  0
 34109  1  0  0  0
 35 44  2  0  0  0
 35 45  1  0  0  0
 35 68  1  0  0  0
 36 56  1  0  0  0
 36110  1  0  0  0
 37 39  1  0  0  0
 37 47  1  0  0  0
 37 66  1  0  0  0
 37111  1  0  0  0
 38 43  2  0  0  0
 38 46  1  0  0  0
 38 47  1  0  0  0
 39 64  1  0  0  0
 39 67  2  0  0  0
 40 52  1  0  0  0
 40 53  2  0  0  0
 40 58  1  0  0  0
 41112  1  0  0  0
 41113  1  0  0  0
 41114  1  0  0  0
 41 48  1  0  0  0
 42 43  1  0  0  0
 42 66  1  0  0  0
 42115  1  0  0  0
 42116  1  0  0  0
 43 44  1  0  0  0
 44117  1  0  0  0
 45 46  2  0  0  0
 45118  1  0  0  0
 46119  1  0  0  0
 47120  1  0  0  0
 47121  1  0  0  0
 48 56  1  0  0  0
 48 65  1  0  0  0
 48122  1  0  0  0
 49 50  1  0  0  0
 49 53  1  0  0  0
 49 64  1  0  0  0
 49123  1  0  0  0
 50 51  1  0  0  0
 50124  1  0  0  0
 50125  1  0  0  0
 51 52  1  0  0  0
 51126  1  0  0  0
 51127  1  0  0  0
 52128  1  0  0  0
 52129  1  0  0  0
 53 54  1  0  0  0
 54 55  2  0  0  0
 54130  1  0  0  0
 55 57  1  0  0  0
 55131  1  0  0  0
 56 69  2  0  0  0
 57 58  2  0  0  0
 57132  1  0  0  0
 58133  1  0  0  0
 59 60  1  0  0  0
 59 61  1  0  0  0
 59 62  1  0  0  0
 60134  1  0  0  0
 60135  1  0  0  0
 60136  1  0  0  0
 61137  1  0  0  0
 61138  1  0  0  0
 61139  1  0  0  0
 62140  1  0  0  0
 62141  1  0  0  0
 62142  1  0  0  0
 63 65  1  0  0  0
 63143  1  0  0  0
 63144  1  0  0  0
 63145  1  0  0  0
 64146  1  0  0  0
 65147  1  0  0  0
 68 83  1  0  0  0
 71 72  1  0  0  0
 71 73  1  0  0  0
 71148  1  0  0  0
 71149  1  0  0  0
 72150  1  0  0  0
 72151  1  0  0  0
 72 77  1  0  0  0
 73 77  1  0  0  0
 73152  1  0  0  0
 73153  1  0  0  0
 74 76  1  0  0  0
 74 78  1  0  0  0
 74154  1  0  0  0
 74155  1  0  0  0
 75 78  1  0  0  0
 75156  1  0  0  0
 75157  1  0  0  0
 75 79  1  0  0  0
 76158  1  0  0  0
 76159  1  0  0  0
 76 87  1  0  0  0
 77 87  1  0  0  0
 77160  1  0  0  0
 78 88  1  0  0  0
 78161  1  0  0  0
 79 84  1  0  0  0
 79 87  1  0  0  0
 79162  1  0  0  0
 80163  1  0  0  0
 80164  1  0  0  0
 80165  1  0  0  0
 80 84  1  0  0  0
 81166  1  0  0  0
 81167  1  0  0  0
 81168  1  0  0  0
 81 85  1  0  0  0
 82 85  1  0  0  0
 82 86  1  0  0  0
 82169  1  0  0  0
 82170  1  0  0  0
 83 84  1  0  0  0
 83171  1  0  0  0
 83172  1  0  0  0
 84173  1  0  0  0
 85 88  1  0  0  0
 85174  1  0  0  0
 86175  1  0  0  0
 87176  1  0  0  0
 88177  1  0  0  0
 88178  1  0  0  0
M  CHG  2  87   1  88   1
M  ISO  4   1 100  68 101  83 101  86 100
M  END
> <chiral flag>
0

> <version>
0

> <s_m_source_file>
/data/baiqing/PycharmProjects/Reinvent-master-3.2/result/LINK_invent/BTK/process_docking_weight1_custom_sum_contain_oxygen_bond_distance_aromatic_linkinvent_7_9_3/rearranged_h_0126.sdf

> <i_m_source_file_index>
62

> <r_mmod_Potential_Energy-OPLS-2005>
-36.4105186462402

> <r_mmod_Stretch_Energy-OPLS-2005>
73.8016204833984

> <r_mmod_Bend_Energy-OPLS-2005>
242.642059326172

> <r_mmod_Torsional_Energy-OPLS-2005>
376.713897705078

> <r_mmod_Improper_Torsional_Energy-OPLS-2005>
3.72614765167236

> <r_mmod_Van_der_Waal_Energy-OPLS-2005>
140.179962158203

> <r_mmod_Electrostatic_Energy-OPLS-2005>
81.4354095458984

> <r_mmod_Solvation_Energy-OPLS-2005>
-979.390319824219

> <b_mmod_Minimization_Converged-OPLS-2005>
0

> <r_mmod_RMS_Derivative-OPLS-2005>
9.10081100463867

$$$$
62
                    3D
 Structure written by MMmdl.
164173  0  0  1  0            999 V2000
  -30.7273  -14.4944   20.5895 C   0  0  0  0  0  0
  -30.4204  -12.3387   19.4133 C   0  0  0  0  0  0
  -29.4831  -12.5046   18.2008 C   0  0  0  0  0  0
  -28.0131  -12.3221   18.6255 C   0  0  0  0  0  0
  -27.6491  -13.1746   19.8658 C   0  0  2  0  0  0
  -28.7032  -13.0028   20.9899 C   0  0  0  0  0  0
  -25.2566  -13.8050   20.5691 C   0  0  0  0  0  0
  -24.1811  -13.0378   20.9204 C   0  0  0  0  0  0
  -24.6336  -11.6839   20.8779 C   0  0  0  0  0  0
  -23.9009  -10.4249   21.0433 C   0  0  0  0  0  0
  -24.3569   -9.4166   21.9202 C   0  0  0  0  0  0
  -23.6252   -8.2204   22.0756 C   0  0  0  0  0  0
  -22.4242   -8.0247   21.3537 C   0  0  0  0  0  0
  -21.9869   -9.0225   20.4643 C   0  0  0  0  0  0
  -22.7191  -10.2103   20.3068 C   0  0  0  0  0  0
  -21.6826   -6.0724   22.5281 C   0  0  0  0  0  0
  -21.3993   -6.5632   23.8215 C   0  0  0  0  0  0
  -21.3652   -5.6780   24.9179 C   0  0  0  0  0  0
  -21.6044   -4.3044   24.7230 C   0  0  0  0  0  0
  -21.8810   -3.8141   23.4349 C   0  0  0  0  0  0
  -21.9180   -4.6958   22.3405 C   0  0  0  0  0  0
  -22.7841  -13.5213   21.1851 C   0  0  0  0  0  0
  -22.1651   -4.2143   21.0984 F   0  0  0  0  0  0
  -21.5639   -3.4532   25.7752 F   0  0  0  0  0  0
  -30.0241  -13.3321   20.4295 N   0  0  0  0  0  0
  -26.2956  -12.9142   20.3363 N   0  0  0  0  0  0
  -25.9246  -11.6349   20.5813 N   0  0  0  0  0  0
  -22.0464  -12.8236   22.0410 N   0  0  0  0  0  0
  -25.4308  -15.1765   20.4047 N   0  0  0  0  0  0
  -31.8665  -14.6193   20.1281 O   0  0  0  0  0  0
  -21.6597   -6.8860   21.4242 O   0  0  0  0  0  0
  -22.3556  -14.5542   20.6702 O   0  0  0  0  0  0
  -24.6128  -31.8683   23.2128 C   0  0  0  0  0  0
  -25.9039  -32.4815   23.8425 C   0  0  1  0  0  0
  -27.2459  -27.4523   20.0992 C   0  0  0  0  0  0
  -25.5920  -33.8616   24.2376 N   0  0  0  0  0  0
  -23.4021  -30.4904   21.5510 C   0  0  2  0  0  0
  -24.8507  -28.9463   20.1307 C   0  0  0  0  0  0
  -22.7391  -29.4674   22.5010 C   0  0  0  0  0  0
  -18.0273  -28.1404   22.8502 C   0  0  0  0  0  0
  -24.1486  -36.7308   23.2643 C   0  0  0  0  0  0
  -25.9285  -30.8369   21.3654 C   0  0  0  0  0  0
  -26.0081  -29.4669   20.7229 C   0  0  0  0  0  0
  -27.2102  -28.7263   20.7045 C   0  0  0  0  0  0
  -26.0736  -26.9338   19.5110 C   0  0  0  0  0  0
  -24.8748  -27.6748   19.5279 C   0  0  0  0  0  0
  -23.6147  -29.8168   20.1682 C   0  0  0  0  0  0
  -25.4106  -36.3106   24.0354 C   0  0  1  0  0  0
  -20.5857  -28.3682   23.1310 C   0  0  2  0  0  0
  -20.6765  -26.9418   22.5410 C   0  0  0  0  0  0
  -19.5736  -26.6406   21.5217 C   0  0  0  0  0  0
  -18.1917  -26.7956   22.1626 C   0  0  0  0  0  0
  -19.1522  -28.8859   23.2911 C   0  0  0  0  0  0
  -18.9456  -30.1471   23.8915 C   0  0  0  0  0  0
  -17.6455  -30.6600   24.0581 C   0  0  0  0  0  0
  -25.9038  -34.9466   23.5160 C   0  0  0  0  0  0
  -16.5347  -29.9100   23.6333 C   0  0  0  0  0  0
  -16.7257  -28.6526   23.0344 C   0  0  0  0  0  0
  -26.4506  -31.6550   25.0712 C   0  0  0  0  0  0
  -25.3803  -31.3583   26.1461 C   0  0  0  0  0  0
  -27.0349  -30.3008   24.6044 C   0  0  0  0  0  0
  -27.6098  -32.4235   25.7480 C   0  0  0  0  0  0
  -27.5599  -37.1809   24.8475 C   0  0  0  0  0  0
  -21.4120  -29.3049   22.3722 N   0  0  0  0  0  0
  -26.4297  -37.3793   23.9427 N   0  0  0  0  0  0
  -24.6659  -31.0796   22.1017 N   0  0  0  0  0  0
  -23.4144  -28.8220   23.3063 O   0  0  0  0  0  0
  -28.4276  -26.7626   19.9838 O   0  0  0  0  0  0
  -26.5571  -34.8905   22.4707 O   0  0  0  0  0  0
  -23.5325  -32.1425   23.7532 O   0  0  0  0  0  0
  -32.6458  -20.6026   22.7476 C   0  0  0  0  0  0
  -32.0026  -19.3493   22.7473 C   0  0  0  0  0  0
  -32.0639  -21.7011   22.0853 C   0  0  0  0  0  0
  -30.1906  -20.2922   21.4224 C   0  0  0  0  0  0
  -30.7702  -19.1751   22.0797 C   0  0  0  0  0  0
  -30.8309  -21.5531   21.4139 C   0  0  0  0  0  0
  -28.9859  -17.6283   21.0672 C   0  0  0  0  0  0
  -28.8742  -16.1236   20.8734 C   0  0  0  0  0  0
  -30.9726  -16.5905   21.8848 C   0  0  0  0  0  0
  -30.0615  -17.8128   22.1272 C   0  0  1  0  0  0
  -30.2149  -22.7275   20.6508 C   0  0  0  0  0  0
  -28.3326  -24.3888   20.6061 C   0  0  0  0  0  0
  -28.7407  -25.8222   21.0117 C   0  0  0  0  0  0
  -30.1538  -15.5234   21.2724 N   0  0  0  0  0  0
  -29.0626  -23.3290   21.3601 N   0  3  0  0  0  0
  -29.4780  -17.6374   23.4008 O   0  0  0  0  0  0
  -31.4586  -12.4513   19.0954 H   0  0  0  0  0  0
  -30.3504  -11.3304   19.8241 H   0  0  0  0  0  0
  -29.7395  -11.7828   17.4240 H   0  0  0  0  0  0
  -29.6179  -13.4937   17.7584 H   0  0  0  0  0  0
  -27.8565  -11.2646   18.8422 H   0  0  0  0  0  0
  -27.3479  -12.5664   17.7971 H   0  0  0  0  0  0
  -27.6477  -14.1925   19.5021 H   0  0  0  0  0  0
  -28.7076  -11.9711   21.3440 H   0  0  0  0  0  0
  -28.4639  -13.6010   21.8685 H   0  0  0  0  0  0
  -25.2716   -9.5629   22.4780 H   0  0  0  0  0  0
  -23.9948   -7.4579   22.7467 H   0  0  0  0  0  0
  -21.0803   -8.8741   19.8949 H   0  0  0  0  0  0
  -22.3662  -10.9645   19.6179 H   0  0  0  0  0  0
  -21.1978   -7.6137   23.9723 H   0  0  0  0  0  0
  -21.1483   -6.0516   25.9079 H   0  0  0  0  0  0
  -22.0605   -2.7605   23.2858 H   0  0  0  0  0  0
  -22.4046  -11.9877   22.4801 H   0  0  0  0  0  0
  -21.1098  -13.1294   22.2613 H   0  0  0  0  0  0
  -24.6650  -15.8323   20.5126 H   0  0  0  0  0  0
  -26.2800  -15.6138   20.0725 H   0  0  0  0  0  0
  -26.7110  -32.5549   23.1202 H   0  0  0  0  0  0
  -25.0118  -33.9786   25.0551 H   0  0  0  0  0  0
  -22.6912  -31.3057   21.4067 H   0  0  0  0  0  0
  -23.3757  -35.9633   23.3272 H   0  0  0  0  0  0
  -24.3599  -36.8937   22.2061 H   0  0  0  0  0  0
  -23.7191  -37.6489   23.6669 H   0  0  0  0  0  0
  -26.0357  -31.5981   20.5920 H   0  0  0  0  0  0
  -26.8181  -30.8953   21.9813 H   0  0  0  0  0  0
  -28.1133  -29.1394   21.1326 H   0  0  0  0  0  0
  -26.0947  -25.9709   19.0208 H   0  0  0  0  0  0
  -23.9862  -27.2680   19.0649 H   0  0  0  0  0  0
  -23.7350  -30.5885   19.4078 H   0  0  0  0  0  0
  -22.7389  -29.2399   19.8656 H   0  0  0  0  0  0
  -25.1272  -36.1990   25.0846 H   0  0  0  0  0  0
  -20.9954  -28.3267   24.1425 H   0  0  0  0  0  0
  -20.5676  -26.2302   23.3605 H   0  0  0  0  0  0
  -21.6637  -26.7473   22.1189 H   0  0  0  0  0  0
  -19.6872  -25.6310   21.1254 H   0  0  0  0  0  0
  -19.6670  -27.3229   20.6757 H   0  0  0  0  0  0
  -17.4183  -26.6726   21.4025 H   0  0  0  0  0  0
  -18.0298  -26.0089   22.9009 H   0  0  0  0  0  0
  -19.7925  -30.7313   24.2261 H   0  0  0  0  0  0
  -17.4997  -31.6269   24.5192 H   0  0  0  0  0  0
  -15.5352  -30.3016   23.7632 H   0  0  0  0  0  0
  -15.8666  -28.0858   22.7025 H   0  0  0  0  0  0
  -24.6023  -30.6885   25.7783 H   0  0  0  0  0  0
  -24.8949  -32.2682   26.4972 H   0  0  0  0  0  0
  -25.8183  -30.8706   27.0173 H   0  0  0  0  0  0
  -26.2857  -29.6706   24.1232 H   0  0  0  0  0  0
  -27.4282  -29.7290   25.4462 H   0  0  0  0  0  0
  -27.8619  -30.4351   23.9075 H   0  0  0  0  0  0
  -27.2774  -33.3557   26.2057 H   0  0  0  0  0  0
  -28.3932  -32.6726   25.0312 H   0  0  0  0  0  0
  -28.0739  -31.8326   26.5385 H   0  0  0  0  0  0
  -28.2591  -38.0143   24.7565 H   0  0  0  0  0  0
  -28.1129  -36.2666   24.6253 H   0  0  0  0  0  0
  -27.2318  -37.1367   25.8881 H   0  0  0  0  0  0
  -20.9286  -29.8765   21.6936 H   0  0  0  0  0  0
  -26.0186  -38.2870   24.1450 H   0  0  0  0  0  0
  -33.5936  -20.7200   23.2557 H   0  0  0  0  0  0
  -32.4585  -18.5189   23.2699 H   0  0  0  0  0  0
  -32.5795  -22.6515   22.0901 H   0  0  0  0  0  0
  -29.2434  -20.1922   20.9132 H   0  0  0  0  0  0
  -28.0342  -18.1069   21.3042 H   0  0  0  0  0  0
  -29.3353  -18.0435   20.1194 H   0  0  0  0  0  0
  -28.6530  -15.9439   19.8238 H   0  0  0  0  0  0
  -28.0670  -15.7349   21.4934 H   0  0  0  0  0  0
  -31.4786  -16.2487   22.7886 H   0  0  0  0  0  0
  -31.7537  -16.8790   21.1779 H   0  0  0  0  0  0
  -29.8966  -22.3703   19.6700 H   0  0  0  0  0  0
  -30.9701  -23.4922   20.4640 H   0  0  0  0  0  0
  -28.4797  -24.2451   19.5350 H   0  0  0  0  0  0
  -27.2625  -24.2694   20.7801 H   0  0  0  0  0  0
  -29.8215  -25.8686   21.1477 H   0  0  0  0  0  0
  -28.2958  -26.1071   21.9662 H   0  0  0  0  0  0
  -29.3753  -23.6833   22.2507 H   0  0  0  0  0  0
  -28.4155  -22.5813   21.5497 H   0  0  0  0  0  0
  -28.9368  -18.4016   23.5637 H   0  0  0  0  0  0
  1 25  1  0  0  0
  1 30  2  0  0  0
  1 84  1  0  0  0
  2  3  1  0  0  0
  2 25  1  0  0  0
  2 87  1  0  0  0
  2 88  1  0  0  0
  3  4  1  0  0  0
  3 89  1  0  0  0
  3 90  1  0  0  0
  4  5  1  0  0  0
  4 91  1  0  0  0
  4 92  1  0  0  0
  5  6  1  0  0  0
  5 26  1  0  0  0
  5 93  1  0  0  0
  6 25  1  0  0  0
  6 94  1  0  0  0
  6 95  1  0  0  0
  7  8  2  0  0  0
  7 26  1  0  0  0
  7 29  1  0  0  0
  8  9  1  0  0  0
  8 22  1  0  0  0
  9 10  1  0  0  0
  9 27  2  0  0  0
 10 11  2  0  0  0
 10 15  1  0  0  0
 11 12  1  0  0  0
 11 96  1  0  0  0
 12 13  2  0  0  0
 12 97  1  0  0  0
 13 14  1  0  0  0
 13 31  1  0  0  0
 14 15  2  0  0  0
 14 98  1  0  0  0
 15 99  1  0  0  0
 16 17  2  0  0  0
 16 21  1  0  0  0
 16 31  1  0  0  0
 17 18  1  0  0  0
 17100  1  0  0  0
 18 19  2  0  0  0
 18101  1  0  0  0
 19 20  1  0  0  0
 19 24  1  0  0  0
 20 21  2  0  0  0
 20102  1  0  0  0
 21 23  1  0  0  0
 22 28  1  0  0  0
 22 32  2  0  0  0
 26 27  1  0  0  0
 28103  1  0  0  0
 28104  1  0  0  0
 29105  1  0  0  0
 29106  1  0  0  0
 33 34  1  0  0  0
 33 66  1  0  0  0
 33 70  2  0  0  0
 34 36  1  0  0  0
 34 59  1  0  0  0
 34107  1  0  0  0
 35 44  2  0  0  0
 35 45  1  0  0  0
 35 68  1  0  0  0
 36 56  1  0  0  0
 36108  1  0  0  0
 37 39  1  0  0  0
 37 47  1  0  0  0
 37 66  1  0  0  0
 37109  1  0  0  0
 38 43  2  0  0  0
 38 46  1  0  0  0
 38 47  1  0  0  0
 39 64  1  0  0  0
 39 67  2  0  0  0
 40 52  1  0  0  0
 40 53  2  0  0  0
 40 58  1  0  0  0
 41110  1  0  0  0
 41111  1  0  0  0
 41112  1  0  0  0
 41 48  1  0  0  0
 42 43  1  0  0  0
 42 66  1  0  0  0
 42113  1  0  0  0
 42114  1  0  0  0
 43 44  1  0  0  0
 44115  1  0  0  0
 45 46  2  0  0  0
 45116  1  0  0  0
 46117  1  0  0  0
 47118  1  0  0  0
 47119  1  0  0  0
 48 56  1  0  0  0
 48 65  1  0  0  0
 48120  1  0  0  0
 49 50  1  0  0  0
 49 53  1  0  0  0
 49 64  1  0  0  0
 49121  1  0  0  0
 50 51  1  0  0  0
 50122  1  0  0  0
 50123  1  0  0  0
 51 52  1  0  0  0
 51124  1  0  0  0
 51125  1  0  0  0
 52126  1  0  0  0
 52127  1  0  0  0
 53 54  1  0  0  0
 54 55  2  0  0  0
 54128  1  0  0  0
 55 57  1  0  0  0
 55129  1  0  0  0
 56 69  2  0  0  0
 57 58  2  0  0  0
 57130  1  0  0  0
 58131  1  0  0  0
 59 60  1  0  0  0
 59 61  1  0  0  0
 59 62  1  0  0  0
 60132  1  0  0  0
 60133  1  0  0  0
 60134  1  0  0  0
 61135  1  0  0  0
 61136  1  0  0  0
 61137  1  0  0  0
 62138  1  0  0  0
 62139  1  0  0  0
 62140  1  0  0  0
 63 65  1  0  0  0
 63141  1  0  0  0
 63142  1  0  0  0
 63143  1  0  0  0
 64144  1  0  0  0
 65145  1  0  0  0
 68 83  1  0  0  0
 71 72  2  0  0  0
 71 73  1  0  0  0
 71146  1  0  0  0
 72 75  1  0  0  0
 72147  1  0  0  0
 73 76  2  0  0  0
 73148  1  0  0  0
 74 75  2  0  0  0
 74 76  1  0  0  0
 74149  1  0  0  0
 75 80  1  0  0  0
 76 81  1  0  0  0
 77 78  1  0  0  0
 77 80  1  0  0  0
 77150  1  0  0  0
 77151  1  0  0  0
 78 84  1  0  0  0
 78152  1  0  0  0
 78153  1  0  0  0
 79 80  1  0  0  0
 79 84  1  0  0  0
 79154  1  0  0  0
 79155  1  0  0  0
 80 86  1  0  0  0
 81 85  1  0  0  0
 81156  1  0  0  0
 81157  1  0  0  0
 82 83  1  0  0  0
 82 85  1  0  0  0
 82158  1  0  0  0
 82159  1  0  0  0
 83160  1  0  0  0
 83161  1  0  0  0
 85162  1  0  0  0
 85163  1  0  0  0
 86164  1  0  0  0
M  CHG  1  85   1
M  ISO  4   1 100  68 101  83 101  84 100
M  END
> <chiral flag>
0

> <version>
0

> <s_m_source_file>
/data/baiqing/PycharmProjects/Reinvent-master-3.2/result/LINK_invent/BTK/process_docking_weight1_custom_sum_contain_oxygen_bond_distance_aromatic_linkinvent_7_9_3/rearranged_h_0126.sdf

> <i_m_source_file_index>
63

> <r_mmod_Potential_Energy-OPLS-2005>
-92.3585586547852

> <r_mmod_Stretch_Energy-OPLS-2005>
38.5452575683594

> <r_mmod_Bend_Energy-OPLS-2005>
120.416938781738

> <r_mmod_Torsional_Energy-OPLS-2005>
352.126373291016

> <r_mmod_Improper_Torsional_Energy-OPLS-2005>
4.95887660980225

> <r_mmod_Van_der_Waal_Energy-OPLS-2005>
153.307052612305

> <r_mmod_Electrostatic_Energy-OPLS-2005>
-305.853912353516

> <r_mmod_Solvation_Energy-OPLS-2005>
-470.146057128906

> <b_mmod_Minimization_Converged-OPLS-2005>
0

> <r_mmod_RMS_Derivative-OPLS-2005>
2.30208277702332

$$$$
63
                    3D
 Structure written by MMmdl.
177186  0  0  1  0            999 V2000
  -30.7077  -14.6593   20.4904 C   0  0  0  0  0  0
  -30.4202  -12.4055   19.4720 C   0  0  0  0  0  0
  -29.5146  -12.5237   18.2317 C   0  0  0  0  0  0
  -28.0369  -12.3705   18.6359 C   0  0  0  0  0  0
  -27.6565  -13.2445   19.8649 C   0  0  2  0  0  0
  -28.7062  -13.1567   21.0002 C   0  0  0  0  0  0
  -25.2589  -13.8226   20.5731 C   0  0  0  0  0  0
  -24.1887  -13.0446   20.9218 C   0  0  0  0  0  0
  -24.6495  -11.6927   20.8760 C   0  0  0  0  0  0
  -23.9148  -10.4304   21.0378 C   0  0  0  0  0  0
  -24.3679   -9.4208   21.9151 C   0  0  0  0  0  0
  -23.6344   -8.2256   22.0744 C   0  0  0  0  0  0
  -22.4305   -8.0300   21.3542 C   0  0  0  0  0  0
  -21.9950   -9.0277   20.4631 C   0  0  0  0  0  0
  -22.7306  -10.2139   20.3022 C   0  0  0  0  0  0
  -21.6864   -6.0756   22.5273 C   0  0  0  0  0  0
  -21.4023   -6.5646   23.8222 C   0  0  0  0  0  0
  -21.3673   -5.6787   24.9177 C   0  0  0  0  0  0
  -21.6047   -4.3052   24.7221 C   0  0  0  0  0  0
  -21.8822   -3.8160   23.4327 C   0  0  0  0  0  0
  -21.9209   -4.6993   22.3402 C   0  0  0  0  0  0
  -22.7900  -13.5232   21.1871 C   0  0  0  0  0  0
  -22.1663   -4.2187   21.0964 F   0  0  0  0  0  0
  -21.5641   -3.4514   25.7731 F   0  0  0  0  0  0
  -30.0174  -13.4703   20.4206 N   0  0  0  0  0  0
  -26.3069  -12.9470   20.3366 N   0  0  0  0  0  0
  -25.9438  -11.6594   20.5781 N   0  0  0  0  0  0
  -22.0521  -12.8229   22.0410 N   0  0  0  0  0  0
  -25.4218  -15.1949   20.4130 N   0  0  0  0  0  0
  -31.8601  -14.7199   20.0669 O   0  0  0  0  0  0
  -21.6673   -6.8904   21.4235 O   0  0  0  0  0  0
  -22.3571  -14.5539   20.6736 O   0  0  0  0  0  0
  -24.6269  -31.8626   23.1980 C   0  0  0  0  0  0
  -25.9121  -32.4768   23.8329 C   0  0  1  0  0  0
  -27.2172  -27.3002   20.1200 C   0  0  0  0  0  0
  -25.5919  -33.8560   24.2274 N   0  0  0  0  0  0
  -23.4238  -30.4824   21.5414 C   0  0  2  0  0  0
  -24.8698  -28.9399   20.1011 C   0  0  0  0  0  0
  -22.7509  -29.4625   22.4926 C   0  0  0  0  0  0
  -18.0309  -28.1402   22.8509 C   0  0  0  0  0  0
  -24.1497  -36.7291   23.2644 C   0  0  0  0  0  0
  -25.9649  -30.7830   21.3761 C   0  0  0  0  0  0
  -26.0359  -29.4092   20.7194 C   0  0  0  0  0  0
  -27.2108  -28.5981   20.7234 C   0  0  0  0  0  0
  -26.0357  -26.9048   19.4493 C   0  0  0  0  0  0
  -24.8743  -27.6994   19.4507 C   0  0  0  0  0  0
  -23.6386  -29.8225   20.1541 C   0  0  0  0  0  0
  -25.4119  -36.3088   24.0341 C   0  0  1  0  0  0
  -20.5915  -28.3721   23.1298 C   0  0  2  0  0  0
  -20.6794  -26.9437   22.5434 C   0  0  0  0  0  0
  -19.5751  -26.6403   21.5257 C   0  0  0  0  0  0
  -18.1937  -26.7952   22.1651 C   0  0  0  0  0  0
  -19.1559  -28.8881   23.2904 C   0  0  0  0  0  0
  -18.9460  -30.1478   23.8908 C   0  0  0  0  0  0
  -17.6446  -30.6586   24.0583 C   0  0  0  0  0  0
  -25.9060  -34.9455   23.5123 C   0  0  0  0  0  0
  -16.5350  -29.9077   23.6318 C   0  0  0  0  0  0
  -16.7293  -28.6511   23.0330 C   0  0  0  0  0  0
  -26.4488  -31.6538   25.0681 C   0  0  0  0  0  0
  -25.3702  -31.3624   26.1382 C   0  0  0  0  0  0
  -27.0282  -30.2947   24.6095 C   0  0  0  0  0  0
  -27.6074  -32.4246   25.7438 C   0  0  0  0  0  0
  -27.5593  -37.1802   24.8471 C   0  0  0  0  0  0
  -21.4227  -29.3055   22.3675 N   0  0  0  0  0  0
  -26.4301  -37.3778   23.9414 N   0  0  0  0  0  0
  -24.6904  -31.0601   22.0951 N   0  0  0  0  0  0
  -23.4236  -28.8195   23.3035 O   0  0  0  0  0  0
  -28.3150  -26.4252   20.2065 O   0  0  0  0  0  0
  -26.5647  -34.8931   22.4704 O   0  0  0  0  0  0
  -23.5423  -32.1445   23.7275 O   0  0  0  0  0  0
  -31.8504  -17.4276   21.6085 C   0  0  0  0  0  0
  -32.9662  -20.5438   23.9773 C   0  0  0  0  0  0
  -29.6182  -18.4919   21.0324 C   0  0  0  0  0  0
  -32.3833  -18.8646   21.5490 C   0  0  0  0  0  0
  -34.2786  -21.3045   23.7423 C   0  0  0  0  0  0
  -32.8663  -21.8641   21.8985 C   0  0  0  0  0  0
  -32.0305  -20.9414   22.8117 C   0  0  1  0  0  0
  -30.5964  -17.2468   20.7352 C   0  0  2  0  0  0
  -30.2684  -19.9729   21.1652 C   0  0  1  0  0  0
  -27.2368  -21.9807   22.9149 C   0  0  0  0  0  0
  -28.0380  -20.8263   22.2818 C   0  0  0  0  0  0
  -29.0664  -23.9030   20.6799 C   0  0  0  0  0  0
  -28.9266  -22.3299   20.3434 C   0  0  0  0  0  0
  -28.0925  -24.9669   19.9913 C   0  0  0  0  0  0
  -29.2961  -21.2552   21.4827 C   0  0  2  0  0  0
  -31.3907  -19.7806   22.1384 N   0  0  0  0  0  0
  -30.0585  -15.8197   20.8587 N   0  0  0  0  0  0
  -34.2673  -21.7459   22.3381 N   0  3  0  0  0  0
  -31.4679  -12.4742   19.1794 H   0  0  0  0  0  0
  -30.3068  -11.4204   19.9278 H   0  0  0  0  0  0
  -29.7817  -11.7676   17.4926 H   0  0  0  0  0  0
  -29.6748  -13.4870   17.7468 H   0  0  0  0  0  0
  -27.8723  -11.3161   18.8585 H   0  0  0  0  0  0
  -27.3878  -12.6017   17.7902 H   0  0  0  0  0  0
  -27.6549  -14.2769   19.5122 H   0  0  0  0  0  0
  -28.7220  -12.1596   21.4462 H   0  0  0  0  0  0
  -28.4633  -13.8513   21.8066 H   0  0  0  0  0  0
  -25.2806   -9.5715   22.4738 H   0  0  0  0  0  0
  -24.0060   -7.4661   22.7459 H   0  0  0  0  0  0
  -21.0880   -8.8783   19.8946 H   0  0  0  0  0  0
  -22.3738  -10.9676   19.6153 H   0  0  0  0  0  0
  -21.1975   -7.6140   23.9753 H   0  0  0  0  0  0
  -21.1506   -6.0494   25.9099 H   0  0  0  0  0  0
  -22.0593   -2.7621   23.2817 H   0  0  0  0  0  0
  -22.4136  -11.9870   22.4758 H   0  0  0  0  0  0
  -21.1138  -13.1250   22.2581 H   0  0  0  0  0  0
  -24.6479  -15.8400   20.5223 H   0  0  0  0  0  0
  -26.2718  -15.6452   20.0978 H   0  0  0  0  0  0
  -26.7191  -32.5444   23.1077 H   0  0  0  0  0  0
  -25.0000  -33.9704   25.0371 H   0  0  0  0  0  0
  -22.7178  -31.3029   21.3985 H   0  0  0  0  0  0
  -23.3766  -35.9611   23.3285 H   0  0  0  0  0  0
  -24.3608  -36.8921   22.2063 H   0  0  0  0  0  0
  -23.7225  -37.6480   23.6668 H   0  0  0  0  0  0
  -26.1025  -31.5423   20.6059 H   0  0  0  0  0  0
  -26.8445  -30.8314   22.0053 H   0  0  0  0  0  0
  -28.0996  -28.9455   21.2313 H   0  0  0  0  0  0
  -25.9792  -25.9688   18.9167 H   0  0  0  0  0  0
  -23.9921  -27.3490   18.9321 H   0  0  0  0  0  0
  -23.7562  -30.6012   19.3993 H   0  0  0  0  0  0
  -22.7588  -29.2506   19.8549 H   0  0  0  0  0  0
  -25.1293  -36.1947   25.0827 H   0  0  0  0  0  0
  -21.0020  -28.3292   24.1417 H   0  0  0  0  0  0
  -20.5749  -26.2324   23.3648 H   0  0  0  0  0  0
  -21.6651  -26.7483   22.1179 H   0  0  0  0  0  0
  -19.6897  -25.6325   21.1266 H   0  0  0  0  0  0
  -19.6659  -27.3241   20.6811 H   0  0  0  0  0  0
  -17.4227  -26.6775   21.4028 H   0  0  0  0  0  0
  -18.0258  -26.0082   22.9019 H   0  0  0  0  0  0
  -19.7923  -30.7330   24.2259 H   0  0  0  0  0  0
  -17.4975  -31.6261   24.5197 H   0  0  0  0  0  0
  -15.5339  -30.2966   23.7610 H   0  0  0  0  0  0
  -15.8718  -28.0831   22.6978 H   0  0  0  0  0  0
  -24.5951  -30.6907   25.7669 H   0  0  0  0  0  0
  -24.8796  -32.2739   26.4799 H   0  0  0  0  0  0
  -25.8022  -30.8803   27.0163 H   0  0  0  0  0  0
  -26.2796  -29.6719   24.1173 H   0  0  0  0  0  0
  -27.4029  -29.7177   25.4564 H   0  0  0  0  0  0
  -27.8678  -30.4207   23.9251 H   0  0  0  0  0  0
  -27.2726  -33.3565   26.2006 H   0  0  0  0  0  0
  -28.3868  -32.6761   25.0228 H   0  0  0  0  0  0
  -28.0758  -31.8359   26.5338 H   0  0  0  0  0  0
  -28.2606  -38.0107   24.7516 H   0  0  0  0  0  0
  -28.1096  -36.2637   24.6281 H   0  0  0  0  0  0
  -27.2333  -37.1433   25.8884 H   0  0  0  0  0  0
  -20.9421  -29.8741   21.6847 H   0  0  0  0  0  0
  -26.0191  -38.2864   24.1373 H   0  0  0  0  0  0
  -31.6445  -17.1459   22.6408 H   0  0  0  0  0  0
  -32.6484  -16.7650   21.2773 H   0  0  0  0  0  0
  -32.5375  -20.8404   24.9361 H   0  0  0  0  0  0
  -33.1424  -19.4730   24.0618 H   0  0  0  0  0  0
  -29.0930  -18.2723   21.9615 H   0  0  0  0  0  0
  -28.8502  -18.5245   20.2597 H   0  0  0  0  0  0
  -32.6276  -19.1520   20.5223 H   0  0  0  0  0  0
  -33.3349  -18.8815   22.0786 H   0  0  0  0  0  0
  -35.1613  -20.7017   23.9588 H   0  0  0  0  0  0
  -34.3167  -22.1837   24.3877 H   0  0  0  0  0  0
  -32.5436  -22.8973   22.0318 H   0  0  0  0  0  0
  -32.7718  -21.6403   20.8350 H   0  0  0  0  0  0
  -31.2846  -21.5379   23.3259 H   0  0  0  0  0  0
  -30.9197  -17.3555   19.6969 H   0  0  0  0  0  0
  -30.7283  -20.2060   20.2035 H   0  0  0  0  0  0
  -26.3585  -21.5968   23.4345 H   0  0  0  0  0  0
  -26.8807  -22.6942   22.1727 H   0  0  0  0  0  0
  -27.8334  -22.5260   23.6445 H   0  0  0  0  0  0
  -27.3770  -20.2425   21.6409 H   0  0  0  0  0  0
  -28.3396  -20.1567   23.0909 H   0  0  0  0  0  0
  -30.0936  -24.1931   20.4601 H   0  0  0  0  0  0
  -28.9568  -24.0397   21.7544 H   0  0  0  0  0  0
  -29.5139  -22.1234   19.4477 H   0  0  0  0  0  0
  -27.8962  -22.1465   20.0345 H   0  0  0  0  0  0
  -27.0942  -24.6982   20.3439 H   0  0  0  0  0  0
  -28.0920  -24.7950   18.9140 H   0  0  0  0  0  0
  -29.8145  -21.9132   22.1589 H   0  0  0  0  0  0
  -29.1015  -15.7163   21.1669 H   0  0  0  0  0  0
  -34.7343  -21.0603   21.7702 H   0  0  0  0  0  0
  -34.7559  -22.6206   22.2332 H   0  0  0  0  0  0
  1 25  1  0  0  0
  1 30  2  0  0  0
  1 87  1  0  0  0
  2  3  1  0  0  0
  2 25  1  0  0  0
  2 89  1  0  0  0
  2 90  1  0  0  0
  3  4  1  0  0  0
  3 91  1  0  0  0
  3 92  1  0  0  0
  4  5  1  0  0  0
  4 93  1  0  0  0
  4 94  1  0  0  0
  5  6  1  0  0  0
  5 26  1  0  0  0
  5 95  1  0  0  0
  6 25  1  0  0  0
  6 96  1  0  0  0
  6 97  1  0  0  0
  7  8  2  0  0  0
  7 26  1  0  0  0
  7 29  1  0  0  0
  8  9  1  0  0  0
  8 22  1  0  0  0
  9 10  1  0  0  0
  9 27  2  0  0  0
 10 11  2  0  0  0
 10 15  1  0  0  0
 11 12  1  0  0  0
 11 98  1  0  0  0
 12 13  2  0  0  0
 12 99  1  0  0  0
 13 14  1  0  0  0
 13 31  1  0  0  0
 14 15  2  0  0  0
 14100  1  0  0  0
 15101  1  0  0  0
 16 17  2  0  0  0
 16 21  1  0  0  0
 16 31  1  0  0  0
 17 18  1  0  0  0
 17102  1  0  0  0
 18 19  2  0  0  0
 18103  1  0  0  0
 19 20  1  0  0  0
 19 24  1  0  0  0
 20 21  2  0  0  0
 20104  1  0  0  0
 21 23  1  0  0  0
 22 28  1  0  0  0
 22 32  2  0  0  0
 26 27  1  0  0  0
 28105  1  0  0  0
 28106  1  0  0  0
 29107  1  0  0  0
 29108  1  0  0  0
 33 34  1  0  0  0
 33 66  1  0  0  0
 33 70  2  0  0  0
 34 36  1  0  0  0
 34 59  1  0  0  0
 34109  1  0  0  0
 35 44  2  0  0  0
 35 45  1  0  0  0
 35 68  1  0  0  0
 36 56  1  0  0  0
 36110  1  0  0  0
 37 39  1  0  0  0
 37 47  1  0  0  0
 37 66  1  0  0  0
 37111  1  0  0  0
 38 43  2  0  0  0
 38 46  1  0  0  0
 38 47  1  0  0  0
 39 64  1  0  0  0
 39 67  2  0  0  0
 40 52  1  0  0  0
 40 53  2  0  0  0
 40 58  1  0  0  0
 41112  1  0  0  0
 41113  1  0  0  0
 41114  1  0  0  0
 41 48  1  0  0  0
 42 43  1  0  0  0
 42 66  1  0  0  0
 42115  1  0  0  0
 42116  1  0  0  0
 43 44  1  0  0  0
 44117  1  0  0  0
 45 46  2  0  0  0
 45118  1  0  0  0
 46119  1  0  0  0
 47120  1  0  0  0
 47121  1  0  0  0
 48 56  1  0  0  0
 48 65  1  0  0  0
 48122  1  0  0  0
 49 50  1  0  0  0
 49 53  1  0  0  0
 49 64  1  0  0  0
 49123  1  0  0  0
 50 51  1  0  0  0
 50124  1  0  0  0
 50125  1  0  0  0
 51 52  1  0  0  0
 51126  1  0  0  0
 51127  1  0  0  0
 52128  1  0  0  0
 52129  1  0  0  0
 53 54  1  0  0  0
 54 55  2  0  0  0
 54130  1  0  0  0
 55 57  1  0  0  0
 55131  1  0  0  0
 56 69  2  0  0  0
 57 58  2  0  0  0
 57132  1  0  0  0
 58133  1  0  0  0
 59 60  1  0  0  0
 59 61  1  0  0  0
 59 62  1  0  0  0
 60134  1  0  0  0
 60135  1  0  0  0
 60136  1  0  0  0
 61137  1  0  0  0
 61138  1  0  0  0
 61139  1  0  0  0
 62140  1  0  0  0
 62141  1  0  0  0
 62142  1  0  0  0
 63 65  1  0  0  0
 63143  1  0  0  0
 63144  1  0  0  0
 63145  1  0  0  0
 64146  1  0  0  0
 65147  1  0  0  0
 68 84  1  0  0  0
 71 74  1  0  0  0
 71 78  1  0  0  0
 71148  1  0  0  0
 71149  1  0  0  0
 72 75  1  0  0  0
 72 77  1  0  0  0
 72150  1  0  0  0
 72151  1  0  0  0
 73 78  1  0  0  0
 73152  1  0  0  0
 73153  1  0  0  0
 73 79  1  0  0  0
 74154  1  0  0  0
 74155  1  0  0  0
 74 86  1  0  0  0
 75 88  1  0  0  0
 75156  1  0  0  0
 75157  1  0  0  0
 76 77  1  0  0  0
 76 88  1  0  0  0
 76158  1  0  0  0
 76159  1  0  0  0
 77 86  1  0  0  0
 77160  1  0  0  0
 78 87  1  0  0  0
 78161  1  0  0  0
 79 85  1  0  0  0
 79 86  1  0  0  0
 79162  1  0  0  0
 80 81  1  0  0  0
 80163  1  0  0  0
 80164  1  0  0  0
 80165  1  0  0  0
 81166  1  0  0  0
 81167  1  0  0  0
 81 85  1  0  0  0
 82 83  1  0  0  0
 82 84  1  0  0  0
 82168  1  0  0  0
 82169  1  0  0  0
 83 85  1  0  0  0
 83170  1  0  0  0
 83171  1  0  0  0
 84172  1  0  0  0
 84173  1  0  0  0
 85174  1  0  0  0
 87175  1  0  0  0
 88176  1  0  0  0
 88177  1  0  0  0
M  CHG  1  88   1
M  ISO  4   1 100  68 101  84 101  87 100
M  END
> <chiral flag>
0

> <version>
0

> <s_m_source_file>
/data/baiqing/PycharmProjects/Reinvent-master-3.2/result/LINK_invent/BTK/process_docking_weight1_custom_sum_contain_oxygen_bond_distance_aromatic_linkinvent_7_9_3/rearranged_h_0126.sdf

> <i_m_source_file_index>
64

> <r_mmod_Potential_Energy-OPLS-2005>
122.854629516602

> <r_mmod_Stretch_Energy-OPLS-2005>
123.370887756348

> <r_mmod_Bend_Energy-OPLS-2005>
202.258529663086

> <r_mmod_Torsional_Energy-OPLS-2005>
344.793731689453

> <r_mmod_Improper_Torsional_Energy-OPLS-2005>
3.8834068775177

> <r_mmod_Van_der_Waal_Energy-OPLS-2005>
143.708465576172

> <r_mmod_Electrostatic_Energy-OPLS-2005>
-291.268402099609

> <r_mmod_Solvation_Energy-OPLS-2005>
-464.026062011719

> <b_mmod_Minimization_Converged-OPLS-2005>
0

> <r_mmod_RMS_Derivative-OPLS-2005>
4.12605619430542

$$$$
64
                    3D
 Structure written by MMmdl.
150158  0  0  1  0            999 V2000
  -30.6467  -14.6917   20.4870 C   0  0  0  0  0  0
  -30.4252  -12.4317   19.4547 C   0  0  0  0  0  0
  -29.5002  -12.5000   18.2215 C   0  0  0  0  0  0
  -28.0267  -12.3316   18.6403 C   0  0  0  0  0  0
  -27.6404  -13.2282   19.8473 C   0  0  2  0  0  0
  -28.6877  -13.1504   20.9788 C   0  0  0  0  0  0
  -25.2508  -13.8194   20.5696 C   0  0  0  0  0  0
  -24.1798  -13.0439   20.9210 C   0  0  0  0  0  0
  -24.6384  -11.6915   20.8745 C   0  0  0  0  0  0
  -23.9061  -10.4292   21.0404 C   0  0  0  0  0  0
  -24.3611   -9.4209   21.9182 C   0  0  0  0  0  0
  -23.6290   -8.2242   22.0753 C   0  0  0  0  0  0
  -22.4275   -8.0276   21.3540 C   0  0  0  0  0  0
  -21.9908   -9.0250   20.4643 C   0  0  0  0  0  0
  -22.7233  -10.2130   20.3053 C   0  0  0  0  0  0
  -21.6854   -6.0729   22.5275 C   0  0  0  0  0  0
  -21.4014   -6.5635   23.8207 C   0  0  0  0  0  0
  -21.3662   -5.6792   24.9170 C   0  0  0  0  0  0
  -21.6046   -4.3055   24.7224 C   0  0  0  0  0  0
  -21.8820   -3.8143   23.4347 C   0  0  0  0  0  0
  -21.9193   -4.6957   22.3402 C   0  0  0  0  0  0
  -22.7820  -13.5218   21.1873 C   0  0  0  0  0  0
  -22.1660   -4.2139   21.0980 F   0  0  0  0  0  0
  -21.5632   -3.4543   25.7739 F   0  0  0  0  0  0
  -29.9883  -13.4905   20.3901 N   0  0  0  0  0  0
  -26.2926  -12.9392   20.3273 N   0  0  0  0  0  0
  -25.9311  -11.6538   20.5750 N   0  0  0  0  0  0
  -22.0469  -12.8199   22.0424 N   0  0  0  0  0  0
  -25.4211  -15.1921   20.4114 N   0  0  0  0  0  0
  -31.8390  -14.7665   20.1790 O   0  0  0  0  0  0
  -21.6641   -6.8870   21.4237 O   0  0  0  0  0  0
  -22.3503  -14.5525   20.6724 O   0  0  0  0  0  0
  -24.6271  -31.8568   23.1989 C   0  0  0  0  0  0
  -25.9109  -32.4767   23.8333 C   0  0  1  0  0  0
  -27.2238  -27.3014   20.1324 C   0  0  0  0  0  0
  -25.5921  -33.8569   24.2265 N   0  0  0  0  0  0
  -23.4232  -30.4777   21.5407 C   0  0  2  0  0  0
  -24.8715  -28.9245   20.1134 C   0  0  0  0  0  0
  -22.7482  -29.4603   22.4920 C   0  0  0  0  0  0
  -18.0284  -28.1394   22.8474 C   0  0  0  0  0  0
  -24.1485  -36.7283   23.2641 C   0  0  0  0  0  0
  -25.9638  -30.7852   21.3692 C   0  0  0  0  0  0
  -26.0405  -29.4085   20.7159 C   0  0  0  0  0  0
  -27.2239  -28.6098   20.7102 C   0  0  0  0  0  0
  -26.0358  -26.8658   19.5125 C   0  0  0  0  0  0
  -24.8719  -27.6595   19.5016 C   0  0  0  0  0  0
  -23.6404  -29.8076   20.1577 C   0  0  0  0  0  0
  -25.4108  -36.3077   24.0334 C   0  0  1  0  0  0
  -20.5887  -28.3689   23.1285 C   0  0  2  0  0  0
  -20.6774  -26.9412   22.5414 C   0  0  0  0  0  0
  -19.5752  -26.6387   21.5215 C   0  0  0  0  0  0
  -18.1930  -26.7936   22.1621 C   0  0  0  0  0  0
  -19.1542  -28.8855   23.2874 C   0  0  0  0  0  0
  -18.9469  -30.1455   23.8893 C   0  0  0  0  0  0
  -17.6472  -30.6592   24.0561 C   0  0  0  0  0  0
  -25.9048  -34.9449   23.5101 C   0  0  0  0  0  0
  -16.5356  -29.9094   23.6336 C   0  0  0  0  0  0
  -16.7275  -28.6516   23.0346 C   0  0  0  0  0  0
  -26.4490  -31.6581   25.0708 C   0  0  0  0  0  0
  -25.3723  -31.3732   26.1436 C   0  0  0  0  0  0
  -27.0329  -30.3007   24.6157 C   0  0  0  0  0  0
  -27.6049  -32.4312   25.7480 C   0  0  0  0  0  0
  -27.5572  -37.1792   24.8468 C   0  0  0  0  0  0
  -21.4194  -29.3038   22.3671 N   0  0  0  0  0  0
  -26.4281  -37.3774   23.9415 N   0  0  0  0  0  0
  -24.6907  -31.0566   22.0937 N   0  0  0  0  0  0
  -23.4200  -28.8152   23.3012 O   0  0  0  0  0  0
  -28.3299  -26.4393   20.1347 O   0  0  0  0  0  0
  -26.5622  -34.8922   22.4670 O   0  0  0  0  0  0
  -23.5427  -32.1366   23.7306 O   0  0  0  0  0  0
  -31.2054  -19.5821   20.7967 C   0  0  0  0  0  0
  -30.9706  -20.9728   20.6760 C   0  0  0  0  0  0
  -28.8528  -19.2494   20.6556 C   0  0  0  0  0  0
  -30.1404  -18.6470   20.8219 C   0  0  0  0  0  0
  -29.6664  -21.4843   20.5542 C   0  0  0  0  0  0
  -30.5102  -17.1526   21.2528 C   0  0  0  0  0  0
  -28.1863  -25.1261   20.8216 C   0  0  0  0  0  0
  -28.3763  -23.6909   20.1140 C   0  0  0  0  0  0
  -28.6182  -20.6103   20.5175 N   0  0  0  0  0  0
  -29.9260  -15.8372   20.7717 N   0  0  0  0  0  0
  -29.5185  -22.8955   20.5809 O   0  0  0  0  0  0
  -31.4658  -12.5485   19.1476 H   0  0  0  0  0  0
  -30.3623  -11.4530   19.9328 H   0  0  0  0  0  0
  -29.7745  -11.7281   17.5008 H   0  0  0  0  0  0
  -29.6318  -13.4562   17.7119 H   0  0  0  0  0  0
  -27.8776  -11.2822   18.8970 H   0  0  0  0  0  0
  -27.3683  -12.5326   17.7944 H   0  0  0  0  0  0
  -27.6389  -14.2518   19.4718 H   0  0  0  0  0  0
  -28.7179  -12.1507   21.4144 H   0  0  0  0  0  0
  -28.4309  -13.8314   21.7923 H   0  0  0  0  0  0
  -25.2752   -9.5688   22.4761 H   0  0  0  0  0  0
  -23.9997   -7.4635   22.7475 H   0  0  0  0  0  0
  -21.0840   -8.8762   19.8950 H   0  0  0  0  0  0
  -22.3684  -10.9666   19.6163 H   0  0  0  0  0  0
  -21.2004   -7.6143   23.9703 H   0  0  0  0  0  0
  -21.1487   -6.0525   25.9070 H   0  0  0  0  0  0
  -22.0597   -2.7605   23.2851 H   0  0  0  0  0  0
  -22.4088  -11.9849   22.4790 H   0  0  0  0  0  0
  -21.1086  -13.1216   22.2641 H   0  0  0  0  0  0
  -24.6546  -15.8465   20.5230 H   0  0  0  0  0  0
  -26.2645  -15.6291   20.0627 H   0  0  0  0  0  0
  -26.7172  -32.5426   23.1075 H   0  0  0  0  0  0
  -25.0082  -33.9711   25.0420 H   0  0  0  0  0  0
  -22.7181  -31.2982   21.3927 H   0  0  0  0  0  0
  -23.3752  -35.9610   23.3309 H   0  0  0  0  0  0
  -24.3576  -36.8896   22.2054 H   0  0  0  0  0  0
  -23.7238  -37.6488   23.6657 H   0  0  0  0  0  0
  -26.0926  -31.5450   20.5971 H   0  0  0  0  0  0
  -26.8459  -30.8392   21.9959 H   0  0  0  0  0  0
  -28.1251  -28.9771   21.1809 H   0  0  0  0  0  0
  -26.0064  -25.8920   19.0443 H   0  0  0  0  0  0
  -23.9753  -27.2831   19.0285 H   0  0  0  0  0  0
  -23.7623  -30.5818   19.3987 H   0  0  0  0  0  0
  -22.7605  -29.2372   19.8547 H   0  0  0  0  0  0
  -25.1289  -36.1923   25.0826 H   0  0  0  0  0  0
  -20.9973  -28.3259   24.1409 H   0  0  0  0  0  0
  -20.5681  -26.2295   23.3609 H   0  0  0  0  0  0
  -21.6642  -26.7442   22.1206 H   0  0  0  0  0  0
  -19.6923  -25.6303   21.1240 H   0  0  0  0  0  0
  -19.6705  -27.3202   20.6749 H   0  0  0  0  0  0
  -17.4205  -26.6683   21.4018 H   0  0  0  0  0  0
  -18.0317  -26.0085   22.9022 H   0  0  0  0  0  0
  -19.7947  -30.7263   24.2266 H   0  0  0  0  0  0
  -17.5033  -31.6274   24.5160 H   0  0  0  0  0  0
  -15.5362  -30.2997   23.7664 H   0  0  0  0  0  0
  -15.8673  -28.0836   22.7062 H   0  0  0  0  0  0
  -24.5935  -30.7025   25.7792 H   0  0  0  0  0  0
  -24.8864  -32.2895   26.4793 H   0  0  0  0  0  0
  -25.8054  -30.8989   27.0250 H   0  0  0  0  0  0
  -26.2899  -29.6762   24.1184 H   0  0  0  0  0  0
  -27.4047  -29.7257   25.4647 H   0  0  0  0  0  0
  -27.8754  -30.4308   23.9363 H   0  0  0  0  0  0
  -27.2679  -33.3636   26.2017 H   0  0  0  0  0  0
  -28.3884  -32.6824   25.0321 H   0  0  0  0  0  0
  -28.0685  -31.8459   26.5428 H   0  0  0  0  0  0
  -28.2588  -38.0089   24.7510 H   0  0  0  0  0  0
  -28.1071  -36.2620   24.6295 H   0  0  0  0  0  0
  -27.2294  -37.1441   25.8873 H   0  0  0  0  0  0
  -20.9374  -29.8758   21.6880 H   0  0  0  0  0  0
  -26.0162  -38.2846   24.1432 H   0  0  0  0  0  0
  -32.2224  -19.2460   20.9411 H   0  0  0  0  0  0
  -31.8065  -21.6576   20.7183 H   0  0  0  0  0  0
  -27.9682  -18.6309   20.6974 H   0  0  0  0  0  0
  -30.3647  -17.1353   22.3336 H   0  0  0  0  0  0
  -31.5931  -17.0746   21.1413 H   0  0  0  0  0  0
  -28.8946  -25.1627   21.6500 H   0  0  0  0  0  0
  -27.2171  -25.1060   21.3226 H   0  0  0  0  0  0
  -28.4742  -23.8288   19.0372 H   0  0  0  0  0  0
  -27.4665  -23.1077   20.2578 H   0  0  0  0  0  0
  -28.9365  -15.7034   20.9154 H   0  0  0  0  0  0
  1 25  1  0  0  0
  1 30  2  0  0  0
  1 80  1  0  0  0
  2  3  1  0  0  0
  2 25  1  0  0  0
  2 82  1  0  0  0
  2 83  1  0  0  0
  3  4  1  0  0  0
  3 84  1  0  0  0
  3 85  1  0  0  0
  4  5  1  0  0  0
  4 86  1  0  0  0
  4 87  1  0  0  0
  5  6  1  0  0  0
  5 26  1  0  0  0
  5 88  1  0  0  0
  6 25  1  0  0  0
  6 89  1  0  0  0
  6 90  1  0  0  0
  7  8  2  0  0  0
  7 26  1  0  0  0
  7 29  1  0  0  0
  8  9  1  0  0  0
  8 22  1  0  0  0
  9 10  1  0  0  0
  9 27  2  0  0  0
 10 11  2  0  0  0
 10 15  1  0  0  0
 11 12  1  0  0  0
 11 91  1  0  0  0
 12 13  2  0  0  0
 12 92  1  0  0  0
 13 14  1  0  0  0
 13 31  1  0  0  0
 14 15  2  0  0  0
 14 93  1  0  0  0
 15 94  1  0  0  0
 16 17  2  0  0  0
 16 21  1  0  0  0
 16 31  1  0  0  0
 17 18  1  0  0  0
 17 95  1  0  0  0
 18 19  2  0  0  0
 18 96  1  0  0  0
 19 20  1  0  0  0
 19 24  1  0  0  0
 20 21  2  0  0  0
 20 97  1  0  0  0
 21 23  1  0  0  0
 22 28  1  0  0  0
 22 32  2  0  0  0
 26 27  1  0  0  0
 28 98  1  0  0  0
 28 99  1  0  0  0
 29100  1  0  0  0
 29101  1  0  0  0
 33 34  1  0  0  0
 33 66  1  0  0  0
 33 70  2  0  0  0
 34 36  1  0  0  0
 34 59  1  0  0  0
 34102  1  0  0  0
 35 44  2  0  0  0
 35 45  1  0  0  0
 35 68  1  0  0  0
 36 56  1  0  0  0
 36103  1  0  0  0
 37 39  1  0  0  0
 37 47  1  0  0  0
 37 66  1  0  0  0
 37104  1  0  0  0
 38 43  2  0  0  0
 38 46  1  0  0  0
 38 47  1  0  0  0
 39 64  1  0  0  0
 39 67  2  0  0  0
 40 52  1  0  0  0
 40 53  2  0  0  0
 40 58  1  0  0  0
 41105  1  0  0  0
 41106  1  0  0  0
 41107  1  0  0  0
 41 48  1  0  0  0
 42 43  1  0  0  0
 42 66  1  0  0  0
 42108  1  0  0  0
 42109  1  0  0  0
 43 44  1  0  0  0
 44110  1  0  0  0
 45 46  2  0  0  0
 45111  1  0  0  0
 46112  1  0  0  0
 47113  1  0  0  0
 47114  1  0  0  0
 48 56  1  0  0  0
 48 65  1  0  0  0
 48115  1  0  0  0
 49 50  1  0  0  0
 49 53  1  0  0  0
 49 64  1  0  0  0
 49116  1  0  0  0
 50 51  1  0  0  0
 50117  1  0  0  0
 50118  1  0  0  0
 51 52  1  0  0  0
 51119  1  0  0  0
 51120  1  0  0  0
 52121  1  0  0  0
 52122  1  0  0  0
 53 54  1  0  0  0
 54 55  2  0  0  0
 54123  1  0  0  0
 55 57  1  0  0  0
 55124  1  0  0  0
 56 69  2  0  0  0
 57 58  2  0  0  0
 57125  1  0  0  0
 58126  1  0  0  0
 59 60  1  0  0  0
 59 61  1  0  0  0
 59 62  1  0  0  0
 60127  1  0  0  0
 60128  1  0  0  0
 60129  1  0  0  0
 61130  1  0  0  0
 61131  1  0  0  0
 61132  1  0  0  0
 62133  1  0  0  0
 62134  1  0  0  0
 62135  1  0  0  0
 63 65  1  0  0  0
 63136  1  0  0  0
 63137  1  0  0  0
 63138  1  0  0  0
 64139  1  0  0  0
 65140  1  0  0  0
 68 77  1  0  0  0
 71 72  2  0  0  0
 71 74  1  0  0  0
 71141  1  0  0  0
 72 75  1  0  0  0
 72142  1  0  0  0
 73 74  2  0  0  0
 73 79  1  0  0  0
 73143  1  0  0  0
 74 76  1  0  0  0
 75 79  2  0  0  0
 75 81  1  0  0  0
 76 80  1  0  0  0
 76144  1  0  0  0
 76145  1  0  0  0
 77 78  1  0  0  0
 77146  1  0  0  0
 77147  1  0  0  0
 78 81  1  0  0  0
 78148  1  0  0  0
 78149  1  0  0  0
 80150  1  0  0  0
M  ISO  4   1 100  68 101  77 101  80 100
M  END
> <chiral flag>
0

> <version>
0

> <s_m_source_file>
/data/baiqing/PycharmProjects/Reinvent-master-3.2/result/LINK_invent/BTK/process_docking_weight1_custom_sum_contain_oxygen_bond_distance_aromatic_linkinvent_7_9_3/rearranged_h_0126.sdf

> <i_m_source_file_index>
65

> <r_mmod_Potential_Energy-OPLS-2005>
-20.6039600372314

> <r_mmod_Stretch_Energy-OPLS-2005>
95.031623840332

> <r_mmod_Bend_Energy-OPLS-2005>
200.746185302734

> <r_mmod_Torsional_Energy-OPLS-2005>
226.274917602539

> <r_mmod_Improper_Torsional_Energy-OPLS-2005>
5.62097597122192

> <r_mmod_Van_der_Waal_Energy-OPLS-2005>
141.791534423828

> <r_mmod_Electrostatic_Energy-OPLS-2005>
-532.575378417969

> <r_mmod_Solvation_Energy-OPLS-2005>
-221.418914794922

> <b_mmod_Minimization_Converged-OPLS-2005>
0

> <r_mmod_RMS_Derivative-OPLS-2005>
0.873595118522644

$$$$
65
                    3D
 Structure written by MMmdl.
172181  0  0  1  0            999 V2000
  -30.8258  -14.2727   20.7403 C   0  0  0  0  0  0
  -30.3959  -12.2846   19.3518 C   0  0  0  0  0  0
  -29.4554  -12.5493   18.1708 C   0  0  0  0  0  0
  -27.9903  -12.3888   18.6040 C   0  0  0  0  0  0
  -27.6583  -13.1993   19.8798 C   0  0  2  0  0  0
  -28.6997  -12.9408   20.9813 C   0  0  0  0  0  0
  -25.2547  -13.8114   20.5686 C   0  0  0  0  0  0
  -24.1788  -13.0391   20.9255 C   0  0  0  0  0  0
  -24.6391  -11.6896   20.8772 C   0  0  0  0  0  0
  -23.9073  -10.4304   21.0398 C   0  0  0  0  0  0
  -24.3644   -9.4191   21.9130 C   0  0  0  0  0  0
  -23.6310   -8.2247   22.0738 C   0  0  0  0  0  0
  -22.4242   -8.0370   21.3610 C   0  0  0  0  0  0
  -21.9861   -9.0357   20.4753 C   0  0  0  0  0  0
  -22.7198  -10.2216   20.3151 C   0  0  0  0  0  0
  -21.6813   -6.0794   22.5291 C   0  0  0  0  0  0
  -21.3989   -6.5668   23.8229 C   0  0  0  0  0  0
  -21.3680   -5.6851   24.9205 C   0  0  0  0  0  0
  -21.6041   -4.3109   24.7244 C   0  0  0  0  0  0
  -21.8794   -3.8196   23.4353 C   0  0  0  0  0  0
  -21.9197   -4.7024   22.3421 C   0  0  0  0  0  0
  -22.7801  -13.5130   21.1788 C   0  0  0  0  0  0
  -22.1643   -4.2212   21.1000 F   0  0  0  0  0  0
  -21.5669   -3.4587   25.7773 F   0  0  0  0  0  0
  -30.0490  -13.2025   20.4456 N   0  0  0  0  0  0
  -26.2994  -12.9288   20.3460 N   0  0  0  0  0  0
  -25.9311  -11.6455   20.5860 N   0  0  0  0  0  0
  -22.0309  -12.7996   22.0199 N   0  0  0  0  0  0
  -25.4270  -15.1774   20.4122 N   0  0  0  0  0  0
  -31.7881  -14.6345   20.0617 O   0  0  0  0  0  0
  -21.6617   -6.8955   21.4268 O   0  0  0  0  0  0
  -22.3486  -14.5424   20.6597 O   0  0  0  0  0  0
  -24.6104  -31.8717   23.2155 C   0  0  0  0  0  0
  -25.9009  -32.4856   23.8426 C   0  0  1  0  0  0
  -27.2210  -27.4979   20.0497 C   0  0  0  0  0  0
  -25.5892  -33.8648   24.2353 N   0  0  0  0  0  0
  -23.3933  -30.4999   21.5533 C   0  0  2  0  0  0
  -24.8419  -28.9912   20.0921 C   0  0  0  0  0  0
  -22.7386  -29.4682   22.4991 C   0  0  0  0  0  0
  -18.0268  -28.1360   22.8500 C   0  0  0  0  0  0
  -24.1487  -36.7331   23.2625 C   0  0  0  0  0  0
  -25.9185  -30.8572   21.3599 C   0  0  0  0  0  0
  -26.0011  -29.5031   20.6925 C   0  0  0  0  0  0
  -27.1974  -28.7574   20.6820 C   0  0  0  0  0  0
  -26.0672  -27.0171   19.3957 C   0  0  0  0  0  0
  -24.8693  -27.7470   19.4396 C   0  0  0  0  0  0
  -23.5978  -29.8432   20.1637 C   0  0  0  0  0  0
  -25.4109  -36.3125   24.0326 C   0  0  1  0  0  0
  -20.5844  -28.3643   23.1343 C   0  0  2  0  0  0
  -20.6750  -26.9385   22.5430 C   0  0  0  0  0  0
  -19.5742  -26.6381   21.5202 C   0  0  0  0  0  0
  -18.1917  -26.7912   22.1624 C   0  0  0  0  0  0
  -19.1513  -28.8815   23.2919 C   0  0  0  0  0  0
  -18.9448  -30.1409   23.8935 C   0  0  0  0  0  0
  -17.6455  -30.6567   24.0570 C   0  0  0  0  0  0
  -25.9027  -34.9493   23.5140 C   0  0  0  0  0  0
  -16.5343  -29.9073   23.6315 C   0  0  0  0  0  0
  -16.7259  -28.6489   23.0338 C   0  0  0  0  0  0
  -26.4463  -31.6593   25.0703 C   0  0  0  0  0  0
  -25.3750  -31.3689   26.1456 C   0  0  0  0  0  0
  -27.0242  -30.3036   24.5979 C   0  0  0  0  0  0
  -27.6063  -32.4266   25.7452 C   0  0  0  0  0  0
  -27.5589  -37.1828   24.8470 C   0  0  0  0  0  0
  -21.4109  -29.3037   22.3756 N   0  0  0  0  0  0
  -26.4310  -37.3802   23.9399 N   0  0  0  0  0  0
  -24.6585  -31.0840   22.1041 N   0  0  0  0  0  0
  -23.4197  -28.8185   23.2987 O   0  0  0  0  0  0
  -28.2762  -26.6439   20.2313 O   0  0  0  0  0  0
  -26.5564  -34.8936   22.4686 O   0  0  0  0  0  0
  -23.5304  -32.1459   23.7558 O   0  0  0  0  0  0
  -26.2071  -20.3668   24.8765 C   0  0  0  0  0  0
  -28.3772  -20.7343   23.8375 C   0  0  0  0  0  0
  -26.5856  -19.0552   25.2230 C   0  0  0  0  0  0
  -28.7655  -19.4352   24.2048 C   0  0  0  0  0  0
  -27.0992  -21.2197   24.1912 C   0  0  0  0  0  0
  -27.8793  -18.5857   24.9101 C   0  0  0  0  0  0
  -28.0923  -24.1797   20.6649 C   0  0  0  0  0  0
  -28.4498  -25.7614   22.5440 C   0  0  0  0  0  0
  -27.3022  -23.2346   21.5943 C   0  0  0  0  0  0
  -27.6650  -24.8498   23.5022 C   0  0  0  0  0  0
  -27.8588  -25.6097   21.1462 C   0  0  1  0  0  0
  -26.6625  -22.6538   23.9101 C   0  0  0  0  0  0
  -28.3131  -17.2011   25.3881 C   0  0  0  0  0  0
  -29.8394  -15.9393   22.1991 C   0  0  0  0  0  0
  -28.9230  -15.7976   23.4275 C   0  0  0  0  0  0
  -30.6643  -14.7598   21.9740 N   0  0  0  0  0  0
  -27.5961  -23.4266   23.0512 N   0  3  1  0  0  0
  -29.3888  -16.6133   24.5659 N   0  3  0  0  0  0
  -31.4349  -12.3825   19.0359 H   0  0  0  0  0  0
  -30.2923  -11.2540   19.6892 H   0  0  0  0  0  0
  -29.6885  -11.8625   17.3572 H   0  0  0  0  0  0
  -29.6353  -13.5543   17.7888 H   0  0  0  0  0  0
  -27.8168  -11.3290   18.7835 H   0  0  0  0  0  0
  -27.3315  -12.6825   17.7875 H   0  0  0  0  0  0
  -27.7198  -14.2540   19.6117 H   0  0  0  0  0  0
  -28.6540  -11.9085   21.3309 H   0  0  0  0  0  0
  -28.4391  -13.5384   21.8500 H   0  0  0  0  0  0
  -25.2832   -9.5577   22.4611 H   0  0  0  0  0  0
  -24.0053   -7.4598   22.7434 H   0  0  0  0  0  0
  -21.0789   -8.8835   19.9092 H   0  0  0  0  0  0
  -22.3585  -10.9766   19.6320 H   0  0  0  0  0  0
  -21.1931   -7.6162   23.9743 H   0  0  0  0  0  0
  -21.1485   -6.0587   25.9136 H   0  0  0  0  0  0
  -22.0518   -2.7645   23.2846 H   0  0  0  0  0  0
  -22.3827  -11.9641   22.4689 H   0  0  0  0  0  0
  -21.0758  -13.0736   22.1985 H   0  0  0  0  0  0
  -24.6783  -15.8487   20.5294 H   0  0  0  0  0  0
  -26.2915  -15.6121   20.1183 H   0  0  0  0  0  0
  -26.7062  -32.5613   23.1181 H   0  0  0  0  0  0
  -25.0089  -33.9806   25.0529 H   0  0  0  0  0  0
  -22.6797  -31.3140   21.4219 H   0  0  0  0  0  0
  -23.3734  -35.9687   23.3323 H   0  0  0  0  0  0
  -24.3602  -36.8899   22.2042 H   0  0  0  0  0  0
  -23.7235  -37.6551   23.6608 H   0  0  0  0  0  0
  -26.0102  -31.6246   20.5911 H   0  0  0  0  0  0
  -26.8138  -30.9181   21.9644 H   0  0  0  0  0  0
  -28.0757  -29.1187   21.2009 H   0  0  0  0  0  0
  -26.0829  -26.0487   18.9168 H   0  0  0  0  0  0
  -23.9791  -27.3507   18.9691 H   0  0  0  0  0  0
  -23.6937  -30.6209   19.4082 H   0  0  0  0  0  0
  -22.7272  -29.2547   19.8701 H   0  0  0  0  0  0
  -25.1270  -36.2027   25.0816 H   0  0  0  0  0  0
  -20.9950  -28.3195   24.1455 H   0  0  0  0  0  0
  -20.5632  -26.2242   23.3597 H   0  0  0  0  0  0
  -21.6623  -26.7417   22.1226 H   0  0  0  0  0  0
  -19.6904  -25.6297   21.1203 H   0  0  0  0  0  0
  -19.6674  -27.3210   20.6743 H   0  0  0  0  0  0
  -17.4181  -26.6648   21.4025 H   0  0  0  0  0  0
  -18.0333  -26.0028   22.9005 H   0  0  0  0  0  0
  -19.7916  -30.7206   24.2332 H   0  0  0  0  0  0
  -17.5012  -31.6265   24.5147 H   0  0  0  0  0  0
  -15.5350  -30.3005   23.7592 H   0  0  0  0  0  0
  -15.8649  -28.0822   22.7033 H   0  0  0  0  0  0
  -24.5967  -30.6958   25.7840 H   0  0  0  0  0  0
  -24.8886  -32.2842   26.4870 H   0  0  0  0  0  0
  -25.8157  -30.8945   27.0229 H   0  0  0  0  0  0
  -26.2756  -29.6879   24.0984 H   0  0  0  0  0  0
  -27.3980  -29.7194   25.4393 H   0  0  0  0  0  0
  -27.8612  -30.4381   23.9120 H   0  0  0  0  0  0
  -27.2719  -33.3579   26.2054 H   0  0  0  0  0  0
  -28.3886  -32.6797   25.0278 H   0  0  0  0  0  0
  -28.0695  -31.8347   26.5356 H   0  0  0  0  0  0
  -28.2622  -38.0108   24.7486 H   0  0  0  0  0  0
  -28.1054  -36.2634   24.6330 H   0  0  0  0  0  0
  -27.2303  -37.1520   25.8871 H   0  0  0  0  0  0
  -20.9218  -29.8845   21.7069 H   0  0  0  0  0  0
  -26.0207  -38.2888   24.1389 H   0  0  0  0  0  0
  -25.2292  -20.7217   25.1661 H   0  0  0  0  0  0
  -29.0971  -21.3335   23.2985 H   0  0  0  0  0  0
  -25.8898  -18.4235   25.7581 H   0  0  0  0  0  0
  -29.7593  -19.1131   23.9299 H   0  0  0  0  0  0
  -27.7326  -24.0681   19.6426 H   0  0  0  0  0  0
  -29.1572  -23.9403   20.6545 H   0  0  0  0  0  0
  -29.5106  -25.5180   22.5542 H   0  0  0  0  0  0
  -28.3615  -26.7933   22.8795 H   0  0  0  0  0  0
  -27.4818  -22.1977   21.3098 H   0  0  0  0  0  0
  -26.2392  -23.4040   21.4138 H   0  0  0  0  0  0
  -26.6504  -25.2415   23.6148 H   0  0  0  0  0  0
  -28.1110  -24.8963   24.4964 H   0  0  0  0  0  0
  -26.7782  -25.6636   21.3120 H   0  0  0  0  0  0
  -26.5552  -23.1322   24.8856 H   0  0  0  0  0  0
  -25.6565  -22.6561   23.4829 H   0  0  0  0  0  0
  -27.4576  -16.5221   25.4239 H   0  0  0  0  0  0
  -28.6744  -17.3024   26.4099 H   0  0  0  0  0  0
  -30.4821  -16.8178   22.2679 H   0  0  0  0  0  0
  -29.2127  -16.1164   21.3215 H   0  0  0  0  0  0
  -28.8095  -14.7588   23.7465 H   0  0  0  0  0  0
  -27.9317  -16.1438   23.1263 H   0  0  0  0  0  0
  -31.5551  -14.8653   22.4380 H   0  0  0  0  0  0
  -28.5066  -23.0339   23.2324 H   0  0  0  0  0  0
  -29.9496  -16.0425   25.1796 H   0  0  0  0  0  0
  -29.9656  -17.3639   24.2222 H   0  0  0  0  0  0
  1 25  1  0  0  0
  1 30  2  0  0  0
  1 86  1  0  0  0
  2  3  1  0  0  0
  2 25  1  0  0  0
  2 89  1  0  0  0
  2 90  1  0  0  0
  3  4  1  0  0  0
  3 91  1  0  0  0
  3 92  1  0  0  0
  4  5  1  0  0  0
  4 93  1  0  0  0
  4 94  1  0  0  0
  5  6  1  0  0  0
  5 26  1  0  0  0
  5 95  1  0  0  0
  6 25  1  0  0  0
  6 96  1  0  0  0
  6 97  1  0  0  0
  7  8  2  0  0  0
  7 26  1  0  0  0
  7 29  1  0  0  0
  8  9  1  0  0  0
  8 22  1  0  0  0
  9 10  1  0  0  0
  9 27  2  0  0  0
 10 11  2  0  0  0
 10 15  1  0  0  0
 11 12  1  0  0  0
 11 98  1  0  0  0
 12 13  2  0  0  0
 12 99  1  0  0  0
 13 14  1  0  0  0
 13 31  1  0  0  0
 14 15  2  0  0  0
 14100  1  0  0  0
 15101  1  0  0  0
 16 17  2  0  0  0
 16 21  1  0  0  0
 16 31  1  0  0  0
 17 18  1  0  0  0
 17102  1  0  0  0
 18 19  2  0  0  0
 18103  1  0  0  0
 19 20  1  0  0  0
 19 24  1  0  0  0
 20 21  2  0  0  0
 20104  1  0  0  0
 21 23  1  0  0  0
 22 28  1  0  0  0
 22 32  2  0  0  0
 26 27  1  0  0  0
 28105  1  0  0  0
 28106  1  0  0  0
 29107  1  0  0  0
 29108  1  0  0  0
 33 34  1  0  0  0
 33 66  1  0  0  0
 33 70  2  0  0  0
 34 36  1  0  0  0
 34 59  1  0  0  0
 34109  1  0  0  0
 35 44  2  0  0  0
 35 45  1  0  0  0
 35 68  1  0  0  0
 36 56  1  0  0  0
 36110  1  0  0  0
 37 39  1  0  0  0
 37 47  1  0  0  0
 37 66  1  0  0  0
 37111  1  0  0  0
 38 43  2  0  0  0
 38 46  1  0  0  0
 38 47  1  0  0  0
 39 64  1  0  0  0
 39 67  2  0  0  0
 40 52  1  0  0  0
 40 53  2  0  0  0
 40 58  1  0  0  0
 41112  1  0  0  0
 41113  1  0  0  0
 41114  1  0  0  0
 41 48  1  0  0  0
 42 43  1  0  0  0
 42 66  1  0  0  0
 42115  1  0  0  0
 42116  1  0  0  0
 43 44  1  0  0  0
 44117  1  0  0  0
 45 46  2  0  0  0
 45118  1  0  0  0
 46119  1  0  0  0
 47120  1  0  0  0
 47121  1  0  0  0
 48 56  1  0  0  0
 48 65  1  0  0  0
 48122  1  0  0  0
 49 50  1  0  0  0
 49 53  1  0  0  0
 49 64  1  0  0  0
 49123  1  0  0  0
 50 51  1  0  0  0
 50124  1  0  0  0
 50125  1  0  0  0
 51 52  1  0  0  0
 51126  1  0  0  0
 51127  1  0  0  0
 52128  1  0  0  0
 52129  1  0  0  0
 53 54  1  0  0  0
 54 55  2  0  0  0
 54130  1  0  0  0
 55 57  1  0  0  0
 55131  1  0  0  0
 56 69  2  0  0  0
 57 58  2  0  0  0
 57132  1  0  0  0
 58133  1  0  0  0
 59 60  1  0  0  0
 59 61  1  0  0  0
 59 62  1  0  0  0
 60134  1  0  0  0
 60135  1  0  0  0
 60136  1  0  0  0
 61137  1  0  0  0
 61138  1  0  0  0
 61139  1  0  0  0
 62140  1  0  0  0
 62141  1  0  0  0
 62142  1  0  0  0
 63 65  1  0  0  0
 63143  1  0  0  0
 63144  1  0  0  0
 63145  1  0  0  0
 64146  1  0  0  0
 65147  1  0  0  0
 68 81  1  0  0  0
 71 73  2  0  0  0
 71 75  1  0  0  0
 71148  1  0  0  0
 72 74  1  0  0  0
 72 75  2  0  0  0
 72149  1  0  0  0
 73 76  1  0  0  0
 73150  1  0  0  0
 74 76  2  0  0  0
 74151  1  0  0  0
 75 82  1  0  0  0
 76 83  1  0  0  0
 77 79  1  0  0  0
 77 81  1  0  0  0
 77152  1  0  0  0
 77153  1  0  0  0
 78 80  1  0  0  0
 78 81  1  0  0  0
 78154  1  0  0  0
 78155  1  0  0  0
 79 87  1  0  0  0
 79156  1  0  0  0
 79157  1  0  0  0
 80 87  1  0  0  0
 80158  1  0  0  0
 80159  1  0  0  0
 81160  1  0  0  0
 82161  1  0  0  0
 82162  1  0  0  0
 82 87  1  0  0  0
 83 88  1  0  0  0
 83163  1  0  0  0
 83164  1  0  0  0
 84 85  1  0  0  0
 84 86  1  0  0  0
 84165  1  0  0  0
 84166  1  0  0  0
 85 88  1  0  0  0
 85167  1  0  0  0
 85168  1  0  0  0
 86169  1  0  0  0
 87170  1  0  0  0
 88171  1  0  0  0
 88172  1  0  0  0
M  CHG  2  87   1  88   1
M  ISO  4   1 100  68 101  81 101  86 100
M  END
> <chiral flag>
0

> <version>
0

> <s_m_source_file>
/data/baiqing/PycharmProjects/Reinvent-master-3.2/result/LINK_invent/BTK/process_docking_weight1_custom_sum_contain_oxygen_bond_distance_aromatic_linkinvent_7_9_3/rearranged_h_0126.sdf

> <i_m_source_file_index>
66

> <r_mmod_Potential_Energy-OPLS-2005>
-265.78076171875

> <r_mmod_Stretch_Energy-OPLS-2005>
32.6389236450195

> <r_mmod_Bend_Energy-OPLS-2005>
109.664184570312

> <r_mmod_Torsional_Energy-OPLS-2005>
373.697937011719

> <r_mmod_Improper_Torsional_Energy-OPLS-2005>
12.0158929824829

> <r_mmod_Van_der_Waal_Energy-OPLS-2005>
170.345458984375

> <r_mmod_Electrostatic_Energy-OPLS-2005>
-67.6105728149414

> <r_mmod_Solvation_Energy-OPLS-2005>
-914.996826171875

> <b_mmod_Minimization_Converged-OPLS-2005>
0

> <r_mmod_RMS_Derivative-OPLS-2005>
6.97942209243774

$$$$
66
                    3D
 Structure written by MMmdl.
172181  0  0  1  0            999 V2000
  -30.6993  -14.5240   20.5634 C   0  0  0  0  0  0
  -30.4137  -12.3404   19.4357 C   0  0  0  0  0  0
  -29.4930  -12.5078   18.2108 C   0  0  0  0  0  0
  -28.0146  -12.3626   18.6211 C   0  0  0  0  0  0
  -27.6520  -13.2167   19.8663 C   0  0  2  0  0  0
  -28.6930  -13.0415   20.9931 C   0  0  0  0  0  0
  -25.2548  -13.8181   20.5687 C   0  0  0  0  0  0
  -24.1820  -13.0443   20.9201 C   0  0  0  0  0  0
  -24.6387  -11.6917   20.8752 C   0  0  0  0  0  0
  -23.9064  -10.4295   21.0408 C   0  0  0  0  0  0
  -24.3624   -9.4209   21.9178 C   0  0  0  0  0  0
  -23.6300   -8.2245   22.0749 C   0  0  0  0  0  0
  -22.4277   -8.0286   21.3543 C   0  0  0  0  0  0
  -21.9915   -9.0260   20.4643 C   0  0  0  0  0  0
  -22.7243  -10.2139   20.3054 C   0  0  0  0  0  0
  -21.6855   -6.0743   22.5282 C   0  0  0  0  0  0
  -21.4012   -6.5643   23.8217 C   0  0  0  0  0  0
  -21.3659   -5.6794   24.9178 C   0  0  0  0  0  0
  -21.6047   -4.3056   24.7226 C   0  0  0  0  0  0
  -21.8817   -3.8152   23.4344 C   0  0  0  0  0  0
  -21.9191   -4.6971   22.3404 C   0  0  0  0  0  0
  -22.7844  -13.5236   21.1859 C   0  0  0  0  0  0
  -22.1660   -4.2158   21.0982 F   0  0  0  0  0  0
  -21.5630   -3.4540   25.7737 F   0  0  0  0  0  0
  -30.0132  -13.3535   20.4286 N   0  0  0  0  0  0
  -26.2971  -12.9366   20.3326 N   0  0  0  0  0  0
  -25.9310  -11.6516   20.5755 N   0  0  0  0  0  0
  -22.0489  -12.8222   22.0408 N   0  0  0  0  0  0
  -25.4261  -15.1906   20.4073 N   0  0  0  0  0  0
  -31.8358  -14.6618   20.1047 O   0  0  0  0  0  0
  -21.6638   -6.8887   21.4242 O   0  0  0  0  0  0
  -22.3533  -14.5542   20.6704 O   0  0  0  0  0  0
  -24.6183  -31.8643   23.2061 C   0  0  0  0  0  0
  -25.9061  -32.4797   23.8377 C   0  0  1  0  0  0
  -27.2291  -27.3836   20.1122 C   0  0  0  0  0  0
  -25.5897  -33.8595   24.2315 N   0  0  0  0  0  0
  -23.4090  -30.4854   21.5474 C   0  0  2  0  0  0
  -24.8553  -28.9421   20.1158 C   0  0  0  0  0  0
  -22.7431  -29.4645   22.4980 C   0  0  0  0  0  0
  -18.0264  -28.1394   22.8498 C   0  0  0  0  0  0
  -24.1473  -36.7288   23.2639 C   0  0  0  0  0  0
  -25.9405  -30.8145   21.3662 C   0  0  0  0  0  0
  -26.0159  -29.4418   20.7206 C   0  0  0  0  0  0
  -27.2038  -28.6690   20.7154 C   0  0  0  0  0  0
  -26.0528  -26.9122   19.4913 C   0  0  0  0  0  0
  -24.8711  -27.6794   19.4973 C   0  0  0  0  0  0
  -23.6190  -29.8138   20.1638 C   0  0  0  0  0  0
  -25.4092  -36.3088   24.0341 C   0  0  1  0  0  0
  -20.5857  -28.3679   23.1318 C   0  0  2  0  0  0
  -20.6747  -26.9406   22.5429 C   0  0  0  0  0  0
  -19.5720  -26.6394   21.5226 C   0  0  0  0  0  0
  -18.1901  -26.7936   22.1633 C   0  0  0  0  0  0
  -19.1512  -28.8845   23.2905 C   0  0  0  0  0  0
  -18.9445  -30.1446   23.8929 C   0  0  0  0  0  0
  -17.6447  -30.6599   24.0563 C   0  0  0  0  0  0
  -25.9027  -34.9462   23.5124 C   0  0  0  0  0  0
  -16.5336  -29.9111   23.6327 C   0  0  0  0  0  0
  -16.7251  -28.6520   23.0364 C   0  0  0  0  0  0
  -26.4482  -31.6586   25.0720 C   0  0  0  0  0  0
  -25.3757  -31.3723   26.1483 C   0  0  0  0  0  0
  -27.0313  -30.3020   24.6115 C   0  0  0  0  0  0
  -27.6052  -32.4310   25.7501 C   0  0  0  0  0  0
  -27.5568  -37.1802   24.8470 C   0  0  0  0  0  0
  -21.4142  -29.3044   22.3720 N   0  0  0  0  0  0
  -26.4271  -37.3779   23.9425 N   0  0  0  0  0  0
  -24.6741  -31.0704   22.0987 N   0  0  0  0  0  0
  -23.4185  -28.8199   23.3041 O   0  0  0  0  0  0
  -28.3971  -26.6385   20.0908 O   0  0  0  0  0  0
  -26.5592  -34.8921   22.4690 O   0  0  0  0  0  0
  -23.5364  -32.1422   23.7429 O   0  0  0  0  0  0
  -27.8615  -23.0614   21.1680 C   0  0  0  0  0  0
  -29.3632  -23.1291   19.2780 C   0  0  0  0  0  0
  -27.7257  -24.4764   21.1067 C   0  0  0  0  0  0
  -29.2190  -24.5376   19.2129 C   0  0  0  0  0  0
  -28.7012  -22.3577   20.2630 C   0  0  0  0  0  0
  -28.4088  -25.2425   20.1292 C   0  0  0  0  0  0
  -30.8044  -18.8235   24.0551 C   0  0  0  0  0  0
  -29.2765  -18.7990   24.2885 C   0  0  0  0  0  0
  -31.1993  -19.1119   22.5833 C   0  0  2  0  0  0
  -28.4720  -18.1020   23.1556 C   0  0  1  0  0  0
  -30.3528  -18.2418   21.5965 C   0  0  1  0  0  0
  -32.7206  -19.0063   22.3782 C   0  0  0  0  0  0
  -26.9520  -18.1922   23.3951 C   0  0  0  0  0  0
  -28.9504  -20.8188   20.3082 C   0  0  0  0  0  0
  -30.7917  -16.7144   21.7586 C   0  0  0  0  0  0
  -28.5079  -20.0581   21.6016 C   0  0  0  0  0  0
  -30.0595  -15.5695   21.1511 N   0  0  0  0  0  0
  -28.8989  -18.5929   21.8031 N   0  3  2  0  0  0
  -31.4596  -12.4322   19.1373 H   0  0  0  0  0  0
  -30.3145  -11.3390   19.8584 H   0  0  0  0  0  0
  -29.7445  -11.7729   17.4448 H   0  0  0  0  0  0
  -29.6548  -13.4888   17.7603 H   0  0  0  0  0  0
  -27.8312  -11.3075   18.8281 H   0  0  0  0  0  0
  -27.3658  -12.6245   17.7845 H   0  0  0  0  0  0
  -27.6830  -14.2593   19.5491 H   0  0  0  0  0  0
  -28.6821  -12.0152   21.3643 H   0  0  0  0  0  0
  -28.4492  -13.6682   21.8517 H   0  0  0  0  0  0
  -25.2775   -9.5681   22.4743 H   0  0  0  0  0  0
  -24.0016   -7.4630   22.7460 H   0  0  0  0  0  0
  -21.0854   -8.8781   19.8942 H   0  0  0  0  0  0
  -22.3711  -10.9679   19.6163 H   0  0  0  0  0  0
  -21.2001   -7.6150   23.9726 H   0  0  0  0  0  0
  -21.1484   -6.0522   25.9083 H   0  0  0  0  0  0
  -22.0595   -2.7614   23.2842 H   0  0  0  0  0  0
  -22.4119  -11.9890   22.4797 H   0  0  0  0  0  0
  -21.1095  -13.1224   22.2596 H   0  0  0  0  0  0
  -24.6465  -15.8346   20.4849 H   0  0  0  0  0  0
  -26.2501  -15.6123   19.9996 H   0  0  0  0  0  0
  -26.7135  -32.5494   23.1144 H   0  0  0  0  0  0
  -25.0038  -33.9740   25.0451 H   0  0  0  0  0  0
  -22.6996  -31.3030   21.4049 H   0  0  0  0  0  0
  -23.3724  -35.9631   23.3321 H   0  0  0  0  0  0
  -24.3555  -36.8870   22.2045 H   0  0  0  0  0  0
  -23.7232  -37.6499   23.6645 H   0  0  0  0  0  0
  -26.0528  -31.5725   20.5890 H   0  0  0  0  0  0
  -26.8295  -30.8736   21.9827 H   0  0  0  0  0  0
  -28.1036  -29.0497   21.1779 H   0  0  0  0  0  0
  -26.0503  -25.9495   19.0013 H   0  0  0  0  0  0
  -23.9812  -27.2935   19.0186 H   0  0  0  0  0  0
  -23.7256  -30.5869   19.4019 H   0  0  0  0  0  0
  -22.7426  -29.2324   19.8723 H   0  0  0  0  0  0
  -25.1262  -36.1951   25.0829 H   0  0  0  0  0  0
  -20.9931  -28.3262   24.1448 H   0  0  0  0  0  0
  -20.5635  -26.2290   23.3623 H   0  0  0  0  0  0
  -21.6615  -26.7433   22.1224 H   0  0  0  0  0  0
  -19.6867  -25.6316   21.1234 H   0  0  0  0  0  0
  -19.6658  -27.3223   20.6774 H   0  0  0  0  0  0
  -17.4160  -26.6686   21.4049 H   0  0  0  0  0  0
  -18.0296  -26.0085   22.9035 H   0  0  0  0  0  0
  -19.7919  -30.7239   24.2340 H   0  0  0  0  0  0
  -17.5012  -31.6290   24.5151 H   0  0  0  0  0  0
  -15.5340  -30.3030   23.7637 H   0  0  0  0  0  0
  -15.8648  -28.0842   22.7097 H   0  0  0  0  0  0
  -24.5927  -30.7052   25.7866 H   0  0  0  0  0  0
  -24.8955  -32.2892   26.4915 H   0  0  0  0  0  0
  -25.8113  -30.8931   27.0262 H   0  0  0  0  0  0
  -26.2875  -29.6794   24.1124 H   0  0  0  0  0  0
  -27.4015  -29.7245   25.4595 H   0  0  0  0  0  0
  -27.8746  -30.4297   23.9317 H   0  0  0  0  0  0
  -27.2644  -33.3593   26.2101 H   0  0  0  0  0  0
  -28.3868  -32.6893   25.0347 H   0  0  0  0  0  0
  -28.0729  -31.8419   26.5396 H   0  0  0  0  0  0
  -28.2606  -38.0085   24.7489 H   0  0  0  0  0  0
  -28.1040  -36.2612   24.6320 H   0  0  0  0  0  0
  -27.2286  -37.1476   25.8875 H   0  0  0  0  0  0
  -20.9308  -29.8755   21.6927 H   0  0  0  0  0  0
  -26.0154  -38.2849   24.1448 H   0  0  0  0  0  0
  -27.3276  -22.5323   21.9440 H   0  0  0  0  0  0
  -30.0131  -22.6411   18.5639 H   0  0  0  0  0  0
  -27.1064  -24.9794   21.8363 H   0  0  0  0  0  0
  -29.7620  -25.0907   18.4589 H   0  0  0  0  0  0
  -31.2341  -17.8786   24.3876 H   0  0  0  0  0  0
  -31.2514  -19.5756   24.7077 H   0  0  0  0  0  0
  -28.9216  -19.8176   24.4401 H   0  0  0  0  0  0
  -29.0726  -18.2963   25.2346 H   0  0  0  0  0  0
  -30.9864  -20.1614   22.3887 H   0  0  0  0  0  0
  -28.6881  -17.0358   23.2077 H   0  0  0  0  0  0
  -30.5998  -18.5224   20.5721 H   0  0  0  0  0  0
  -33.1143  -18.0330   22.6697 H   0  0  0  0  0  0
  -33.2415  -19.7513   22.9801 H   0  0  0  0  0  0
  -32.9954  -19.1830   21.3376 H   0  0  0  0  0  0
  -26.6139  -19.2171   23.5463 H   0  0  0  0  0  0
  -26.6771  -17.6352   24.2914 H   0  0  0  0  0  0
  -26.3866  -17.7638   22.5664 H   0  0  0  0  0  0
  -30.0183  -20.6760   20.1453 H   0  0  0  0  0  0
  -28.4532  -20.3717   19.4463 H   0  0  0  0  0  0
  -30.8533  -16.4502   22.8120 H   0  0  0  0  0  0
  -31.8291  -16.6717   21.4283 H   0  0  0  0  0  0
  -27.4211  -20.1238   21.6380 H   0  0  0  0  0  0
  -28.8554  -20.6529   22.4432 H   0  0  0  0  0  0
  -29.1111  -15.3947   21.4476 H   0  0  0  0  0  0
  -28.3852  -18.0635   21.1130 H   0  0  0  0  0  0
  1 25  1  0  0  0
  1 30  2  0  0  0
  1 87  1  0  0  0
  2  3  1  0  0  0
  2 25  1  0  0  0
  2 89  1  0  0  0
  2 90  1  0  0  0
  3  4  1  0  0  0
  3 91  1  0  0  0
  3 92  1  0  0  0
  4  5  1  0  0  0
  4 93  1  0  0  0
  4 94  1  0  0  0
  5  6  1  0  0  0
  5 26  1  0  0  0
  5 95  1  0  0  0
  6 25  1  0  0  0
  6 96  1  0  0  0
  6 97  1  0  0  0
  7  8  2  0  0  0
  7 26  1  0  0  0
  7 29  1  0  0  0
  8  9  1  0  0  0
  8 22  1  0  0  0
  9 10  1  0  0  0
  9 27  2  0  0  0
 10 11  2  0  0  0
 10 15  1  0  0  0
 11 12  1  0  0  0
 11 98  1  0  0  0
 12 13  2  0  0  0
 12 99  1  0  0  0
 13 14  1  0  0  0
 13 31  1  0  0  0
 14 15  2  0  0  0
 14100  1  0  0  0
 15101  1  0  0  0
 16 17  2  0  0  0
 16 21  1  0  0  0
 16 31  1  0  0  0
 17 18  1  0  0  0
 17102  1  0  0  0
 18 19  2  0  0  0
 18103  1  0  0  0
 19 20  1  0  0  0
 19 24  1  0  0  0
 20 21  2  0  0  0
 20104  1  0  0  0
 21 23  1  0  0  0
 22 28  1  0  0  0
 22 32  2  0  0  0
 26 27  1  0  0  0
 28105  1  0  0  0
 28106  1  0  0  0
 29107  1  0  0  0
 29108  1  0  0  0
 33 34  1  0  0  0
 33 66  1  0  0  0
 33 70  2  0  0  0
 34 36  1  0  0  0
 34 59  1  0  0  0
 34109  1  0  0  0
 35 44  2  0  0  0
 35 45  1  0  0  0
 35 68  1  0  0  0
 36 56  1  0  0  0
 36110  1  0  0  0
 37 39  1  0  0  0
 37 47  1  0  0  0
 37 66  1  0  0  0
 37111  1  0  0  0
 38 43  2  0  0  0
 38 46  1  0  0  0
 38 47  1  0  0  0
 39 64  1  0  0  0
 39 67  2  0  0  0
 40 52  1  0  0  0
 40 53  2  0  0  0
 40 58  1  0  0  0
 41112  1  0  0  0
 41113  1  0  0  0
 41114  1  0  0  0
 41 48  1  0  0  0
 42 43  1  0  0  0
 42 66  1  0  0  0
 42115  1  0  0  0
 42116  1  0  0  0
 43 44  1  0  0  0
 44117  1  0  0  0
 45 46  2  0  0  0
 45118  1  0  0  0
 46119  1  0  0  0
 47120  1  0  0  0
 47121  1  0  0  0
 48 56  1  0  0  0
 48 65  1  0  0  0
 48122  1  0  0  0
 49 50  1  0  0  0
 49 53  1  0  0  0
 49 64  1  0  0  0
 49123  1  0  0  0
 50 51  1  0  0  0
 50124  1  0  0  0
 50125  1  0  0  0
 51 52  1  0  0  0
 51126  1  0  0  0
 51127  1  0  0  0
 52128  1  0  0  0
 52129  1  0  0  0
 53 54  1  0  0  0
 54 55  2  0  0  0
 54130  1  0  0  0
 55 57  1  0  0  0
 55131  1  0  0  0
 56 69  2  0  0  0
 57 58  2  0  0  0
 57132  1  0  0  0
 58133  1  0  0  0
 59 60  1  0  0  0
 59 61  1  0  0  0
 59 62  1  0  0  0
 60134  1  0  0  0
 60135  1  0  0  0
 60136  1  0  0  0
 61137  1  0  0  0
 61138  1  0  0  0
 61139  1  0  0  0
 62140  1  0  0  0
 62141  1  0  0  0
 62142  1  0  0  0
 63 65  1  0  0  0
 63143  1  0  0  0
 63144  1  0  0  0
 63145  1  0  0  0
 64146  1  0  0  0
 65147  1  0  0  0
 68 76  1  0  0  0
 71 73  2  0  0  0
 71 75  1  0  0  0
 71148  1  0  0  0
 72 74  1  0  0  0
 72 75  2  0  0  0
 72149  1  0  0  0
 73 76  1  0  0  0
 73150  1  0  0  0
 74 76  2  0  0  0
 74151  1  0  0  0
 75 84  1  0  0  0
 77 78  1  0  0  0
 77 79  1  0  0  0
 77152  1  0  0  0
 77153  1  0  0  0
 78 80  1  0  0  0
 78154  1  0  0  0
 78155  1  0  0  0
 79 81  1  0  0  0
 79 82  1  0  0  0
 79156  1  0  0  0
 80 83  1  0  0  0
 80 88  1  0  0  0
 80157  1  0  0  0
 81 85  1  0  0  0
 81 88  1  0  0  0
 81158  1  0  0  0
 82159  1  0  0  0
 82160  1  0  0  0
 82161  1  0  0  0
 83162  1  0  0  0
 83163  1  0  0  0
 83164  1  0  0  0
 84 86  1  0  0  0
 84165  1  0  0  0
 84166  1  0  0  0
 85 87  1  0  0  0
 85167  1  0  0  0
 85168  1  0  0  0
 86169  1  0  0  0
 86170  1  0  0  0
 86 88  1  0  0  0
 87171  1  0  0  0
 88172  1  0  0  0
M  CHG  1  88   1
M  ISO  4   1 100  68 101  76 101  87 100
M  END
> <chiral flag>
0

> <version>
0

> <s_m_source_file>
/data/baiqing/PycharmProjects/Reinvent-master-3.2/result/LINK_invent/BTK/process_docking_weight1_custom_sum_contain_oxygen_bond_distance_aromatic_linkinvent_7_9_3/rearranged_h_0126.sdf

> <i_m_source_file_index>
67

> <r_mmod_Potential_Energy-OPLS-2005>
-6.27243709564209

> <r_mmod_Stretch_Energy-OPLS-2005>
62.6569061279297

> <r_mmod_Bend_Energy-OPLS-2005>
149.58415222168

> <r_mmod_Torsional_Energy-OPLS-2005>
291.892150878906

> <r_mmod_Improper_Torsional_Energy-OPLS-2005>
3.8767147064209

> <r_mmod_Van_der_Waal_Energy-OPLS-2005>
163.850845336914

> <r_mmod_Electrostatic_Energy-OPLS-2005>
-258.192962646484

> <r_mmod_Solvation_Energy-OPLS-2005>
-440.217315673828

> <b_mmod_Minimization_Converged-OPLS-2005>
0

> <r_mmod_RMS_Derivative-OPLS-2005>
2.01454997062683

$$$$
67
                    3D
 Structure written by MMmdl.
155163  0  0  1  0            999 V2000
  -30.6713  -14.5364   20.5182 C   0  0  0  0  0  0
  -30.4247  -12.3301   19.4407 C   0  0  0  0  0  0
  -29.4999  -12.4919   18.2159 C   0  0  0  0  0  0
  -28.0215  -12.3484   18.6275 C   0  0  0  0  0  0
  -27.6564  -13.2113   19.8660 C   0  0  2  0  0  0
  -28.6985  -13.0377   20.9950 C   0  0  0  0  0  0
  -25.2573  -13.8176   20.5688 C   0  0  0  0  0  0
  -24.1839  -13.0445   20.9208 C   0  0  0  0  0  0
  -24.6401  -11.6912   20.8752 C   0  0  0  0  0  0
  -23.9070  -10.4298   21.0409 C   0  0  0  0  0  0
  -24.3622   -9.4210   21.9180 C   0  0  0  0  0  0
  -23.6297   -8.2250   22.0746 C   0  0  0  0  0  0
  -22.4278   -8.0287   21.3540 C   0  0  0  0  0  0
  -21.9914   -9.0261   20.4645 C   0  0  0  0  0  0
  -22.7245  -10.2139   20.3053 C   0  0  0  0  0  0
  -21.6862   -6.0746   22.5279 C   0  0  0  0  0  0
  -21.4022   -6.5646   23.8214 C   0  0  0  0  0  0
  -21.3658   -5.6795   24.9173 C   0  0  0  0  0  0
  -21.6047   -4.3059   24.7218 C   0  0  0  0  0  0
  -21.8818   -3.8154   23.4340 C   0  0  0  0  0  0
  -21.9193   -4.6973   22.3401 C   0  0  0  0  0  0
  -22.7860  -13.5249   21.1854 C   0  0  0  0  0  0
  -22.1663   -4.2158   21.0978 F   0  0  0  0  0  0
  -21.5616   -3.4535   25.7725 F   0  0  0  0  0  0
  -30.0237  -13.3410   20.4340 N   0  0  0  0  0  0
  -26.2999  -12.9349   20.3328 N   0  0  0  0  0  0
  -25.9322  -11.6507   20.5756 N   0  0  0  0  0  0
  -22.0490  -12.8243   22.0402 N   0  0  0  0  0  0
  -25.4290  -15.1899   20.4102 N   0  0  0  0  0  0
  -31.8258  -14.6939   20.1115 O   0  0  0  0  0  0
  -21.6640   -6.8888   21.4242 O   0  0  0  0  0  0
  -22.3550  -14.5549   20.6685 O   0  0  0  0  0  0
  -24.6167  -31.8659   23.2079 C   0  0  0  0  0  0
  -25.9053  -32.4812   23.8383 C   0  0  1  0  0  0
  -27.2287  -27.3978   20.0970 C   0  0  0  0  0  0
  -25.5908  -33.8614   24.2317 N   0  0  0  0  0  0
  -23.4054  -30.4899   21.5493 C   0  0  2  0  0  0
  -24.8497  -28.9511   20.1120 C   0  0  0  0  0  0
  -22.7424  -29.4650   22.4977 C   0  0  0  0  0  0
  -18.0280  -28.1370   22.8495 C   0  0  0  0  0  0
  -24.1496  -36.7306   23.2640 C   0  0  0  0  0  0
  -25.9380  -30.8192   21.3676 C   0  0  0  0  0  0
  -26.0111  -29.4520   20.7112 C   0  0  0  0  0  0
  -27.2001  -28.6819   20.7005 C   0  0  0  0  0  0
  -26.0455  -26.9202   19.4904 C   0  0  0  0  0  0
  -24.8634  -27.6871   19.4986 C   0  0  0  0  0  0
  -23.6146  -29.8231   20.1626 C   0  0  0  0  0  0
  -25.4117  -36.3109   24.0338 C   0  0  1  0  0  0
  -20.5873  -28.3661   23.1317 C   0  0  2  0  0  0
  -20.6774  -26.9395   22.5421 C   0  0  0  0  0  0
  -19.5754  -26.6380   21.5217 C   0  0  0  0  0  0
  -18.1929  -26.7922   22.1619 C   0  0  0  0  0  0
  -19.1529  -28.8833   23.2906 C   0  0  0  0  0  0
  -18.9452  -30.1438   23.8917 C   0  0  0  0  0  0
  -17.6453  -30.6580   24.0563 C   0  0  0  0  0  0
  -25.9042  -34.9471   23.5125 C   0  0  0  0  0  0
  -16.5344  -29.9078   23.6325 C   0  0  0  0  0  0
  -16.7268  -28.6491   23.0353 C   0  0  0  0  0  0
  -26.4470  -31.6596   25.0719 C   0  0  0  0  0  0
  -25.3733  -31.3708   26.1465 C   0  0  0  0  0  0
  -27.0303  -30.3036   24.6112 C   0  0  0  0  0  0
  -27.6052  -32.4315   25.7473 C   0  0  0  0  0  0
  -27.5586  -37.1814   24.8468 C   0  0  0  0  0  0
  -21.4149  -29.3029   22.3722 N   0  0  0  0  0  0
  -26.4307  -37.3786   23.9401 N   0  0  0  0  0  0
  -24.6714  -31.0737   22.0996 N   0  0  0  0  0  0
  -23.4186  -28.8202   23.3036 O   0  0  0  0  0  0
  -28.4035  -26.6614   20.1380 O   0  0  0  0  0  0
  -26.5598  -34.8925   22.4685 O   0  0  0  0  0  0
  -23.5351  -32.1434   23.7454 O   0  0  0  0  0  0
  -30.2970  -22.0826   22.3885 C   0  0  0  0  0  0
  -29.5553  -23.1688   21.8869 C   0  0  0  0  0  0
  -30.1433  -20.7931   21.8409 C   0  0  0  0  0  0
  -28.5118  -21.6796   20.2647 C   0  0  0  0  0  0
  -28.6465  -22.9853   20.8254 C   0  0  0  0  0  0
  -29.2510  -20.5674   20.7705 C   0  0  0  0  0  0
  -27.7753  -24.1825   20.3839 C   0  0  0  0  0  0
  -29.1622  -18.0465   21.0137 C   0  0  0  0  0  0
  -30.2525  -17.0166   20.5753 C   0  0  0  0  0  0
  -28.4837  -25.3236   19.5852 C   0  0  0  0  0  0
  -29.1166  -19.2788   20.1981 N   0  0  0  0  0  0
  -29.9088  -15.6024   20.8559 N   0  0  0  0  0  0
  -31.4692  -12.4302   19.1416 H   0  0  0  0  0  0
  -30.3302  -11.3293   19.8639 H   0  0  0  0  0  0
  -29.7503  -11.7500   17.4562 H   0  0  0  0  0  0
  -29.6613  -13.4679   17.7553 H   0  0  0  0  0  0
  -27.8432  -11.2948   18.8474 H   0  0  0  0  0  0
  -27.3710  -12.5943   17.7877 H   0  0  0  0  0  0
  -27.6871  -14.2517   19.5400 H   0  0  0  0  0  0
  -28.6841  -12.0164   21.3776 H   0  0  0  0  0  0
  -28.4608  -13.6773   21.8458 H   0  0  0  0  0  0
  -25.2760   -9.5702   22.4757 H   0  0  0  0  0  0
  -24.0012   -7.4650   22.7467 H   0  0  0  0  0  0
  -21.0842   -8.8784   19.8960 H   0  0  0  0  0  0
  -22.3696  -10.9679   19.6165 H   0  0  0  0  0  0
  -21.2022   -7.6154   23.9728 H   0  0  0  0  0  0
  -21.1480   -6.0519   25.9082 H   0  0  0  0  0  0
  -22.0598   -2.7618   23.2832 H   0  0  0  0  0  0
  -22.4103  -11.9910   22.4807 H   0  0  0  0  0  0
  -21.1111  -13.1278   22.2597 H   0  0  0  0  0  0
  -24.6601  -15.8422   20.5166 H   0  0  0  0  0  0
  -26.2714  -15.6274   20.0584 H   0  0  0  0  0  0
  -26.7116  -32.5507   23.1135 H   0  0  0  0  0  0
  -25.0084  -33.9776   25.0478 H   0  0  0  0  0  0
  -22.6955  -31.3076   21.4105 H   0  0  0  0  0  0
  -23.3752  -35.9646   23.3325 H   0  0  0  0  0  0
  -24.3585  -36.8895   22.2049 H   0  0  0  0  0  0
  -23.7257  -37.6523   23.6635 H   0  0  0  0  0  0
  -26.0603  -31.5870   20.6022 H   0  0  0  0  0  0
  -26.8225  -30.8667   21.9914 H   0  0  0  0  0  0
  -28.0957  -29.0661   21.1686 H   0  0  0  0  0  0
  -26.0089  -25.9526   19.0131 H   0  0  0  0  0  0
  -23.9689  -27.2959   19.0330 H   0  0  0  0  0  0
  -23.7267  -30.5999   19.4057 H   0  0  0  0  0  0
  -22.7368  -29.2467   19.8646 H   0  0  0  0  0  0
  -25.1298  -36.1978   25.0832 H   0  0  0  0  0  0
  -20.9969  -28.3231   24.1437 H   0  0  0  0  0  0
  -20.5693  -26.2266   23.3607 H   0  0  0  0  0  0
  -21.6644  -26.7455   22.1205 H   0  0  0  0  0  0
  -19.6920  -25.6295   21.1237 H   0  0  0  0  0  0
  -19.6699  -27.3199   20.6756 H   0  0  0  0  0  0
  -17.4212  -26.6691   21.4006 H   0  0  0  0  0  0
  -18.0314  -26.0050   22.9000 H   0  0  0  0  0  0
  -19.7926  -30.7248   24.2300 H   0  0  0  0  0  0
  -17.5005  -31.6263   24.5157 H   0  0  0  0  0  0
  -15.5342  -30.2982   23.7635 H   0  0  0  0  0  0
  -15.8672  -28.0809   22.7063 H   0  0  0  0  0  0
  -24.5904  -30.7060   25.7794 H   0  0  0  0  0  0
  -24.8918  -32.2866   26.4909 H   0  0  0  0  0  0
  -25.8080  -30.8872   27.0224 H   0  0  0  0  0  0
  -26.2851  -29.6793   24.1170 H   0  0  0  0  0  0
  -27.4073  -29.7276   25.4573 H   0  0  0  0  0  0
  -27.8686  -30.4344   23.9265 H   0  0  0  0  0  0
  -27.2680  -33.3611   26.2067 H   0  0  0  0  0  0
  -28.3840  -32.6885   25.0282 H   0  0  0  0  0  0
  -28.0742  -31.8430   26.5366 H   0  0  0  0  0  0
  -28.2623  -38.0091   24.7492 H   0  0  0  0  0  0
  -28.1065  -36.2625   24.6329 H   0  0  0  0  0  0
  -27.2304  -37.1508   25.8871 H   0  0  0  0  0  0
  -20.9314  -29.8722   21.6918 H   0  0  0  0  0  0
  -26.0201  -38.2874   24.1370 H   0  0  0  0  0  0
  -30.9865  -22.2374   23.2071 H   0  0  0  0  0  0
  -29.6731  -24.1468   22.3345 H   0  0  0  0  0  0
  -30.7358  -19.9856   22.2461 H   0  0  0  0  0  0
  -27.8124  -21.5306   19.4533 H   0  0  0  0  0  0
  -27.3231  -24.6065   21.2812 H   0  0  0  0  0  0
  -26.9361  -23.8080   19.7977 H   0  0  0  0  0  0
  -29.2559  -18.2709   22.0775 H   0  0  0  0  0  0
  -28.1804  -17.5825   20.9055 H   0  0  0  0  0  0
  -31.2073  -17.2652   21.0418 H   0  0  0  0  0  0
  -30.4126  -17.0955   19.4990 H   0  0  0  0  0  0
  -28.1464  -25.3243   18.5477 H   0  0  0  0  0  0
  -29.5479  -25.0925   19.5237 H   0  0  0  0  0  0
  -28.5134  -19.2216   19.3802 H   0  0  0  0  0  0
  -28.9690  -15.4050   21.1645 H   0  0  0  0  0  0
  1 25  1  0  0  0
  1 30  2  0  0  0
  1 82  1  0  0  0
  2  3  1  0  0  0
  2 25  1  0  0  0
  2 83  1  0  0  0
  2 84  1  0  0  0
  3  4  1  0  0  0
  3 85  1  0  0  0
  3 86  1  0  0  0
  4  5  1  0  0  0
  4 87  1  0  0  0
  4 88  1  0  0  0
  5  6  1  0  0  0
  5 26  1  0  0  0
  5 89  1  0  0  0
  6 25  1  0  0  0
  6 90  1  0  0  0
  6 91  1  0  0  0
  7  8  2  0  0  0
  7 26  1  0  0  0
  7 29  1  0  0  0
  8  9  1  0  0  0
  8 22  1  0  0  0
  9 10  1  0  0  0
  9 27  2  0  0  0
 10 11  2  0  0  0
 10 15  1  0  0  0
 11 12  1  0  0  0
 11 92  1  0  0  0
 12 13  2  0  0  0
 12 93  1  0  0  0
 13 14  1  0  0  0
 13 31  1  0  0  0
 14 15  2  0  0  0
 14 94  1  0  0  0
 15 95  1  0  0  0
 16 17  2  0  0  0
 16 21  1  0  0  0
 16 31  1  0  0  0
 17 18  1  0  0  0
 17 96  1  0  0  0
 18 19  2  0  0  0
 18 97  1  0  0  0
 19 20  1  0  0  0
 19 24  1  0  0  0
 20 21  2  0  0  0
 20 98  1  0  0  0
 21 23  1  0  0  0
 22 28  1  0  0  0
 22 32  2  0  0  0
 26 27  1  0  0  0
 28 99  1  0  0  0
 28100  1  0  0  0
 29101  1  0  0  0
 29102  1  0  0  0
 33 34  1  0  0  0
 33 66  1  0  0  0
 33 70  2  0  0  0
 34 36  1  0  0  0
 34 59  1  0  0  0
 34103  1  0  0  0
 35 44  2  0  0  0
 35 45  1  0  0  0
 35 68  1  0  0  0
 36 56  1  0  0  0
 36104  1  0  0  0
 37 39  1  0  0  0
 37 47  1  0  0  0
 37 66  1  0  0  0
 37105  1  0  0  0
 38 43  2  0  0  0
 38 46  1  0  0  0
 38 47  1  0  0  0
 39 64  1  0  0  0
 39 67  2  0  0  0
 40 52  1  0  0  0
 40 53  2  0  0  0
 40 58  1  0  0  0
 41106  1  0  0  0
 41107  1  0  0  0
 41108  1  0  0  0
 41 48  1  0  0  0
 42 43  1  0  0  0
 42 66  1  0  0  0
 42109  1  0  0  0
 42110  1  0  0  0
 43 44  1  0  0  0
 44111  1  0  0  0
 45 46  2  0  0  0
 45112  1  0  0  0
 46113  1  0  0  0
 47114  1  0  0  0
 47115  1  0  0  0
 48 56  1  0  0  0
 48 65  1  0  0  0
 48116  1  0  0  0
 49 50  1  0  0  0
 49 53  1  0  0  0
 49 64  1  0  0  0
 49117  1  0  0  0
 50 51  1  0  0  0
 50118  1  0  0  0
 50119  1  0  0  0
 51 52  1  0  0  0
 51120  1  0  0  0
 51121  1  0  0  0
 52122  1  0  0  0
 52123  1  0  0  0
 53 54  1  0  0  0
 54 55  2  0  0  0
 54124  1  0  0  0
 55 57  1  0  0  0
 55125  1  0  0  0
 56 69  2  0  0  0
 57 58  2  0  0  0
 57126  1  0  0  0
 58127  1  0  0  0
 59 60  1  0  0  0
 59 61  1  0  0  0
 59 62  1  0  0  0
 60128  1  0  0  0
 60129  1  0  0  0
 60130  1  0  0  0
 61131  1  0  0  0
 61132  1  0  0  0
 61133  1  0  0  0
 62134  1  0  0  0
 62135  1  0  0  0
 62136  1  0  0  0
 63 65  1  0  0  0
 63137  1  0  0  0
 63138  1  0  0  0
 63139  1  0  0  0
 64140  1  0  0  0
 65141  1  0  0  0
 68 80  1  0  0  0
 71 72  2  0  0  0
 71 73  1  0  0  0
 71142  1  0  0  0
 72 75  1  0  0  0
 72143  1  0  0  0
 73 76  2  0  0  0
 73144  1  0  0  0
 74 75  2  0  0  0
 74 76  1  0  0  0
 74145  1  0  0  0
 75 77  1  0  0  0
 76 81  1  0  0  0
 77 80  1  0  0  0
 77146  1  0  0  0
 77147  1  0  0  0
 78 79  1  0  0  0
 78 81  1  0  0  0
 78148  1  0  0  0
 78149  1  0  0  0
 79 82  1  0  0  0
 79150  1  0  0  0
 79151  1  0  0  0
 80152  1  0  0  0
 80153  1  0  0  0
 81154  1  0  0  0
 82155  1  0  0  0
M  ISO  4   1 100  68 101  80 101  82 100
M  END
> <chiral flag>
0

> <version>
0

> <s_m_source_file>
/data/baiqing/PycharmProjects/Reinvent-master-3.2/result/LINK_invent/BTK/process_docking_weight1_custom_sum_contain_oxygen_bond_distance_aromatic_linkinvent_7_9_3/rearranged_h_0126.sdf

> <i_m_source_file_index>
68

> <r_mmod_Potential_Energy-OPLS-2005>
-93.5712051391602

> <r_mmod_Stretch_Energy-OPLS-2005>
46.1567916870117

> <r_mmod_Bend_Energy-OPLS-2005>
113.78515625

> <r_mmod_Torsional_Energy-OPLS-2005>
207.238006591797

> <r_mmod_Improper_Torsional_Energy-OPLS-2005>
8.16841220855713

> <r_mmod_Van_der_Waal_Energy-OPLS-2005>
146.161361694336

> <r_mmod_Electrostatic_Energy-OPLS-2005>
-411.723022460938

> <r_mmod_Solvation_Energy-OPLS-2005>
-225.199203491211

> <b_mmod_Minimization_Converged-OPLS-2005>
0

> <r_mmod_RMS_Derivative-OPLS-2005>
1.51962244510651

$$$$
68
                    3D
 Structure written by MMmdl.
153161  0  0  1  0            999 V2000
  -30.5132  -15.0656   20.3508 C   0  0  0  0  0  0
  -30.4485  -12.6629   19.4818 C   0  0  0  0  0  0
  -29.5229  -12.4973   18.2536 C   0  0  0  0  0  0
  -28.0624  -12.2641   18.6911 C   0  0  0  0  0  0
  -27.6151  -13.2235   19.8224 C   0  0  2  0  0  0
  -28.6702  -13.3554   20.9408 C   0  0  0  0  0  0
  -25.2467  -13.8124   20.5782 C   0  0  0  0  0  0
  -24.1754  -13.0388   20.9261 C   0  0  0  0  0  0
  -24.6345  -11.6868   20.8786 C   0  0  0  0  0  0
  -23.9026  -10.4262   21.0427 C   0  0  0  0  0  0
  -24.3588   -9.4184   21.9200 C   0  0  0  0  0  0
  -23.6274   -8.2215   22.0752 C   0  0  0  0  0  0
  -22.4260   -8.0257   21.3539 C   0  0  0  0  0  0
  -21.9890   -9.0229   20.4646 C   0  0  0  0  0  0
  -22.7206  -10.2114   20.3067 C   0  0  0  0  0  0
  -21.6850   -6.0719   22.5276 C   0  0  0  0  0  0
  -21.4011   -6.5629   23.8207 C   0  0  0  0  0  0
  -21.3661   -5.6784   24.9172 C   0  0  0  0  0  0
  -21.6046   -4.3047   24.7225 C   0  0  0  0  0  0
  -21.8820   -3.8134   23.4346 C   0  0  0  0  0  0
  -21.9193   -4.6950   22.3402 C   0  0  0  0  0  0
  -22.7787  -13.5194   21.1900 C   0  0  0  0  0  0
  -22.1660   -4.2135   21.0979 F   0  0  0  0  0  0
  -21.5633   -3.4533   25.7738 F   0  0  0  0  0  0
  -29.9195  -13.7934   20.2997 N   0  0  0  0  0  0
  -26.2839  -12.9286   20.3286 N   0  0  0  0  0  0
  -25.9267  -11.6451   20.5784 N   0  0  0  0  0  0
  -22.0421  -12.8195   22.0451 N   0  0  0  0  0  0
  -25.4182  -15.1850   20.4247 N   0  0  0  0  0  0
  -31.7490  -15.0828   20.3057 O   0  0  0  0  0  0
  -21.6627   -6.8855   21.4234 O   0  0  0  0  0  0
  -22.3492  -14.5503   20.6735 O   0  0  0  0  0  0
  -24.6476  -31.8398   23.1841 C   0  0  0  0  0  0
  -25.9227  -32.4674   23.8250 C   0  0  1  0  0  0
  -27.2231  -27.0885   20.1685 C   0  0  0  0  0  0
  -25.5957  -33.8482   24.2167 N   0  0  0  0  0  0
  -23.4540  -30.4563   21.5304 C   0  0  2  0  0  0
  -24.9061  -28.8705   20.1157 C   0  0  0  0  0  0
  -22.7590  -29.4527   22.4847 C   0  0  0  0  0  0
  -18.0310  -28.1400   22.8475 C   0  0  0  0  0  0
  -24.1491  -36.7248   23.2642 C   0  0  0  0  0  0
  -26.0129  -30.6988   21.3896 C   0  0  0  0  0  0
  -26.0848  -29.3033   20.7364 C   0  0  0  0  0  0
  -27.2435  -28.4309   20.7407 C   0  0  0  0  0  0
  -26.0183  -26.7692   19.5044 C   0  0  0  0  0  0
  -24.8885  -27.6185   19.4824 C   0  0  0  0  0  0
  -23.6848  -29.7792   20.1528 C   0  0  0  0  0  0
  -25.4125  -36.3022   24.0312 C   0  0  1  0  0  0
  -20.5925  -28.3730   23.1228 C   0  0  2  0  0  0
  -20.6793  -26.9429   22.5405 C   0  0  0  0  0  0
  -19.5766  -26.6380   21.5215 C   0  0  0  0  0  0
  -18.1948  -26.7937   22.1626 C   0  0  0  0  0  0
  -19.1568  -28.8884   23.2843 C   0  0  0  0  0  0
  -18.9480  -30.1478   23.8870 C   0  0  0  0  0  0
  -17.6475  -30.6594   24.0559 C   0  0  0  0  0  0
  -25.9078  -34.9398   23.5052 C   0  0  0  0  0  0
  -16.5366  -29.9086   23.6337 C   0  0  0  0  0  0
  -16.7293  -28.6506   23.0356 C   0  0  0  0  0  0
  -26.4531  -31.6558   25.0711 C   0  0  0  0  0  0
  -25.3699  -31.3764   26.1394 C   0  0  0  0  0  0
  -27.0405  -30.2948   24.6326 C   0  0  0  0  0  0
  -27.6055  -32.4331   25.7502 C   0  0  0  0  0  0
  -27.5575  -37.1782   24.8467 C   0  0  0  0  0  0
  -21.4277  -29.3047   22.3595 N   0  0  0  0  0  0
  -26.4287  -37.3737   23.9407 N   0  0  0  0  0  0
  -24.7250  -31.0209   22.0897 N   0  0  0  0  0  0
  -23.4209  -28.8081   23.3021 O   0  0  0  0  0  0
  -28.2814  -26.0916   20.2017 O   0  0  0  0  0  0
  -26.5670  -34.8903   22.4637 O   0  0  0  0  0  0
  -23.5583  -32.1296   23.7032 O   0  0  0  0  0  0
  -31.8742  -19.5210   18.0196 C   0  0  0  0  0  0
  -31.2100  -18.6927   18.9198 C   0  0  0  0  0  0
  -31.5355  -20.8626   17.9997 C   0  0  0  0  0  0
  -30.1955  -19.1507   19.7985 C   0  0  0  0  0  0
  -29.8922  -20.6625   19.7139 C   0  0  0  0  0  0
  -28.8702  -16.3120   18.9922 C   0  0  0  0  0  0
  -29.7711  -17.8188   20.6945 C   0  0  0  0  0  0
  -28.0417  -24.5389   20.4100 C   0  0  0  0  0  0
  -29.0602  -23.2192   20.0188 C   0  0  0  0  0  0
  -30.6047  -21.3781   18.8110 N   0  0  0  0  0  0
  -29.7430  -16.2889   20.1724 N   0  0  0  0  0  0
  -28.9990  -21.6552   20.3509 O   0  0  0  0  0  0
  -31.4699  -12.8546   19.1492 H   0  0  0  0  0  0
  -30.4893  -11.7438   20.0686 H   0  0  0  0  0  0
  -29.8627  -11.6632   17.6383 H   0  0  0  0  0  0
  -29.5852  -13.3812   17.6187 H   0  0  0  0  0  0
  -27.9890  -11.2337   19.0407 H   0  0  0  0  0  0
  -27.3916  -12.3432   17.8349 H   0  0  0  0  0  0
  -27.5176  -14.1821   19.3327 H   0  0  0  0  0  0
  -28.8038  -12.4150   21.4774 H   0  0  0  0  0  0
  -28.3511  -14.0959   21.6762 H   0  0  0  0  0  0
  -25.2728   -9.5668   22.4780 H   0  0  0  0  0  0
  -23.9992   -7.4601   22.7461 H   0  0  0  0  0  0
  -21.0824   -8.8735   19.8952 H   0  0  0  0  0  0
  -22.3654  -10.9653   19.6179 H   0  0  0  0  0  0
  -21.1998   -7.6136   23.9705 H   0  0  0  0  0  0
  -21.1490   -6.0517   25.9075 H   0  0  0  0  0  0
  -22.0602   -2.7598   23.2847 H   0  0  0  0  0  0
  -22.4036  -11.9858   22.4844 H   0  0  0  0  0  0
  -21.1042  -13.1230   22.2656 H   0  0  0  0  0  0
  -24.6578  -15.8442   20.5516 H   0  0  0  0  0  0
  -26.2819  -15.6261   20.1394 H   0  0  0  0  0  0
  -26.7294  -32.5269   23.0976 H   0  0  0  0  0  0
  -25.0074  -33.9588   25.0295 H   0  0  0  0  0  0
  -22.7588  -31.2831   21.3703 H   0  0  0  0  0  0
  -23.3758  -35.9575   23.3291 H   0  0  0  0  0  0
  -24.3571  -36.8896   22.2059 H   0  0  0  0  0  0
  -23.7241  -37.6438   23.6691 H   0  0  0  0  0  0
  -26.1718  -31.4477   20.6125 H   0  0  0  0  0  0
  -26.8819  -30.7542   22.0337 H   0  0  0  0  0  0
  -28.1426  -28.7620   21.2411 H   0  0  0  0  0  0
  -25.9251  -25.8211   18.9967 H   0  0  0  0  0  0
  -23.9920  -27.2846   18.9780 H   0  0  0  0  0  0
  -23.8266  -30.5505   19.3950 H   0  0  0  0  0  0
  -22.7984  -29.2235   19.8410 H   0  0  0  0  0  0
  -25.1315  -36.1844   25.0804 H   0  0  0  0  0  0
  -21.0016  -28.3320   24.1351 H   0  0  0  0  0  0
  -20.5688  -26.2342   23.3626 H   0  0  0  0  0  0
  -21.6657  -26.7431   22.1200 H   0  0  0  0  0  0
  -19.6927  -25.6283   21.1266 H   0  0  0  0  0  0
  -19.6706  -27.3172   20.6729 H   0  0  0  0  0  0
  -17.4217  -26.6679   21.4030 H   0  0  0  0  0  0
  -18.0350  -26.0088   22.9033 H   0  0  0  0  0  0
  -19.7953  -30.7305   24.2227 H   0  0  0  0  0  0
  -17.5026  -31.6271   24.5165 H   0  0  0  0  0  0
  -15.5365  -30.2978   23.7677 H   0  0  0  0  0  0
  -15.8693  -28.0816   22.7086 H   0  0  0  0  0  0
  -24.5886  -30.7106   25.7708 H   0  0  0  0  0  0
  -24.8876  -32.2952   26.4742 H   0  0  0  0  0  0
  -25.7960  -30.8984   27.0222 H   0  0  0  0  0  0
  -26.3036  -29.6658   24.1320 H   0  0  0  0  0  0
  -27.3988  -29.7265   25.4918 H   0  0  0  0  0  0
  -27.8953  -30.4173   23.9672 H   0  0  0  0  0  0
  -27.2647  -33.3657   26.2009 H   0  0  0  0  0  0
  -28.3903  -32.6848   25.0357 H   0  0  0  0  0  0
  -28.0680  -31.8501   26.5476 H   0  0  0  0  0  0
  -28.2586  -38.0084   24.7506 H   0  0  0  0  0  0
  -28.1077  -36.2612   24.6303 H   0  0  0  0  0  0
  -27.2291  -37.1438   25.8869 H   0  0  0  0  0  0
  -20.9499  -29.8748   21.6756 H   0  0  0  0  0  0
  -26.0152  -38.2806   24.1403 H   0  0  0  0  0  0
  -32.6402  -19.1326   17.3625 H   0  0  0  0  0  0
  -31.5165  -17.6571   18.9283 H   0  0  0  0  0  0
  -32.0260  -21.5482   17.3246 H   0  0  0  0  0  0
  -27.8259  -16.3587   19.2958 H   0  0  0  0  0  0
  -29.0127  -15.4592   18.3302 H   0  0  0  0  0  0
  -29.0489  -17.1842   18.3655 H   0  0  0  0  0  0
  -28.7790  -18.0267   21.0970 H   0  0  0  0  0  0
  -30.4258  -17.8232   21.5671 H   0  0  0  0  0  0
  -27.8594  -24.4532   21.4813 H   0  0  0  0  0  0
  -27.0809  -24.2926   19.9639 H   0  0  0  0  0  0
  -30.0495  -23.5220   20.3630 H   0  0  0  0  0  0
  -29.1018  -23.2956   18.9323 H   0  0  0  0  0  0
  1 25  1  0  0  0
  1 30  2  0  0  0
  1 81  1  0  0  0
  2  3  1  0  0  0
  2 25  1  0  0  0
  2 83  1  0  0  0
  2 84  1  0  0  0
  3  4  1  0  0  0
  3 85  1  0  0  0
  3 86  1  0  0  0
  4  5  1  0  0  0
  4 87  1  0  0  0
  4 88  1  0  0  0
  5  6  1  0  0  0
  5 26  1  0  0  0
  5 89  1  0  0  0
  6 25  1  0  0  0
  6 90  1  0  0  0
  6 91  1  0  0  0
  7  8  2  0  0  0
  7 26  1  0  0  0
  7 29  1  0  0  0
  8  9  1  0  0  0
  8 22  1  0  0  0
  9 10  1  0  0  0
  9 27  2  0  0  0
 10 11  2  0  0  0
 10 15  1  0  0  0
 11 12  1  0  0  0
 11 92  1  0  0  0
 12 13  2  0  0  0
 12 93  1  0  0  0
 13 14  1  0  0  0
 13 31  1  0  0  0
 14 15  2  0  0  0
 14 94  1  0  0  0
 15 95  1  0  0  0
 16 17  2  0  0  0
 16 21  1  0  0  0
 16 31  1  0  0  0
 17 18  1  0  0  0
 17 96  1  0  0  0
 18 19  2  0  0  0
 18 97  1  0  0  0
 19 20  1  0  0  0
 19 24  1  0  0  0
 20 21  2  0  0  0
 20 98  1  0  0  0
 21 23  1  0  0  0
 22 28  1  0  0  0
 22 32  2  0  0  0
 26 27  1  0  0  0
 28 99  1  0  0  0
 28100  1  0  0  0
 29101  1  0  0  0
 29102  1  0  0  0
 33 34  1  0  0  0
 33 66  1  0  0  0
 33 70  2  0  0  0
 34 36  1  0  0  0
 34 59  1  0  0  0
 34103  1  0  0  0
 35 44  2  0  0  0
 35 45  1  0  0  0
 35 68  1  0  0  0
 36 56  1  0  0  0
 36104  1  0  0  0
 37 39  1  0  0  0
 37 47  1  0  0  0
 37 66  1  0  0  0
 37105  1  0  0  0
 38 43  2  0  0  0
 38 46  1  0  0  0
 38 47  1  0  0  0
 39 64  1  0  0  0
 39 67  2  0  0  0
 40 52  1  0  0  0
 40 53  2  0  0  0
 40 58  1  0  0  0
 41106  1  0  0  0
 41107  1  0  0  0
 41108  1  0  0  0
 41 48  1  0  0  0
 42 43  1  0  0  0
 42 66  1  0  0  0
 42109  1  0  0  0
 42110  1  0  0  0
 43 44  1  0  0  0
 44111  1  0  0  0
 45 46  2  0  0  0
 45112  1  0  0  0
 46113  1  0  0  0
 47114  1  0  0  0
 47115  1  0  0  0
 48 56  1  0  0  0
 48 65  1  0  0  0
 48116  1  0  0  0
 49 50  1  0  0  0
 49 53  1  0  0  0
 49 64  1  0  0  0
 49117  1  0  0  0
 50 51  1  0  0  0
 50118  1  0  0  0
 50119  1  0  0  0
 51 52  1  0  0  0
 51120  1  0  0  0
 51121  1  0  0  0
 52122  1  0  0  0
 52123  1  0  0  0
 53 54  1  0  0  0
 54 55  2  0  0  0
 54124  1  0  0  0
 55 57  1  0  0  0
 55125  1  0  0  0
 56 69  2  0  0  0
 57 58  2  0  0  0
 57126  1  0  0  0
 58127  1  0  0  0
 59 60  1  0  0  0
 59 61  1  0  0  0
 59 62  1  0  0  0
 60128  1  0  0  0
 60129  1  0  0  0
 60130  1  0  0  0
 61131  1  0  0  0
 61132  1  0  0  0
 61133  1  0  0  0
 62134  1  0  0  0
 62135  1  0  0  0
 62136  1  0  0  0
 63 65  1  0  0  0
 63137  1  0  0  0
 63138  1  0  0  0
 63139  1  0  0  0
 64140  1  0  0  0
 65141  1  0  0  0
 68 78  1  0  0  0
 71 72  2  0  0  0
 71 73  1  0  0  0
 71142  1  0  0  0
 72 74  1  0  0  0
 72143  1  0  0  0
 73 80  2  0  0  0
 73144  1  0  0  0
 74 75  2  0  0  0
 74 77  1  0  0  0
 75 80  1  0  0  0
 75 82  1  0  0  0
 76 81  1  0  0  0
 76145  1  0  0  0
 76146  1  0  0  0
 76147  1  0  0  0
 77 81  1  0  0  0
 77148  1  0  0  0
 77149  1  0  0  0
 78 79  1  0  0  0
 78150  1  0  0  0
 78151  1  0  0  0
 79 82  1  0  0  0
 79152  1  0  0  0
 79153  1  0  0  0
M  ISO  4   1 100  68 101  78 101  81 100
M  END
> <chiral flag>
0

> <version>
0

> <s_m_source_file>
/data/baiqing/PycharmProjects/Reinvent-master-3.2/result/LINK_invent/BTK/process_docking_weight1_custom_sum_contain_oxygen_bond_distance_aromatic_linkinvent_7_9_3/rearranged_h_0126.sdf

> <i_m_source_file_index>
69

> <r_mmod_Potential_Energy-OPLS-2005>
778.56640625

> <r_mmod_Stretch_Energy-OPLS-2005>
366.456359863281

> <r_mmod_Bend_Energy-OPLS-2005>
386.506988525391

> <r_mmod_Torsional_Energy-OPLS-2005>
274.341125488281

> <r_mmod_Improper_Torsional_Energy-OPLS-2005>
7.15294647216797

> <r_mmod_Van_der_Waal_Energy-OPLS-2005>
152.611709594727

> <r_mmod_Electrostatic_Energy-OPLS-2005>
-464.524566650391

> <r_mmod_Solvation_Energy-OPLS-2005>
-211.843566894531

> <b_mmod_Minimization_Converged-OPLS-2005>
0

> <r_mmod_RMS_Derivative-OPLS-2005>
0.696168601512909

$$$$
69
                    3D
 Structure written by MMmdl.
162170  0  0  1  0            999 V2000
  -30.7601  -14.3680   20.6825 C   0  0  0  0  0  0
  -30.4203  -12.2874   19.3919 C   0  0  0  0  0  0
  -29.4850  -12.5265   18.1913 C   0  0  0  0  0  0
  -28.0087  -12.3827   18.6081 C   0  0  0  0  0  0
  -27.6681  -13.1995   19.8821 C   0  0  2  0  0  0
  -28.7065  -12.9276   20.9930 C   0  0  0  0  0  0
  -25.2615  -13.8146   20.5670 C   0  0  0  0  0  0
  -24.1851  -13.0433   20.9158 C   0  0  0  0  0  0
  -24.6394  -11.6895   20.8719 C   0  0  0  0  0  0
  -23.9056  -10.4287   21.0393 C   0  0  0  0  0  0
  -24.3610   -9.4205   21.9174 C   0  0  0  0  0  0
  -23.6288   -8.2240   22.0749 C   0  0  0  0  0  0
  -22.4271   -8.0274   21.3543 C   0  0  0  0  0  0
  -21.9903   -9.0242   20.4642 C   0  0  0  0  0  0
  -22.7228  -10.2123   20.3044 C   0  0  0  0  0  0
  -21.6853   -6.0729   22.5279 C   0  0  0  0  0  0
  -21.4011   -6.5636   23.8212 C   0  0  0  0  0  0
  -21.3658   -5.6787   24.9174 C   0  0  0  0  0  0
  -21.6045   -4.3049   24.7225 C   0  0  0  0  0  0
  -21.8821   -3.8141   23.4346 C   0  0  0  0  0  0
  -21.9195   -4.6957   22.3403 C   0  0  0  0  0  0
  -22.7878  -13.5238   21.1833 C   0  0  0  0  0  0
  -22.1664   -4.2144   21.0979 F   0  0  0  0  0  0
  -21.5630   -3.4533   25.7736 F   0  0  0  0  0  0
  -30.0499  -13.2297   20.4580 N   0  0  0  0  0  0
  -26.3054  -12.9305   20.3387 N   0  0  0  0  0  0
  -25.9321  -11.6470   20.5758 N   0  0  0  0  0  0
  -22.0519  -12.8222   22.0384 N   0  0  0  0  0  0
  -25.4360  -15.1861   20.4079 N   0  0  0  0  0  0
  -31.7980  -14.6354   20.0646 O   0  0  0  0  0  0
  -21.6637   -6.8870   21.4240 O   0  0  0  0  0  0
  -22.3568  -14.5554   20.6698 O   0  0  0  0  0  0
  -24.6110  -31.8699   23.2128 C   0  0  0  0  0  0
  -25.9017  -32.4833   23.8406 C   0  0  1  0  0  0
  -27.2346  -27.4641   20.0835 C   0  0  0  0  0  0
  -25.5884  -33.8632   24.2336 N   0  0  0  0  0  0
  -23.3966  -30.4948   21.5531 C   0  0  2  0  0  0
  -24.8403  -28.9629   20.1177 C   0  0  0  0  0  0
  -22.7384  -29.4673   22.5009 C   0  0  0  0  0  0
  -18.0259  -28.1381   22.8493 C   0  0  0  0  0  0
  -24.1482  -36.7316   23.2643 C   0  0  0  0  0  0
  -25.9226  -30.8444   21.3604 C   0  0  0  0  0  0
  -25.9990  -29.4814   20.7070 C   0  0  0  0  0  0
  -27.1986  -28.7404   20.6839 C   0  0  0  0  0  0
  -26.0544  -26.9496   19.4964 C   0  0  0  0  0  0
  -24.8612  -27.6950   19.5125 C   0  0  0  0  0  0
  -23.6018  -29.8267   20.1675 C   0  0  0  0  0  0
  -25.4105  -36.3120   24.0345 C   0  0  1  0  0  0
  -20.5848  -28.3658   23.1331 C   0  0  2  0  0  0
  -20.6754  -26.9400   22.5422 C   0  0  0  0  0  0
  -19.5742  -26.6391   21.5210 C   0  0  0  0  0  0
  -18.1910  -26.7933   22.1603 C   0  0  0  0  0  0
  -19.1509  -28.8832   23.2913 C   0  0  0  0  0  0
  -18.9443  -30.1438   23.8925 C   0  0  0  0  0  0
  -17.6450  -30.6589   24.0573 C   0  0  0  0  0  0
  -25.9028  -34.9485   23.5137 C   0  0  0  0  0  0
  -16.5339  -29.9098   23.6330 C   0  0  0  0  0  0
  -16.7249  -28.6512   23.0351 C   0  0  0  0  0  0
  -26.4464  -31.6611   25.0723 C   0  0  0  0  0  0
  -25.3749  -31.3702   26.1485 C   0  0  0  0  0  0
  -27.0298  -30.3066   24.6072 C   0  0  0  0  0  0
  -27.6040  -32.4340   25.7473 C   0  0  0  0  0  0
  -27.5583  -37.1813   24.8463 C   0  0  0  0  0  0
  -21.4115  -29.3033   22.3747 N   0  0  0  0  0  0
  -26.4295  -37.3801   23.9410 N   0  0  0  0  0  0
  -24.6618  -31.0831   22.1010 N   0  0  0  0  0  0
  -23.4174  -28.8210   23.3033 O   0  0  0  0  0  0
  -28.4321  -26.7850   20.0744 O   0  0  0  0  0  0
  -26.5593  -34.8933   22.4700 O   0  0  0  0  0  0
  -23.5313  -32.1432   23.7548 O   0  0  0  0  0  0
  -31.2167  -19.0334   22.8938 C   0  0  0  0  0  0
  -29.5902  -17.2996   22.4868 C   0  0  0  0  0  0
  -29.8716  -18.6126   22.8975 C   0  0  0  0  0  0
  -32.2026  -18.1274   22.4681 C   0  0  0  0  0  0
  -30.6264  -16.4589   22.0359 C   0  0  0  0  0  0
  -33.6651  -18.5189   22.4489 C   0  0  0  0  0  0
  -27.6273  -21.4894   23.2852 C   0  0  0  0  0  0
  -27.6719  -23.0226   23.1446 C   0  0  0  0  0  0
  -27.9393  -24.9289   21.5786 C   0  0  0  0  0  0
  -29.0066  -20.8135   23.2618 C   0  0  0  0  0  0
  -28.4086  -25.3607   20.1745 C   0  0  0  0  0  0
  -31.9141  -16.8785   22.0472 N   0  0  0  0  0  0
  -30.2238  -15.1704   21.6152 N   0  0  0  0  0  0
  -28.0233  -23.4632   21.7743 N   0  3  0  0  0  0
  -28.8097  -19.4053   23.2700 O   0  0  0  0  0  0
  -31.4627  -12.3897   19.0845 H   0  0  0  0  0  0
  -30.3212  -11.2628   19.7533 H   0  0  0  0  0  0
  -29.7167  -11.8255   17.3882 H   0  0  0  0  0  0
  -29.6559  -13.5246   17.7845 H   0  0  0  0  0  0
  -27.8143  -11.3241   18.7838 H   0  0  0  0  0  0
  -27.3554  -12.6776   17.7862 H   0  0  0  0  0  0
  -27.7297  -14.2553   19.6173 H   0  0  0  0  0  0
  -28.6702  -11.8782   21.2898 H   0  0  0  0  0  0
  -28.4498  -13.4808   21.8965 H   0  0  0  0  0  0
  -25.2762   -9.5684   22.4738 H   0  0  0  0  0  0
  -24.0003   -7.4633   22.7469 H   0  0  0  0  0  0
  -21.0835   -8.8752   19.8947 H   0  0  0  0  0  0
  -22.3689  -10.9651   19.6142 H   0  0  0  0  0  0
  -21.1997   -7.6143   23.9715 H   0  0  0  0  0  0
  -21.1479   -6.0514   25.9077 H   0  0  0  0  0  0
  -22.0600   -2.7602   23.2845 H   0  0  0  0  0  0
  -22.4132  -11.9870   22.4749 H   0  0  0  0  0  0
  -21.1135  -13.1241   22.2590 H   0  0  0  0  0  0
  -24.6707  -15.8438   20.5101 H   0  0  0  0  0  0
  -26.2930  -15.6222   20.0908 H   0  0  0  0  0  0
  -26.7083  -32.5550   23.1167 H   0  0  0  0  0  0
  -25.0042  -33.9798   25.0487 H   0  0  0  0  0  0
  -22.6844  -31.3111   21.4159 H   0  0  0  0  0  0
  -23.3748  -35.9645   23.3313 H   0  0  0  0  0  0
  -24.3575  -36.8916   22.2055 H   0  0  0  0  0  0
  -23.7227  -37.6523   23.6647 H   0  0  0  0  0  0
  -26.0313  -31.6123   20.5933 H   0  0  0  0  0  0
  -26.8122  -30.8963   21.9763 H   0  0  0  0  0  0
  -28.0971  -29.1429   21.1309 H   0  0  0  0  0  0
  -26.0340  -25.9897   19.0035 H   0  0  0  0  0  0
  -23.9692  -27.2920   19.0523 H   0  0  0  0  0  0
  -23.7073  -30.6005   19.4062 H   0  0  0  0  0  0
  -22.7265  -29.2440   19.8745 H   0  0  0  0  0  0
  -25.1284  -36.1988   25.0840 H   0  0  0  0  0  0
  -20.9937  -28.3213   24.1453 H   0  0  0  0  0  0
  -20.5644  -26.2266   23.3603 H   0  0  0  0  0  0
  -21.6627  -26.7446   22.1221 H   0  0  0  0  0  0
  -19.6908  -25.6306   21.1227 H   0  0  0  0  0  0
  -19.6700  -27.3214   20.6753 H   0  0  0  0  0  0
  -17.4196  -26.6702   21.3988 H   0  0  0  0  0  0
  -18.0294  -26.0060   22.8979 H   0  0  0  0  0  0
  -19.7921  -30.7243   24.2309 H   0  0  0  0  0  0
  -17.5012  -31.6272   24.5169 H   0  0  0  0  0  0
  -15.5345  -30.3021   23.7646 H   0  0  0  0  0  0
  -15.8638  -28.0851   22.7061 H   0  0  0  0  0  0
  -24.5910  -30.7060   25.7827 H   0  0  0  0  0  0
  -24.8956  -32.2856   26.4971 H   0  0  0  0  0  0
  -25.8120  -30.8846   27.0219 H   0  0  0  0  0  0
  -26.2826  -29.6814   24.1170 H   0  0  0  0  0  0
  -27.4137  -29.7312   25.4504 H   0  0  0  0  0  0
  -27.8628  -30.4404   23.9166 H   0  0  0  0  0  0
  -27.2648  -33.3617   26.2096 H   0  0  0  0  0  0
  -28.3819  -32.6944   25.0284 H   0  0  0  0  0  0
  -28.0752  -31.8450   26.5352 H   0  0  0  0  0  0
  -28.2608  -38.0104   24.7511 H   0  0  0  0  0  0
  -28.1072  -36.2638   24.6284 H   0  0  0  0  0  0
  -27.2306  -37.1453   25.8868 H   0  0  0  0  0  0
  -20.9263  -29.8770   21.6989 H   0  0  0  0  0  0
  -26.0187  -38.2881   24.1413 H   0  0  0  0  0  0
  -31.5072  -20.0238   23.2148 H   0  0  0  0  0  0
  -28.5634  -16.9603   22.4852 H   0  0  0  0  0  0
  -33.8440  -19.4070   23.0553 H   0  0  0  0  0  0
  -33.9858  -18.7343   21.4297 H   0  0  0  0  0  0
  -34.2878  -17.7150   22.8422 H   0  0  0  0  0  0
  -26.9919  -21.0667   22.5060 H   0  0  0  0  0  0
  -27.1421  -21.2405   24.2297 H   0  0  0  0  0  0
  -28.3697  -23.4500   23.8667 H   0  0  0  0  0  0
  -26.6875  -23.4222   23.3933 H   0  0  0  0  0  0
  -26.9118  -25.2532   21.7494 H   0  0  0  0  0  0
  -28.5562  -25.4267   22.3278 H   0  0  0  0  0  0
  -29.5985  -21.1182   24.1265 H   0  0  0  0  0  0
  -29.5462  -21.1118   22.3614 H   0  0  0  0  0  0
  -27.8208  -24.8961   19.3837 H   0  0  0  0  0  0
  -29.4310  -25.0170   20.0158 H   0  0  0  0  0  0
  -29.3466  -14.8447   21.9855 H   0  0  0  0  0  0
  -27.4034  -23.0105   21.1191 H   0  0  0  0  0  0
  -28.9634  -23.1652   21.5640 H   0  0  0  0  0  0
  1 25  1  0  0  0
  1 30  2  0  0  0
  1 83  1  0  0  0
  2  3  1  0  0  0
  2 25  1  0  0  0
  2 86  1  0  0  0
  2 87  1  0  0  0
  3  4  1  0  0  0
  3 88  1  0  0  0
  3 89  1  0  0  0
  4  5  1  0  0  0
  4 90  1  0  0  0
  4 91  1  0  0  0
  5  6  1  0  0  0
  5 26  1  0  0  0
  5 92  1  0  0  0
  6 25  1  0  0  0
  6 93  1  0  0  0
  6 94  1  0  0  0
  7  8  2  0  0  0
  7 26  1  0  0  0
  7 29  1  0  0  0
  8  9  1  0  0  0
  8 22  1  0  0  0
  9 10  1  0  0  0
  9 27  2  0  0  0
 10 11  2  0  0  0
 10 15  1  0  0  0
 11 12  1  0  0  0
 11 95  1  0  0  0
 12 13  2  0  0  0
 12 96  1  0  0  0
 13 14  1  0  0  0
 13 31  1  0  0  0
 14 15  2  0  0  0
 14 97  1  0  0  0
 15 98  1  0  0  0
 16 17  2  0  0  0
 16 21  1  0  0  0
 16 31  1  0  0  0
 17 18  1  0  0  0
 17 99  1  0  0  0
 18 19  2  0  0  0
 18100  1  0  0  0
 19 20  1  0  0  0
 19 24  1  0  0  0
 20 21  2  0  0  0
 20101  1  0  0  0
 21 23  1  0  0  0
 22 28  1  0  0  0
 22 32  2  0  0  0
 26 27  1  0  0  0
 28102  1  0  0  0
 28103  1  0  0  0
 29104  1  0  0  0
 29105  1  0  0  0
 33 34  1  0  0  0
 33 66  1  0  0  0
 33 70  2  0  0  0
 34 36  1  0  0  0
 34 59  1  0  0  0
 34106  1  0  0  0
 35 44  2  0  0  0
 35 45  1  0  0  0
 35 68  1  0  0  0
 36 56  1  0  0  0
 36107  1  0  0  0
 37 39  1  0  0  0
 37 47  1  0  0  0
 37 66  1  0  0  0
 37108  1  0  0  0
 38 43  2  0  0  0
 38 46  1  0  0  0
 38 47  1  0  0  0
 39 64  1  0  0  0
 39 67  2  0  0  0
 40 52  1  0  0  0
 40 53  2  0  0  0
 40 58  1  0  0  0
 41109  1  0  0  0
 41110  1  0  0  0
 41111  1  0  0  0
 41 48  1  0  0  0
 42 43  1  0  0  0
 42 66  1  0  0  0
 42112  1  0  0  0
 42113  1  0  0  0
 43 44  1  0  0  0
 44114  1  0  0  0
 45 46  2  0  0  0
 45115  1  0  0  0
 46116  1  0  0  0
 47117  1  0  0  0
 47118  1  0  0  0
 48 56  1  0  0  0
 48 65  1  0  0  0
 48119  1  0  0  0
 49 50  1  0  0  0
 49 53  1  0  0  0
 49 64  1  0  0  0
 49120  1  0  0  0
 50 51  1  0  0  0
 50121  1  0  0  0
 50122  1  0  0  0
 51 52  1  0  0  0
 51123  1  0  0  0
 51124  1  0  0  0
 52125  1  0  0  0
 52126  1  0  0  0
 53 54  1  0  0  0
 54 55  2  0  0  0
 54127  1  0  0  0
 55 57  1  0  0  0
 55128  1  0  0  0
 56 69  2  0  0  0
 57 58  2  0  0  0
 57129  1  0  0  0
 58130  1  0  0  0
 59 60  1  0  0  0
 59 61  1  0  0  0
 59 62  1  0  0  0
 60131  1  0  0  0
 60132  1  0  0  0
 60133  1  0  0  0
 61134  1  0  0  0
 61135  1  0  0  0
 61136  1  0  0  0
 62137  1  0  0  0
 62138  1  0  0  0
 62139  1  0  0  0
 63 65  1  0  0  0
 63140  1  0  0  0
 63141  1  0  0  0
 63142  1  0  0  0
 64143  1  0  0  0
 65144  1  0  0  0
 68 81  1  0  0  0
 71 73  2  0  0  0
 71 74  1  0  0  0
 71145  1  0  0  0
 72 73  1  0  0  0
 72 75  2  0  0  0
 72146  1  0  0  0
 73 85  1  0  0  0
 74 76  1  0  0  0
 74 82  2  0  0  0
 75 82  1  0  0  0
 75 83  1  0  0  0
 76147  1  0  0  0
 76148  1  0  0  0
 76149  1  0  0  0
 77 78  1  0  0  0
 77 80  1  0  0  0
 77150  1  0  0  0
 77151  1  0  0  0
 78 84  1  0  0  0
 78152  1  0  0  0
 78153  1  0  0  0
 79 81  1  0  0  0
 79 84  1  0  0  0
 79154  1  0  0  0
 79155  1  0  0  0
 80 85  1  0  0  0
 80156  1  0  0  0
 80157  1  0  0  0
 81158  1  0  0  0
 81159  1  0  0  0
 83160  1  0  0  0
 84161  1  0  0  0
 84162  1  0  0  0
M  CHG  1  84   1
M  ISO  4   1 100  68 101  81 101  83 100
M  END
> <chiral flag>
0

> <version>
0

> <s_m_source_file>
/data/baiqing/PycharmProjects/Reinvent-master-3.2/result/LINK_invent/BTK/process_docking_weight1_custom_sum_contain_oxygen_bond_distance_aromatic_linkinvent_7_9_3/rearranged_h_0126.sdf

> <i_m_source_file_index>
70

> <r_mmod_Potential_Energy-OPLS-2005>
-372.123565673828

> <r_mmod_Stretch_Energy-OPLS-2005>
32.1374588012695

> <r_mmod_Bend_Energy-OPLS-2005>
102.197280883789

> <r_mmod_Torsional_Energy-OPLS-2005>
207.117691040039

> <r_mmod_Improper_Torsional_Energy-OPLS-2005>
1.93600738048553

> <r_mmod_Van_der_Waal_Energy-OPLS-2005>
162.663269042969

> <r_mmod_Electrostatic_Energy-OPLS-2005>
-395.072143554688

> <r_mmod_Solvation_Energy-OPLS-2005>
-490.583953857422

> <b_mmod_Minimization_Converged-OPLS-2005>
0

> <r_mmod_RMS_Derivative-OPLS-2005>
0.611502408981323

$$$$
70
                    3D
 Structure written by MMmdl.
163172  0  0  1  0            999 V2000
  -30.7087  -14.6504   20.4774 C   0  0  0  0  0  0
  -30.4164  -12.4085   19.4479 C   0  0  0  0  0  0
  -29.4902  -12.4845   18.2178 C   0  0  0  0  0  0
  -28.0231  -12.2890   18.6439 C   0  0  0  0  0  0
  -27.6294  -13.1886   19.8398 C   0  0  2  0  0  0
  -28.6882  -13.1607   20.9705 C   0  0  0  0  0  0
  -25.2486  -13.8041   20.5675 C   0  0  0  0  0  0
  -24.1757  -13.0358   20.9232 C   0  0  0  0  0  0
  -24.6301  -11.6821   20.8773 C   0  0  0  0  0  0
  -23.8968  -10.4233   21.0420 C   0  0  0  0  0  0
  -24.3545   -9.4164   21.9194 C   0  0  0  0  0  0
  -23.6253   -8.2191   22.0745 C   0  0  0  0  0  0
  -22.4238   -8.0230   21.3537 C   0  0  0  0  0  0
  -21.9853   -9.0184   20.4638 C   0  0  0  0  0  0
  -22.7153  -10.2076   20.3053 C   0  0  0  0  0  0
  -21.6843   -6.0695   22.5275 C   0  0  0  0  0  0
  -21.3999   -6.5611   23.8201 C   0  0  0  0  0  0
  -21.3657   -5.6774   24.9173 C   0  0  0  0  0  0
  -21.6045   -4.3034   24.7226 C   0  0  0  0  0  0
  -21.8826   -3.8122   23.4346 C   0  0  0  0  0  0
  -21.9194   -4.6931   22.3399 C   0  0  0  0  0  0
  -22.7800  -13.5202   21.1881 C   0  0  0  0  0  0
  -22.1672   -4.2114   21.0980 F   0  0  0  0  0  0
  -21.5632   -3.4525   25.7740 F   0  0  0  0  0  0
  -29.9976  -13.4770   20.3795 N   0  0  0  0  0  0
  -26.2867  -12.9162   20.3280 N   0  0  0  0  0  0
  -25.9218  -11.6354   20.5791 N   0  0  0  0  0  0
  -22.0427  -12.8204   22.0438 N   0  0  0  0  0  0
  -25.4139  -15.1760   20.4001 N   0  0  0  0  0  0
  -31.9091  -14.6681   20.1954 O   0  0  0  0  0  0
  -21.6618   -6.8824   21.4232 O   0  0  0  0  0  0
  -22.3516  -14.5519   20.6725 O   0  0  0  0  0  0
  -24.6220  -31.8625   23.2045 C   0  0  0  0  0  0
  -25.9086  -32.4786   23.8370 C   0  0  1  0  0  0
  -27.2329  -27.3631   20.1212 C   0  0  0  0  0  0
  -25.5927  -33.8585   24.2305 N   0  0  0  0  0  0
  -23.4150  -30.4850   21.5452 C   0  0  2  0  0  0
  -24.8654  -28.9446   20.1104 C   0  0  0  0  0  0
  -22.7461  -29.4628   22.4935 C   0  0  0  0  0  0
  -18.0289  -28.1373   22.8479 C   0  0  0  0  0  0
  -24.1486  -36.7283   23.2635 C   0  0  0  0  0  0
  -25.9520  -30.8071   21.3704 C   0  0  0  0  0  0
  -26.0302  -29.4376   20.7143 C   0  0  0  0  0  0
  -27.2193  -28.6572   20.7114 C   0  0  0  0  0  0
  -26.0539  -26.9147   19.4858 C   0  0  0  0  0  0
  -24.8769  -27.6863   19.4867 C   0  0  0  0  0  0
  -23.6291  -29.8167   20.1606 C   0  0  0  0  0  0
  -25.4102  -36.3082   24.0341 C   0  0  1  0  0  0
  -20.5885  -28.3671   23.1288 C   0  0  2  0  0  0
  -20.6768  -26.9400   22.5401 C   0  0  0  0  0  0
  -19.5752  -26.6374   21.5197 C   0  0  0  0  0  0
  -18.1932  -26.7919   22.1611 C   0  0  0  0  0  0
  -19.1540  -28.8838   23.2875 C   0  0  0  0  0  0
  -18.9462  -30.1442   23.8883 C   0  0  0  0  0  0
  -17.6466  -30.6579   24.0554 C   0  0  0  0  0  0
  -25.9045  -34.9453   23.5118 C   0  0  0  0  0  0
  -16.5355  -29.9075   23.6332 C   0  0  0  0  0  0
  -16.7278  -28.6490   23.0354 C   0  0  0  0  0  0
  -26.4490  -31.6572   25.0716 C   0  0  0  0  0  0
  -25.3742  -31.3691   26.1458 C   0  0  0  0  0  0
  -27.0335  -30.3009   24.6123 C   0  0  0  0  0  0
  -27.6059  -32.4292   25.7488 C   0  0  0  0  0  0
  -27.5590  -37.1773   24.8448 C   0  0  0  0  0  0
  -21.4175  -29.3026   22.3678 N   0  0  0  0  0  0
  -26.4268  -37.3788   23.9442 N   0  0  0  0  0  0
  -24.6810  -31.0679   22.0970 N   0  0  0  0  0  0
  -23.4200  -28.8177   23.3010 O   0  0  0  0  0  0
  -28.3418  -26.5190   20.1684 O   0  0  0  0  0  0
  -26.5599  -34.8916   22.4675 O   0  0  0  0  0  0
  -23.5392  -32.1401   23.7397 O   0  0  0  0  0  0
  -28.9814  -23.1751   19.5108 C   0  0  0  0  0  0
  -28.8687  -23.0737   22.0009 C   0  0  0  0  0  0
  -29.8336  -21.8613   19.5229 C   0  0  0  0  0  0
  -29.7180  -21.7668   22.0007 C   0  0  0  0  0  0
  -28.8511  -17.8219   19.9276 C   0  0  0  0  0  0
  -28.8353  -16.2894   20.0949 C   0  0  0  0  0  0
  -30.8060  -17.1109   21.0730 C   0  0  0  0  0  0
  -29.1009  -24.0387   20.7985 C   0  0  2  0  0  0
  -29.5415  -20.9079   20.7212 C   0  0  2  0  0  0
  -29.8125  -18.3202   20.9937 C   0  0  1  0  0  0
  -28.0951  -25.2617   20.8790 C   0  0  0  0  0  0
  -30.0738  -15.8472   20.7554 N   0  0  0  0  0  0
  -30.4214  -19.6765   20.7214 N   0  3  0  0  0  0
  -31.4569  -12.5049   19.1341 H   0  0  0  0  0  0
  -30.3436  -11.4320   19.9291 H   0  0  0  0  0  0
  -29.7703  -11.7256   17.4854 H   0  0  0  0  0  0
  -29.6068  -13.4504   17.7228 H   0  0  0  0  0  0
  -27.8939  -11.2398   18.9116 H   0  0  0  0  0  0
  -27.3574  -12.4706   17.7994 H   0  0  0  0  0  0
  -27.5783  -14.1758   19.4075 H   0  0  0  0  0  0
  -28.7176  -12.1785   21.4460 H   0  0  0  0  0  0
  -28.4305  -13.8720   21.7570 H   0  0  0  0  0  0
  -25.2677   -9.5669   22.4776 H   0  0  0  0  0  0
  -23.9975   -7.4573   22.7446 H   0  0  0  0  0  0
  -21.0791   -8.8665   19.8940 H   0  0  0  0  0  0
  -22.3589  -10.9601   19.6156 H   0  0  0  0  0  0
  -21.1981   -7.6118   23.9686 H   0  0  0  0  0  0
  -21.1485   -6.0511   25.9073 H   0  0  0  0  0  0
  -22.0614   -2.7585   23.2851 H   0  0  0  0  0  0
  -22.4034  -11.9875   22.4838 H   0  0  0  0  0  0
  -21.1039  -13.1220   22.2604 H   0  0  0  0  0  0
  -24.6351  -15.8197   20.4884 H   0  0  0  0  0  0
  -26.2480  -15.6125   20.0313 H   0  0  0  0  0  0
  -26.7151  -32.5485   23.1120 H   0  0  0  0  0  0
  -25.0110  -33.9735   25.0474 H   0  0  0  0  0  0
  -22.7061  -31.3033   21.4022 H   0  0  0  0  0  0
  -23.3774  -35.9585   23.3240 H   0  0  0  0  0  0
  -24.3600  -36.8954   22.2061 H   0  0  0  0  0  0
  -23.7187  -37.6449   23.6683 H   0  0  0  0  0  0
  -26.0784  -31.5720   20.6029 H   0  0  0  0  0  0
  -26.8336  -30.8555   21.9980 H   0  0  0  0  0  0
  -28.1126  -29.0259   21.1958 H   0  0  0  0  0  0
  -26.0349  -25.9493   19.0005 H   0  0  0  0  0  0
  -23.9855  -27.3038   19.0086 H   0  0  0  0  0  0
  -23.7400  -30.5902   19.3999 H   0  0  0  0  0  0
  -22.7521  -29.2386   19.8637 H   0  0  0  0  0  0
  -25.1263  -36.1926   25.0828 H   0  0  0  0  0  0
  -20.9987  -28.3236   24.1410 H   0  0  0  0  0  0
  -20.5671  -26.2279   23.3591 H   0  0  0  0  0  0
  -21.6638  -26.7432   22.1206 H   0  0  0  0  0  0
  -19.6918  -25.6286   21.1223 H   0  0  0  0  0  0
  -19.6699  -27.3178   20.6725 H   0  0  0  0  0  0
  -17.4210  -26.6682   21.3998 H   0  0  0  0  0  0
  -18.0329  -26.0048   22.9000 H   0  0  0  0  0  0
  -19.7943  -30.7252   24.2249 H   0  0  0  0  0  0
  -17.5030  -31.6262   24.5151 H   0  0  0  0  0  0
  -15.5353  -30.2974   23.7663 H   0  0  0  0  0  0
  -15.8679  -28.0805   22.7077 H   0  0  0  0  0  0
  -24.5905  -30.7053   25.7785 H   0  0  0  0  0  0
  -24.8948  -32.2854   26.4918 H   0  0  0  0  0  0
  -25.8089  -30.8840   27.0209 H   0  0  0  0  0  0
  -26.2893  -29.6750   24.1186 H   0  0  0  0  0  0
  -27.4106  -29.7261   25.4592 H   0  0  0  0  0  0
  -27.8732  -30.4318   23.9291 H   0  0  0  0  0  0
  -27.2685  -33.3595   26.2071 H   0  0  0  0  0  0
  -28.3880  -32.6841   25.0322 H   0  0  0  0  0  0
  -28.0720  -31.8407   26.5401 H   0  0  0  0  0  0
  -28.2524  -38.0155   24.7626 H   0  0  0  0  0  0
  -28.1167  -36.2693   24.6095 H   0  0  0  0  0  0
  -27.2339  -37.1203   25.8852 H   0  0  0  0  0  0
  -20.9349  -29.8743   21.6888 H   0  0  0  0  0  0
  -26.0146  -38.2846   24.1515 H   0  0  0  0  0  0
  -27.9351  -22.9092   19.3562 H   0  0  0  0  0  0
  -29.2647  -23.7811   18.6493 H   0  0  0  0  0  0
  -29.0581  -23.6100   22.9322 H   0  0  0  0  0  0
  -27.8141  -22.7972   22.0293 H   0  0  0  0  0  0
  -30.8896  -22.1359   19.5287 H   0  0  0  0  0  0
  -29.6684  -21.3273   18.5859 H   0  0  0  0  0  0
  -29.4524  -21.1723   22.8760 H   0  0  0  0  0  0
  -30.7686  -22.0341   22.1254 H   0  0  0  0  0  0
  -27.8560  -18.2568   20.0287 H   0  0  0  0  0  0
  -29.2213  -18.0770   18.9330 H   0  0  0  0  0  0
  -28.7435  -15.8486   19.1028 H   0  0  0  0  0  0
  -27.9885  -15.9968   20.7125 H   0  0  0  0  0  0
  -31.2660  -17.0457   22.0604 H   0  0  0  0  0  0
  -31.6112  -17.2454   20.3488 H   0  0  0  0  0  0
  -30.1180  -24.4261   20.8716 H   0  0  0  0  0  0
  -28.5011  -20.5881   20.6498 H   0  0  0  0  0  0
  -29.2775  -18.3759   21.9439 H   0  0  0  0  0  0
  -28.0337  -25.5561   21.9281 H   0  0  0  0  0  0
  -27.1056  -24.8674   20.6488 H   0  0  0  0  0  0
  -31.1528  -19.8296   21.3967 H   0  0  0  0  0  0
  -30.8739  -19.6286   19.8232 H   0  0  0  0  0  0
  1 25  1  0  0  0
  1 30  2  0  0  0
  1 82  1  0  0  0
  2  3  1  0  0  0
  2 25  1  0  0  0
  2 84  1  0  0  0
  2 85  1  0  0  0
  3  4  1  0  0  0
  3 86  1  0  0  0
  3 87  1  0  0  0
  4  5  1  0  0  0
  4 88  1  0  0  0
  4 89  1  0  0  0
  5  6  1  0  0  0
  5 26  1  0  0  0
  5 90  1  0  0  0
  6 25  1  0  0  0
  6 91  1  0  0  0
  6 92  1  0  0  0
  7  8  2  0  0  0
  7 26  1  0  0  0
  7 29  1  0  0  0
  8  9  1  0  0  0
  8 22  1  0  0  0
  9 10  1  0  0  0
  9 27  2  0  0  0
 10 11  2  0  0  0
 10 15  1  0  0  0
 11 12  1  0  0  0
 11 93  1  0  0  0
 12 13  2  0  0  0
 12 94  1  0  0  0
 13 14  1  0  0  0
 13 31  1  0  0  0
 14 15  2  0  0  0
 14 95  1  0  0  0
 15 96  1  0  0  0
 16 17  2  0  0  0
 16 21  1  0  0  0
 16 31  1  0  0  0
 17 18  1  0  0  0
 17 97  1  0  0  0
 18 19  2  0  0  0
 18 98  1  0  0  0
 19 20  1  0  0  0
 19 24  1  0  0  0
 20 21  2  0  0  0
 20 99  1  0  0  0
 21 23  1  0  0  0
 22 28  1  0  0  0
 22 32  2  0  0  0
 26 27  1  0  0  0
 28100  1  0  0  0
 28101  1  0  0  0
 29102  1  0  0  0
 29103  1  0  0  0
 33 34  1  0  0  0
 33 66  1  0  0  0
 33 70  2  0  0  0
 34 36  1  0  0  0
 34 59  1  0  0  0
 34104  1  0  0  0
 35 44  2  0  0  0
 35 45  1  0  0  0
 35 68  1  0  0  0
 36 56  1  0  0  0
 36105  1  0  0  0
 37 39  1  0  0  0
 37 47  1  0  0  0
 37 66  1  0  0  0
 37106  1  0  0  0
 38 43  2  0  0  0
 38 46  1  0  0  0
 38 47  1  0  0  0
 39 64  1  0  0  0
 39 67  2  0  0  0
 40 52  1  0  0  0
 40 53  2  0  0  0
 40 58  1  0  0  0
 41107  1  0  0  0
 41108  1  0  0  0
 41109  1  0  0  0
 41 48  1  0  0  0
 42 43  1  0  0  0
 42 66  1  0  0  0
 42110  1  0  0  0
 42111  1  0  0  0
 43 44  1  0  0  0
 44112  1  0  0  0
 45 46  2  0  0  0
 45113  1  0  0  0
 46114  1  0  0  0
 47115  1  0  0  0
 47116  1  0  0  0
 48 56  1  0  0  0
 48 65  1  0  0  0
 48117  1  0  0  0
 49 50  1  0  0  0
 49 53  1  0  0  0
 49 64  1  0  0  0
 49118  1  0  0  0
 50 51  1  0  0  0
 50119  1  0  0  0
 50120  1  0  0  0
 51 52  1  0  0  0
 51121  1  0  0  0
 51122  1  0  0  0
 52123  1  0  0  0
 52124  1  0  0  0
 53 54  1  0  0  0
 54 55  2  0  0  0
 54125  1  0  0  0
 55 57  1  0  0  0
 55126  1  0  0  0
 56 69  2  0  0  0
 57 58  2  0  0  0
 57127  1  0  0  0
 58128  1  0  0  0
 59 60  1  0  0  0
 59 61  1  0  0  0
 59 62  1  0  0  0
 60129  1  0  0  0
 60130  1  0  0  0
 60131  1  0  0  0
 61132  1  0  0  0
 61133  1  0  0  0
 61134  1  0  0  0
 62135  1  0  0  0
 62136  1  0  0  0
 62137  1  0  0  0
 63 65  1  0  0  0
 63138  1  0  0  0
 63139  1  0  0  0
 63140  1  0  0  0
 64141  1  0  0  0
 65142  1  0  0  0
 68 81  1  0  0  0
 71 73  1  0  0  0
 71 78  1  0  0  0
 71143  1  0  0  0
 71144  1  0  0  0
 72 74  1  0  0  0
 72 78  1  0  0  0
 72145  1  0  0  0
 72146  1  0  0  0
 73 79  1  0  0  0
 73147  1  0  0  0
 73148  1  0  0  0
 74 79  1  0  0  0
 74149  1  0  0  0
 74150  1  0  0  0
 75 76  1  0  0  0
 75 80  1  0  0  0
 75151  1  0  0  0
 75152  1  0  0  0
 76 82  1  0  0  0
 76153  1  0  0  0
 76154  1  0  0  0
 77 80  1  0  0  0
 77 82  1  0  0  0
 77155  1  0  0  0
 77156  1  0  0  0
 78 81  1  0  0  0
 78157  1  0  0  0
 79 83  1  0  0  0
 79158  1  0  0  0
 80 83  1  0  0  0
 80159  1  0  0  0
 81160  1  0  0  0
 81161  1  0  0  0
 83162  1  0  0  0
 83163  1  0  0  0
M  CHG  1  83   1
M  ISO  4   1 100  68 101  81 101  82 100
M  END
> <chiral flag>
0

> <version>
0

> <s_m_source_file>
/data/baiqing/PycharmProjects/Reinvent-master-3.2/result/LINK_invent/BTK/process_docking_weight1_custom_sum_contain_oxygen_bond_distance_aromatic_linkinvent_7_9_3/rearranged_h_0126.sdf

> <i_m_source_file_index>
71

> <r_mmod_Potential_Energy-OPLS-2005>
141.546493530273

> <r_mmod_Stretch_Energy-OPLS-2005>
63.830738067627

> <r_mmod_Bend_Energy-OPLS-2005>
158.06364440918

> <r_mmod_Torsional_Energy-OPLS-2005>
376.455383300781

> <r_mmod_Improper_Torsional_Energy-OPLS-2005>
5.82234859466553

> <r_mmod_Van_der_Waal_Energy-OPLS-2005>
128.212707519531

> <r_mmod_Electrostatic_Energy-OPLS-2005>
-189.760620117188

> <r_mmod_Solvation_Energy-OPLS-2005>
-453.3515625

> <b_mmod_Minimization_Converged-OPLS-2005>
0

> <r_mmod_RMS_Derivative-OPLS-2005>
1.73960649967194

$$$$
71
                    3D
 Structure written by MMmdl.
172182  0  0  1  0            999 V2000
  -30.6133  -14.7097   20.4514 C   0  0  0  0  0  0
  -30.4329  -12.4290   19.4717 C   0  0  0  0  0  0
  -29.5120  -12.5262   18.2337 C   0  0  0  0  0  0
  -28.0353  -12.3541   18.6395 C   0  0  0  0  0  0
  -27.6468  -13.2314   19.8589 C   0  0  2  0  0  0
  -28.6936  -13.1336   20.9940 C   0  0  0  0  0  0
  -25.2513  -13.8189   20.5693 C   0  0  0  0  0  0
  -24.1793  -13.0435   20.9204 C   0  0  0  0  0  0
  -24.6383  -11.6916   20.8743 C   0  0  0  0  0  0
  -23.9048  -10.4298   21.0419 C   0  0  0  0  0  0
  -24.3616   -9.4220   21.9198 C   0  0  0  0  0  0
  -23.6314   -8.2233   22.0753 C   0  0  0  0  0  0
  -22.4291   -8.0268   21.3541 C   0  0  0  0  0  0
  -21.9923   -9.0230   20.4637 C   0  0  0  0  0  0
  -22.7227  -10.2121   20.3061 C   0  0  0  0  0  0
  -21.6843   -6.0751   22.5300 C   0  0  0  0  0  0
  -21.4001   -6.5653   23.8233 C   0  0  0  0  0  0
  -21.3662   -5.6791   24.9194 C   0  0  0  0  0  0
  -21.6050   -4.3054   24.7228 C   0  0  0  0  0  0
  -21.8820   -3.8153   23.4334 C   0  0  0  0  0  0
  -21.9185   -4.6979   22.3403 C   0  0  0  0  0  0
  -22.7815  -13.5226   21.1863 C   0  0  0  0  0  0
  -22.1662   -4.2183   21.0973 F   0  0  0  0  0  0
  -21.5639   -3.4523   25.7724 F   0  0  0  0  0  0
  -30.0042  -13.4771   20.4240 N   0  0  0  0  0  0
  -26.2952  -12.9395   20.3291 N   0  0  0  0  0  0
  -25.9318  -11.6543   20.5735 N   0  0  0  0  0  0
  -22.0430  -12.8226   22.0392 N   0  0  0  0  0  0
  -25.4174  -15.1905   20.4113 N   0  0  0  0  0  0
  -31.7804  -14.8425   20.0739 O   0  0  0  0  0  0
  -21.6635   -6.8881   21.4258 O   0  0  0  0  0  0
  -22.3518  -14.5559   20.6729 O   0  0  0  0  0  0
  -24.6311  -31.8573   23.2019 C   0  0  0  0  0  0
  -25.9143  -32.4757   23.8365 C   0  0  1  0  0  0
  -27.2201  -27.2750   20.1125 C   0  0  0  0  0  0
  -25.5955  -33.8560   24.2278 N   0  0  0  0  0  0
  -23.4278  -30.4834   21.5445 C   0  0  2  0  0  0
  -24.8739  -28.9392   20.1104 C   0  0  0  0  0  0
  -22.7513  -29.4605   22.4903 C   0  0  0  0  0  0
  -18.0287  -28.1384   22.8474 C   0  0  0  0  0  0
  -24.1489  -36.7277   23.2639 C   0  0  0  0  0  0
  -25.9763  -30.7736   21.3819 C   0  0  0  0  0  0
  -26.0489  -29.3997   20.7180 C   0  0  0  0  0  0
  -27.2253  -28.5814   20.7076 C   0  0  0  0  0  0
  -26.0130  -26.8851   19.4823 C   0  0  0  0  0  0
  -24.8612  -27.6880   19.4828 C   0  0  0  0  0  0
  -23.6461  -29.8250   20.1591 C   0  0  0  0  0  0
  -25.4113  -36.3064   24.0330 C   0  0  1  0  0  0
  -20.5899  -28.3687   23.1269 C   0  0  2  0  0  0
  -20.6771  -26.9405   22.5397 C   0  0  0  0  0  0
  -19.5749  -26.6383   21.5202 C   0  0  0  0  0  0
  -18.1929  -26.7928   22.1614 C   0  0  0  0  0  0
  -19.1546  -28.8853   23.2865 C   0  0  0  0  0  0
  -18.9465  -30.1454   23.8876 C   0  0  0  0  0  0
  -17.6465  -30.6581   24.0558 C   0  0  0  0  0  0
  -25.9058  -34.9439   23.5101 C   0  0  0  0  0  0
  -16.5354  -29.9074   23.6336 C   0  0  0  0  0  0
  -16.7275  -28.6497   23.0350 C   0  0  0  0  0  0
  -26.4505  -31.6579   25.0747 C   0  0  0  0  0  0
  -25.3745  -31.3726   26.1477 C   0  0  0  0  0  0
  -27.0357  -30.2998   24.6228 C   0  0  0  0  0  0
  -27.6059  -32.4324   25.7529 C   0  0  0  0  0  0
  -27.5581  -37.1796   24.8459 C   0  0  0  0  0  0
  -21.4219  -29.3040   22.3666 N   0  0  0  0  0  0
  -26.4283  -37.3768   23.9415 N   0  0  0  0  0  0
  -24.6977  -31.0554   22.0983 N   0  0  0  0  0  0
  -23.4221  -28.8135   23.2987 O   0  0  0  0  0  0
  -28.3151  -26.3751   20.1545 O   0  0  0  0  0  0
  -26.5615  -34.8912   22.4656 O   0  0  0  0  0  0
  -23.5466  -32.1380   23.7323 O   0  0  0  0  0  0
  -32.8102  -22.4973   21.9308 C   0  0  0  0  0  0
  -32.9091  -21.1912   21.1732 C   0  0  0  0  0  0
  -29.6458  -23.3198   21.4448 C   0  0  0  0  0  0
  -28.5658  -22.2627   19.6520 C   0  0  0  0  0  0
  -27.7055  -19.6744   21.1426 C   0  0  0  0  0  0
  -27.8293  -19.9571   22.6595 C   0  0  0  0  0  0
  -29.5254  -18.1732   22.4597 C   0  0  0  0  0  0
  -31.7846  -22.1524   20.8806 C   0  0  0  0  0  0
  -30.3320  -21.9219   21.2854 C   0  0  2  0  0  0
  -29.0811  -23.7019   20.0682 C   0  0  1  0  0  0
  -29.5572  -21.1311   20.1835 C   0  0  1  0  0  0
  -29.8745  -18.5585   20.9871 C   0  0  1  0  0  0
  -28.0192  -24.9133   19.9858 C   0  0  0  0  0  0
  -29.8978  -17.2192   20.0741 C   0  0  0  0  0  0
  -29.0197  -19.7280   20.4837 N   0  0  0  0  0  0
  -29.8141  -15.8133   20.6723 N   0  0  0  0  0  0
  -29.0398  -19.3267   23.2403 N   0  3  0  0  0  0
  -31.4778  -12.5416   19.1759 H   0  0  0  0  0  0
  -30.3550  -11.4429   19.9333 H   0  0  0  0  0  0
  -29.7900  -11.7725   17.4968 H   0  0  0  0  0  0
  -29.6478  -13.4932   17.7438 H   0  0  0  0  0  0
  -27.8789  -11.3012   18.8753 H   0  0  0  0  0  0
  -27.3815  -12.5748   17.7940 H   0  0  0  0  0  0
  -27.6495  -14.2605   19.5005 H   0  0  0  0  0  0
  -28.7172  -12.1251   21.4104 H   0  0  0  0  0  0
  -28.4342  -13.7965   21.8201 H   0  0  0  0  0  0
  -25.2768   -9.5715   22.4762 H   0  0  0  0  0  0
  -24.0046   -7.4628   22.7464 H   0  0  0  0  0  0
  -21.0857   -8.8732   19.8931 H   0  0  0  0  0  0
  -22.3688  -10.9657   19.6160 H   0  0  0  0  0  0
  -21.1986   -7.6163   23.9754 H   0  0  0  0  0  0
  -21.1488   -6.0512   25.9104 H   0  0  0  0  0  0
  -22.0590   -2.7618   23.2806 H   0  0  0  0  0  0
  -22.4008  -11.9890   22.4816 H   0  0  0  0  0  0
  -21.1042  -13.1274   22.2564 H   0  0  0  0  0  0
  -24.6338  -15.8310   20.4888 H   0  0  0  0  0  0
  -26.2512  -15.6250   20.0397 H   0  0  0  0  0  0
  -26.7211  -32.5409   23.1117 H   0  0  0  0  0  0
  -25.0151  -33.9706   25.0457 H   0  0  0  0  0  0
  -22.7228  -31.3054   21.4014 H   0  0  0  0  0  0
  -23.3763  -35.9596   23.3277 H   0  0  0  0  0  0
  -24.3593  -36.8921   22.2061 H   0  0  0  0  0  0
  -23.7219  -37.6465   23.6670 H   0  0  0  0  0  0
  -26.1218  -31.5381   20.6174 H   0  0  0  0  0  0
  -26.8518  -30.8160   22.0188 H   0  0  0  0  0  0
  -28.1255  -28.9324   21.1940 H   0  0  0  0  0  0
  -25.9090  -25.9366   18.9826 H   0  0  0  0  0  0
  -23.9626  -27.3257   19.0021 H   0  0  0  0  0  0
  -23.7732  -30.6042   19.4064 H   0  0  0  0  0  0
  -22.7639  -29.2609   19.8505 H   0  0  0  0  0  0
  -25.1283  -36.1921   25.0823 H   0  0  0  0  0  0
  -20.9991  -28.3246   24.1392 H   0  0  0  0  0  0
  -20.5667  -26.2293   23.3595 H   0  0  0  0  0  0
  -21.6640  -26.7418   22.1198 H   0  0  0  0  0  0
  -19.6907  -25.6289   21.1240 H   0  0  0  0  0  0
  -19.6703  -27.3187   20.6727 H   0  0  0  0  0  0
  -17.4207  -26.6678   21.4013 H   0  0  0  0  0  0
  -18.0327  -26.0070   22.9011 H   0  0  0  0  0  0
  -19.7944  -30.7275   24.2241 H   0  0  0  0  0  0
  -17.5019  -31.6262   24.5156 H   0  0  0  0  0  0
  -15.5351  -30.2969   23.7670 H   0  0  0  0  0  0
  -15.8678  -28.0813   22.7062 H   0  0  0  0  0  0
  -24.5916  -30.7066   25.7821 H   0  0  0  0  0  0
  -24.8938  -32.2894   26.4904 H   0  0  0  0  0  0
  -25.8085  -30.8918   27.0253 H   0  0  0  0  0  0
  -26.2938  -29.6757   24.1229 H   0  0  0  0  0  0
  -27.4013  -29.7246   25.4742 H   0  0  0  0  0  0
  -27.8832  -30.4270   23.9492 H   0  0  0  0  0  0
  -27.2651  -33.3635   26.2073 H   0  0  0  0  0  0
  -28.3896  -32.6866   25.0381 H   0  0  0  0  0  0
  -28.0692  -31.8471   26.5479 H   0  0  0  0  0  0
  -28.2563  -38.0127   24.7532 H   0  0  0  0  0  0
  -28.1110  -36.2654   24.6240 H   0  0  0  0  0  0
  -27.2311  -37.1395   25.8865 H   0  0  0  0  0  0
  -20.9393  -29.8824   21.6933 H   0  0  0  0  0  0
  -26.0159  -38.2841   24.1424 H   0  0  0  0  0  0
  -33.5184  -23.2893   21.6915 H   0  0  0  0  0  0
  -32.4990  -22.4521   22.9734 H   0  0  0  0  0  0
  -32.6815  -20.2756   21.7135 H   0  0  0  0  0  0
  -33.7083  -21.1123   20.4367 H   0  0  0  0  0  0
  -30.3320  -24.0816   21.8209 H   0  0  0  0  0  0
  -28.8311  -23.2500   22.1660 H   0  0  0  0  0  0
  -28.4228  -22.1884   18.5738 H   0  0  0  0  0  0
  -27.5753  -22.1669   20.0905 H   0  0  0  0  0  0
  -26.9614  -20.3186   20.6802 H   0  0  0  0  0  0
  -27.2986  -18.6710   20.9995 H   0  0  0  0  0  0
  -26.9465  -19.5638   23.1642 H   0  0  0  0  0  0
  -27.8446  -21.0278   22.8613 H   0  0  0  0  0  0
  -30.4005  -17.7394   22.9442 H   0  0  0  0  0  0
  -28.7488  -17.4070   22.4906 H   0  0  0  0  0  0
  -31.8857  -22.6928   19.9396 H   0  0  0  0  0  0
  -30.3263  -21.4022   22.2395 H   0  0  0  0  0  0
  -29.9154  -23.9533   19.4117 H   0  0  0  0  0  0
  -30.2690  -20.9599   19.3729 H   0  0  0  0  0  0
  -30.8987  -18.9342   21.0005 H   0  0  0  0  0  0
  -27.2070  -24.6687   20.6721 H   0  0  0  0  0  0
  -27.6195  -24.8032   18.9784 H   0  0  0  0  0  0
  -30.7760  -17.2683   19.4281 H   0  0  0  0  0  0
  -29.0531  -17.2817   19.3858 H   0  0  0  0  0  0
  -28.8949  -15.5589   21.0026 H   0  0  0  0  0  0
  -28.8589  -19.0571   24.1940 H   0  0  0  0  0  0
  -29.7750  -20.0124   23.2434 H   0  0  0  0  0  0
  1 25  1  0  0  0
  1 30  2  0  0  0
  1 86  1  0  0  0
  2  3  1  0  0  0
  2 25  1  0  0  0
  2 88  1  0  0  0
  2 89  1  0  0  0
  3  4  1  0  0  0
  3 90  1  0  0  0
  3 91  1  0  0  0
  4  5  1  0  0  0
  4 92  1  0  0  0
  4 93  1  0  0  0
  5  6  1  0  0  0
  5 26  1  0  0  0
  5 94  1  0  0  0
  6 25  1  0  0  0
  6 95  1  0  0  0
  6 96  1  0  0  0
  7  8  2  0  0  0
  7 26  1  0  0  0
  7 29  1  0  0  0
  8  9  1  0  0  0
  8 22  1  0  0  0
  9 10  1  0  0  0
  9 27  2  0  0  0
 10 11  2  0  0  0
 10 15  1  0  0  0
 11 12  1  0  0  0
 11 97  1  0  0  0
 12 13  2  0  0  0
 12 98  1  0  0  0
 13 14  1  0  0  0
 13 31  1  0  0  0
 14 15  2  0  0  0
 14 99  1  0  0  0
 15100  1  0  0  0
 16 17  2  0  0  0
 16 21  1  0  0  0
 16 31  1  0  0  0
 17 18  1  0  0  0
 17101  1  0  0  0
 18 19  2  0  0  0
 18102  1  0  0  0
 19 20  1  0  0  0
 19 24  1  0  0  0
 20 21  2  0  0  0
 20103  1  0  0  0
 21 23  1  0  0  0
 22 28  1  0  0  0
 22 32  2  0  0  0
 26 27  1  0  0  0
 28104  1  0  0  0
 28105  1  0  0  0
 29106  1  0  0  0
 29107  1  0  0  0
 33 34  1  0  0  0
 33 66  1  0  0  0
 33 70  2  0  0  0
 34 36  1  0  0  0
 34 59  1  0  0  0
 34108  1  0  0  0
 35 44  2  0  0  0
 35 45  1  0  0  0
 35 68  1  0  0  0
 36 56  1  0  0  0
 36109  1  0  0  0
 37 39  1  0  0  0
 37 47  1  0  0  0
 37 66  1  0  0  0
 37110  1  0  0  0
 38 43  2  0  0  0
 38 46  1  0  0  0
 38 47  1  0  0  0
 39 64  1  0  0  0
 39 67  2  0  0  0
 40 52  1  0  0  0
 40 53  2  0  0  0
 40 58  1  0  0  0
 41111  1  0  0  0
 41112  1  0  0  0
 41113  1  0  0  0
 41 48  1  0  0  0
 42 43  1  0  0  0
 42 66  1  0  0  0
 42114  1  0  0  0
 42115  1  0  0  0
 43 44  1  0  0  0
 44116  1  0  0  0
 45 46  2  0  0  0
 45117  1  0  0  0
 46118  1  0  0  0
 47119  1  0  0  0
 47120  1  0  0  0
 48 56  1  0  0  0
 48 65  1  0  0  0
 48121  1  0  0  0
 49 50  1  0  0  0
 49 53  1  0  0  0
 49 64  1  0  0  0
 49122  1  0  0  0
 50 51  1  0  0  0
 50123  1  0  0  0
 50124  1  0  0  0
 51 52  1  0  0  0
 51125  1  0  0  0
 51126  1  0  0  0
 52127  1  0  0  0
 52128  1  0  0  0
 53 54  1  0  0  0
 54 55  2  0  0  0
 54129  1  0  0  0
 55 57  1  0  0  0
 55130  1  0  0  0
 56 69  2  0  0  0
 57 58  2  0  0  0
 57131  1  0  0  0
 58132  1  0  0  0
 59 60  1  0  0  0
 59 61  1  0  0  0
 59 62  1  0  0  0
 60133  1  0  0  0
 60134  1  0  0  0
 60135  1  0  0  0
 61136  1  0  0  0
 61137  1  0  0  0
 61138  1  0  0  0
 62139  1  0  0  0
 62140  1  0  0  0
 62141  1  0  0  0
 63 65  1  0  0  0
 63142  1  0  0  0
 63143  1  0  0  0
 63144  1  0  0  0
 64145  1  0  0  0
 65146  1  0  0  0
 68 83  1  0  0  0
 71 72  1  0  0  0
 71147  1  0  0  0
 71148  1  0  0  0
 71 78  1  0  0  0
 72 78  1  0  0  0
 72149  1  0  0  0
 72150  1  0  0  0
 73 80  1  0  0  0
 73151  1  0  0  0
 73152  1  0  0  0
 73 79  1  0  0  0
 74 80  1  0  0  0
 74 81  1  0  0  0
 74153  1  0  0  0
 74154  1  0  0  0
 75 76  1  0  0  0
 75155  1  0  0  0
 75156  1  0  0  0
 75 85  1  0  0  0
 76 87  1  0  0  0
 76157  1  0  0  0
 76158  1  0  0  0
 77 82  1  0  0  0
 77 87  1  0  0  0
 77159  1  0  0  0
 77160  1  0  0  0
 78 79  1  0  0  0
 78161  1  0  0  0
 79 81  1  0  0  0
 79162  1  0  0  0
 80 83  1  0  0  0
 80163  1  0  0  0
 81 85  1  0  0  0
 81164  1  0  0  0
 82 84  1  0  0  0
 82 85  1  0  0  0
 82165  1  0  0  0
 83166  1  0  0  0
 83167  1  0  0  0
 84 86  1  0  0  0
 84168  1  0  0  0
 84169  1  0  0  0
 86170  1  0  0  0
 87171  1  0  0  0
 87172  1  0  0  0
M  CHG  1  87   1
M  ISO  4   1 100  68 101  83 101  86 100
M  END
> <chiral flag>
0

> <version>
0

> <s_m_source_file>
/data/baiqing/PycharmProjects/Reinvent-master-3.2/result/LINK_invent/BTK/process_docking_weight1_custom_sum_contain_oxygen_bond_distance_aromatic_linkinvent_7_9_3/rearranged_h_0126.sdf

> <i_m_source_file_index>
72

> <r_mmod_Potential_Energy-OPLS-2005>
163.631362915039

> <r_mmod_Stretch_Energy-OPLS-2005>
122.520698547363

> <r_mmod_Bend_Energy-OPLS-2005>
234.940612792969

> <r_mmod_Torsional_Energy-OPLS-2005>
375.083312988281

> <r_mmod_Improper_Torsional_Energy-OPLS-2005>
7.2867226600647

> <r_mmod_Van_der_Waal_Energy-OPLS-2005>
134.489639282227

> <r_mmod_Electrostatic_Energy-OPLS-2005>
-310.586730957031

> <r_mmod_Solvation_Energy-OPLS-2005>
-473.942352294922

> <b_mmod_Minimization_Converged-OPLS-2005>
0

> <r_mmod_RMS_Derivative-OPLS-2005>
2.82947492599487

$$$$
72
                    3D
 Structure written by MMmdl.
160169  0  0  1  0            999 V2000
  -30.6144  -14.6312   20.4661 C   0  0  0  0  0  0
  -30.4404  -12.3799   19.4388 C   0  0  0  0  0  0
  -29.5119  -12.5103   18.2120 C   0  0  0  0  0  0
  -28.0322  -12.3474   18.6206 C   0  0  0  0  0  0
  -27.6509  -13.2119   19.8524 C   0  0  2  0  0  0
  -28.6978  -13.0679   20.9787 C   0  0  0  0  0  0
  -25.2543  -13.8150   20.5593 C   0  0  0  0  0  0
  -24.1807  -13.0408   20.9156 C   0  0  0  0  0  0
  -24.6390  -11.6890   20.8739 C   0  0  0  0  0  0
  -23.9051  -10.4280   21.0413 C   0  0  0  0  0  0
  -24.3614   -9.4210   21.9182 C   0  0  0  0  0  0
  -23.6291   -8.2253   22.0755 C   0  0  0  0  0  0
  -22.4279   -8.0285   21.3548 C   0  0  0  0  0  0
  -21.9899   -9.0247   20.4652 C   0  0  0  0  0  0
  -22.7230  -10.2126   20.3061 C   0  0  0  0  0  0
  -21.6846   -6.0741   22.5286 C   0  0  0  0  0  0
  -21.4015   -6.5638   23.8225 C   0  0  0  0  0  0
  -21.3659   -5.6783   24.9175 C   0  0  0  0  0  0
  -21.6043   -4.3051   24.7218 C   0  0  0  0  0  0
  -21.8820   -3.8150   23.4343 C   0  0  0  0  0  0
  -21.9195   -4.6968   22.3407 C   0  0  0  0  0  0
  -22.7852  -13.5244   21.1798 C   0  0  0  0  0  0
  -22.1660   -4.2162   21.0982 F   0  0  0  0  0  0
  -21.5613   -3.4534   25.7727 F   0  0  0  0  0  0
  -30.0158  -13.4000   20.4133 N   0  0  0  0  0  0
  -26.2961  -12.9307   20.3237 N   0  0  0  0  0  0
  -25.9309  -11.6470   20.5725 N   0  0  0  0  0  0
  -22.0470  -12.8284   22.0384 N   0  0  0  0  0  0
  -25.4218  -15.1862   20.3924 N   0  0  0  0  0  0
  -31.7978  -14.7958   20.1608 O   0  0  0  0  0  0
  -21.6643   -6.8897   21.4253 O   0  0  0  0  0  0
  -22.3569  -14.5540   20.6634 O   0  0  0  0  0  0
  -24.6242  -31.8608   23.2062 C   0  0  0  0  0  0
  -25.9094  -32.4801   23.8368 C   0  0  1  0  0  0
  -27.2269  -27.3253   20.1224 C   0  0  0  0  0  0
  -25.5933  -33.8599   24.2298 N   0  0  0  0  0  0
  -23.4171  -30.4920   21.5411 C   0  0  2  0  0  0
  -24.8689  -28.9481   20.1092 C   0  0  0  0  0  0
  -22.7467  -29.4644   22.4846 C   0  0  0  0  0  0
  -18.0316  -28.1351   22.8504 C   0  0  0  0  0  0
  -24.1474  -36.7306   23.2642 C   0  0  0  0  0  0
  -25.9608  -30.7929   21.3772 C   0  0  0  0  0  0
  -26.0369  -29.4228   20.7194 C   0  0  0  0  0  0
  -27.2178  -28.6236   20.7180 C   0  0  0  0  0  0
  -26.0354  -26.9021   19.4848 C   0  0  0  0  0  0
  -24.8727  -27.6926   19.4840 C   0  0  0  0  0  0
  -23.6366  -29.8302   20.1553 C   0  0  0  0  0  0
  -25.4110  -36.3116   24.0341 C   0  0  1  0  0  0
  -20.5925  -28.3659   23.1251 C   0  0  2  0  0  0
  -20.6772  -26.9351   22.5399 C   0  0  0  0  0  0
  -19.5753  -26.6350   21.5183 C   0  0  0  0  0  0
  -18.1938  -26.7910   22.1596 C   0  0  0  0  0  0
  -19.1569  -28.8819   23.2888 C   0  0  0  0  0  0
  -18.9484  -30.1426   23.8890 C   0  0  0  0  0  0
  -17.6476  -30.6558   24.0541 C   0  0  0  0  0  0
  -25.9048  -34.9482   23.5122 C   0  0  0  0  0  0
  -16.5371  -29.9047   23.6323 C   0  0  0  0  0  0
  -16.7298  -28.6461   23.0367 C   0  0  0  0  0  0
  -26.4480  -31.6639   25.0757 C   0  0  0  0  0  0
  -25.3688  -31.3811   26.1478 C   0  0  0  0  0  0
  -27.0326  -30.3069   24.6224 C   0  0  0  0  0  0
  -27.6047  -32.4381   25.7531 C   0  0  0  0  0  0
  -27.5573  -37.1816   24.8476 C   0  0  0  0  0  0
  -21.4179  -29.3026   22.3608 N   0  0  0  0  0  0
  -26.4289  -37.3802   23.9427 N   0  0  0  0  0  0
  -24.6858  -31.0659   22.0988 N   0  0  0  0  0  0
  -23.4222  -28.8136   23.2857 O   0  0  0  0  0  0
  -28.3433  -26.4758   20.1829 O   0  0  0  0  0  0
  -26.5594  -34.8934   22.4668 O   0  0  0  0  0  0
  -23.5414  -32.1378   23.7405 O   0  0  0  0  0  0
  -30.8619  -19.3447   20.8698 C   0  0  0  0  0  0
  -28.8335  -19.2135   19.5845 C   0  0  0  0  0  0
  -30.8801  -17.9228   21.0058 C   0  0  0  0  0  0
  -28.8395  -17.7976   19.7339 C   0  0  0  0  0  0
  -29.8399  -20.0307   20.1535 C   0  0  0  0  0  0
  -29.8613  -17.1105   20.4412 C   0  0  0  0  0  0
  -28.1701  -23.2825   22.6928 C   0  0  0  0  0  0
  -29.2777  -24.1945   22.1614 C   0  0  0  0  0  0
  -28.3520  -22.0350   21.8260 C   0  0  0  0  0  0
  -29.1851  -23.9906   20.6392 C   0  0  2  0  0  0
  -29.9022  -21.5896   19.9158 C   0  0  0  0  0  0
  -28.1074  -25.0179   20.0554 C   0  0  0  0  0  0
  -29.7441  -15.6703   20.6400 N   0  0  0  0  0  0
  -28.8347  -22.5031   20.4973 N   0  3  1  0  0  0
  -31.4831  -12.5060   19.1379 H   0  0  0  0  0  0
  -30.3697  -11.3798   19.8683 H   0  0  0  0  0  0
  -29.7819  -11.7784   17.4502 H   0  0  0  0  0  0
  -29.6543  -13.4924   17.7583 H   0  0  0  0  0  0
  -27.8622  -11.2914   18.8371 H   0  0  0  0  0  0
  -27.3852  -12.5931   17.7785 H   0  0  0  0  0  0
  -27.6665  -14.2462   19.5062 H   0  0  0  0  0  0
  -28.7021  -12.0474   21.3651 H   0  0  0  0  0  0
  -28.4483  -13.7107   21.8264 H   0  0  0  0  0  0
  -25.2761   -9.5684   22.4739 H   0  0  0  0  0  0
  -23.9998   -7.4649   22.7476 H   0  0  0  0  0  0
  -21.0825   -8.8768   19.8968 H   0  0  0  0  0  0
  -22.3693  -10.9648   19.6173 H   0  0  0  0  0  0
  -21.2030   -7.6146   23.9738 H   0  0  0  0  0  0
  -21.1462   -6.0505   25.9080 H   0  0  0  0  0  0
  -22.0608   -2.7612   23.2832 H   0  0  0  0  0  0
  -22.4036  -11.9972   22.4854 H   0  0  0  0  0  0
  -21.1078  -13.1350   22.2507 H   0  0  0  0  0  0
  -24.6355  -15.8248   20.4562 H   0  0  0  0  0  0
  -26.2519  -15.6250   20.0174 H   0  0  0  0  0  0
  -26.7151  -32.5466   23.1098 H   0  0  0  0  0  0
  -25.0170  -33.9752   25.0512 H   0  0  0  0  0  0
  -22.7121  -31.3164   21.3990 H   0  0  0  0  0  0
  -23.3756  -35.9614   23.3335 H   0  0  0  0  0  0
  -24.3553  -36.8895   22.2046 H   0  0  0  0  0  0
  -23.7167  -37.6499   23.6633 H   0  0  0  0  0  0
  -26.0933  -31.5498   20.6028 H   0  0  0  0  0  0
  -26.8431  -30.8433   22.0036 H   0  0  0  0  0  0
  -28.1068  -28.9770   21.2223 H   0  0  0  0  0  0
  -25.9662  -25.9418   18.9957 H   0  0  0  0  0  0
  -23.9798  -27.3219   19.0036 H   0  0  0  0  0  0
  -23.7558  -30.6125   19.4021 H   0  0  0  0  0  0
  -22.7552  -29.2687   19.8426 H   0  0  0  0  0  0
  -25.1246  -36.1994   25.0824 H   0  0  0  0  0  0
  -21.0081  -28.3242   24.1345 H   0  0  0  0  0  0
  -20.5610  -26.2226   23.3584 H   0  0  0  0  0  0
  -21.6633  -26.7313   22.1184 H   0  0  0  0  0  0
  -19.6874  -25.6262   21.1193 H   0  0  0  0  0  0
  -19.6732  -27.3158   20.6726 H   0  0  0  0  0  0
  -17.4186  -26.6723   21.4007 H   0  0  0  0  0  0
  -18.0331  -26.0027   22.8964 H   0  0  0  0  0  0
  -19.7962  -30.7255   24.2240 H   0  0  0  0  0  0
  -17.5032  -31.6247   24.5111 H   0  0  0  0  0  0
  -15.5373  -30.2915   23.7668 H   0  0  0  0  0  0
  -15.8713  -28.0760   22.7096 H   0  0  0  0  0  0
  -24.5917  -30.7078   25.7851 H   0  0  0  0  0  0
  -24.8810  -32.2970   26.4827 H   0  0  0  0  0  0
  -25.7997  -30.9095   27.0308 H   0  0  0  0  0  0
  -26.2904  -29.6868   24.1191 H   0  0  0  0  0  0
  -27.3940  -29.7306   25.4755 H   0  0  0  0  0  0
  -27.8794  -30.4394   23.9489 H   0  0  0  0  0  0
  -27.2694  -33.3745   26.2007 H   0  0  0  0  0  0
  -28.3913  -32.6844   25.0386 H   0  0  0  0  0  0
  -28.0605  -31.8542   26.5540 H   0  0  0  0  0  0
  -28.2590  -38.0117   24.7526 H   0  0  0  0  0  0
  -28.1053  -36.2640   24.6279 H   0  0  0  0  0  0
  -27.2287  -37.1429   25.8879 H   0  0  0  0  0  0
  -20.9291  -29.8808   21.6900 H   0  0  0  0  0  0
  -26.0196  -38.2871   24.1476 H   0  0  0  0  0  0
  -31.6640  -19.9172   21.3186 H   0  0  0  0  0  0
  -28.0408  -19.6661   19.0072 H   0  0  0  0  0  0
  -31.6734  -17.4614   21.5772 H   0  0  0  0  0  0
  -28.0374  -17.2380   19.2689 H   0  0  0  0  0  0
  -27.1821  -23.7149   22.5234 H   0  0  0  0  0  0
  -28.2428  -23.0748   23.7620 H   0  0  0  0  0  0
  -30.2440  -23.8416   22.5292 H   0  0  0  0  0  0
  -29.1796  -25.2391   22.4670 H   0  0  0  0  0  0
  -27.4439  -21.4372   21.7308 H   0  0  0  0  0  0
  -29.1046  -21.4107   22.3109 H   0  0  0  0  0  0
  -30.1434  -24.1995   20.1620 H   0  0  0  0  0  0
  -29.9379  -21.7559   18.8382 H   0  0  0  0  0  0
  -30.8701  -21.9329   20.2839 H   0  0  0  0  0  0
  -27.1758  -24.8066   20.5801 H   0  0  0  0  0  0
  -27.9198  -24.7856   19.0065 H   0  0  0  0  0  0
  -28.7976  -15.3340   20.7387 H   0  0  0  0  0  0
  -28.0546  -22.4368   19.8585 H   0  0  0  0  0  0
  1 25  1  0  0  0
  1 30  2  0  0  0
  1 83  1  0  0  0
  2  3  1  0  0  0
  2 25  1  0  0  0
  2 85  1  0  0  0
  2 86  1  0  0  0
  3  4  1  0  0  0
  3 87  1  0  0  0
  3 88  1  0  0  0
  4  5  1  0  0  0
  4 89  1  0  0  0
  4 90  1  0  0  0
  5  6  1  0  0  0
  5 26  1  0  0  0
  5 91  1  0  0  0
  6 25  1  0  0  0
  6 92  1  0  0  0
  6 93  1  0  0  0
  7  8  2  0  0  0
  7 26  1  0  0  0
  7 29  1  0  0  0
  8  9  1  0  0  0
  8 22  1  0  0  0
  9 10  1  0  0  0
  9 27  2  0  0  0
 10 11  2  0  0  0
 10 15  1  0  0  0
 11 12  1  0  0  0
 11 94  1  0  0  0
 12 13  2  0  0  0
 12 95  1  0  0  0
 13 14  1  0  0  0
 13 31  1  0  0  0
 14 15  2  0  0  0
 14 96  1  0  0  0
 15 97  1  0  0  0
 16 17  2  0  0  0
 16 21  1  0  0  0
 16 31  1  0  0  0
 17 18  1  0  0  0
 17 98  1  0  0  0
 18 19  2  0  0  0
 18 99  1  0  0  0
 19 20  1  0  0  0
 19 24  1  0  0  0
 20 21  2  0  0  0
 20100  1  0  0  0
 21 23  1  0  0  0
 22 28  1  0  0  0
 22 32  2  0  0  0
 26 27  1  0  0  0
 28101  1  0  0  0
 28102  1  0  0  0
 29103  1  0  0  0
 29104  1  0  0  0
 33 34  1  0  0  0
 33 66  1  0  0  0
 33 70  2  0  0  0
 34 36  1  0  0  0
 34 59  1  0  0  0
 34105  1  0  0  0
 35 44  2  0  0  0
 35 45  1  0  0  0
 35 68  1  0  0  0
 36 56  1  0  0  0
 36106  1  0  0  0
 37 39  1  0  0  0
 37 47  1  0  0  0
 37 66  1  0  0  0
 37107  1  0  0  0
 38 43  2  0  0  0
 38 46  1  0  0  0
 38 47  1  0  0  0
 39 64  1  0  0  0
 39 67  2  0  0  0
 40 52  1  0  0  0
 40 53  2  0  0  0
 40 58  1  0  0  0
 41108  1  0  0  0
 41109  1  0  0  0
 41110  1  0  0  0
 41 48  1  0  0  0
 42 43  1  0  0  0
 42 66  1  0  0  0
 42111  1  0  0  0
 42112  1  0  0  0
 43 44  1  0  0  0
 44113  1  0  0  0
 45 46  2  0  0  0
 45114  1  0  0  0
 46115  1  0  0  0
 47116  1  0  0  0
 47117  1  0  0  0
 48 56  1  0  0  0
 48 65  1  0  0  0
 48118  1  0  0  0
 49 50  1  0  0  0
 49 53  1  0  0  0
 49 64  1  0  0  0
 49119  1  0  0  0
 50 51  1  0  0  0
 50120  1  0  0  0
 50121  1  0  0  0
 51 52  1  0  0  0
 51122  1  0  0  0
 51123  1  0  0  0
 52124  1  0  0  0
 52125  1  0  0  0
 53 54  1  0  0  0
 54 55  2  0  0  0
 54126  1  0  0  0
 55 57  1  0  0  0
 55127  1  0  0  0
 56 69  2  0  0  0
 57 58  2  0  0  0
 57128  1  0  0  0
 58129  1  0  0  0
 59 60  1  0  0  0
 59 61  1  0  0  0
 59 62  1  0  0  0
 60130  1  0  0  0
 60131  1  0  0  0
 60132  1  0  0  0
 61133  1  0  0  0
 61134  1  0  0  0
 61135  1  0  0  0
 62136  1  0  0  0
 62137  1  0  0  0
 62138  1  0  0  0
 63 65  1  0  0  0
 63139  1  0  0  0
 63140  1  0  0  0
 63141  1  0  0  0
 64142  1  0  0  0
 65143  1  0  0  0
 68 82  1  0  0  0
 71 73  2  0  0  0
 71 75  1  0  0  0
 71144  1  0  0  0
 72 74  1  0  0  0
 72 75  2  0  0  0
 72145  1  0  0  0
 73 76  1  0  0  0
 73146  1  0  0  0
 74 76  2  0  0  0
 74147  1  0  0  0
 75 81  1  0  0  0
 76 83  1  0  0  0
 77 78  1  0  0  0
 77 79  1  0  0  0
 77148  1  0  0  0
 77149  1  0  0  0
 78 80  1  0  0  0
 78150  1  0  0  0
 78151  1  0  0  0
 79 84  1  0  0  0
 79152  1  0  0  0
 79153  1  0  0  0
 80 82  1  0  0  0
 80 84  1  0  0  0
 80154  1  0  0  0
 81155  1  0  0  0
 81156  1  0  0  0
 81 84  1  0  0  0
 82157  1  0  0  0
 82158  1  0  0  0
 83159  1  0  0  0
 84160  1  0  0  0
M  CHG  1  84   1
M  ISO  4   1 100  68 101  82 101  83 100
M  END
> <chiral flag>
0

> <version>
0

> <s_m_source_file>
/data/baiqing/PycharmProjects/Reinvent-master-3.2/result/LINK_invent/BTK/process_docking_weight1_custom_sum_contain_oxygen_bond_distance_aromatic_linkinvent_7_9_3/rearranged_h_0126.sdf

> <i_m_source_file_index>
73

> <r_mmod_Potential_Energy-OPLS-2005>
66.4427642822266

> <r_mmod_Stretch_Energy-OPLS-2005>
78.9299468994141

> <r_mmod_Bend_Energy-OPLS-2005>
160.241439819336

> <r_mmod_Torsional_Energy-OPLS-2005>
283.82421875

> <r_mmod_Improper_Torsional_Energy-OPLS-2005>
7.15376615524292

> <r_mmod_Van_der_Waal_Energy-OPLS-2005>
142.017501831055

> <r_mmod_Electrostatic_Energy-OPLS-2005>
-217.845062255859

> <r_mmod_Solvation_Energy-OPLS-2005>
-436.901641845703

> <b_mmod_Minimization_Converged-OPLS-2005>
0

> <r_mmod_RMS_Derivative-OPLS-2005>
5.1082649230957

$$$$
73
                    3D
 Structure written by MMmdl.
173182  0  0  1  0            999 V2000
  -30.5780  -14.7146   20.5174 C   0  0  0  0  0  0
  -30.4388  -12.4406   19.4680 C   0  0  0  0  0  0
  -29.5027  -12.4960   18.2361 C   0  0  0  0  0  0
  -28.0234  -12.3291   18.6327 C   0  0  0  0  0  0
  -27.6448  -13.2071   19.8542 C   0  0  2  0  0  0
  -28.6862  -13.1103   20.9896 C   0  0  0  0  0  0
  -25.2594  -13.8151   20.5607 C   0  0  0  0  0  0
  -24.1876  -13.0481   20.9137 C   0  0  0  0  0  0
  -24.6422  -11.6909   20.8787 C   0  0  0  0  0  0
  -23.9128  -10.4302   21.0435 C   0  0  0  0  0  0
  -24.3665   -9.4200   21.9214 C   0  0  0  0  0  0
  -23.6328   -8.2255   22.0787 C   0  0  0  0  0  0
  -22.4337   -8.0305   21.3546 C   0  0  0  0  0  0
  -21.9957   -9.0302   20.4679 C   0  0  0  0  0  0
  -22.7302  -10.2167   20.3071 C   0  0  0  0  0  0
  -21.6849   -6.0792   22.5285 C   0  0  0  0  0  0
  -21.4019   -6.5670   23.8221 C   0  0  0  0  0  0
  -21.3657   -5.6804   24.9159 C   0  0  0  0  0  0
  -21.5983   -4.3064   24.7184 C   0  0  0  0  0  0
  -21.8837   -3.8191   23.4302 C   0  0  0  0  0  0
  -21.9201   -4.7029   22.3375 C   0  0  0  0  0  0
  -22.7883  -13.5257   21.1782 C   0  0  0  0  0  0
  -22.1675   -4.2206   21.0950 F   0  0  0  0  0  0
  -21.5602   -3.4549   25.7703 F   0  0  0  0  0  0
  -29.9862  -13.4771   20.4190 N   0  0  0  0  0  0
  -26.2964  -12.9290   20.3261 N   0  0  0  0  0  0
  -25.9331  -11.6474   20.5801 N   0  0  0  0  0  0
  -22.0551  -12.8279   22.0337 N   0  0  0  0  0  0
  -25.4445  -15.1875   20.3876 N   0  0  0  0  0  0
  -31.7749  -14.8683   20.2544 O   0  0  0  0  0  0
  -21.6640   -6.8965   21.4279 O   0  0  0  0  0  0
  -22.3584  -14.5578   20.6630 O   0  0  0  0  0  0
  -24.6198  -31.8567   23.2046 C   0  0  0  0  0  0
  -25.9063  -32.4754   23.8417 C   0  0  1  0  0  0
  -27.2154  -27.2961   20.1126 C   0  0  0  0  0  0
  -25.5917  -33.8561   24.2352 N   0  0  0  0  0  0
  -23.4147  -30.4811   21.5392 C   0  0  2  0  0  0
  -24.8690  -28.9333   20.1060 C   0  0  0  0  0  0
  -22.7577  -29.4565   22.4902 C   0  0  0  0  0  0
  -18.0464  -28.1352   22.8570 C   0  0  0  0  0  0
  -24.1512  -36.7315   23.2639 C   0  0  0  0  0  0
  -25.9627  -30.7811   21.3832 C   0  0  0  0  0  0
  -26.0398  -29.4087   20.7168 C   0  0  0  0  0  0
  -27.2139  -28.5965   20.7159 C   0  0  0  0  0  0
  -26.0402  -26.9021   19.4456 C   0  0  0  0  0  0
  -24.8735  -27.6876   19.4651 C   0  0  0  0  0  0
  -23.6332  -29.8113   20.1577 C   0  0  0  0  0  0
  -25.4137  -36.3076   24.0323 C   0  0  1  0  0  0
  -20.6089  -28.3631   23.1477 C   0  0  2  0  0  0
  -20.7038  -26.9346   22.5631 C   0  0  0  0  0  0
  -19.6061  -26.6455   21.5323 C   0  0  0  0  0  0
  -18.2152  -26.7940   22.1601 C   0  0  0  0  0  0
  -19.1742  -28.8769   23.3021 C   0  0  0  0  0  0
  -18.9692  -30.1429   23.8912 C   0  0  0  0  0  0
  -17.6719  -30.6631   24.0529 C   0  0  0  0  0  0
  -25.9049  -34.9409   23.5140 C   0  0  0  0  0  0
  -16.5589  -29.9095   23.6422 C   0  0  0  0  0  0
  -16.7459  -28.6484   23.0489 C   0  0  0  0  0  0
  -26.4456  -31.6558   25.0774 C   0  0  0  0  0  0
  -25.3742  -31.3656   26.1542 C   0  0  0  0  0  0
  -27.0290  -30.2975   24.6236 C   0  0  0  0  0  0
  -27.6034  -32.4288   25.7504 C   0  0  0  0  0  0
  -27.5592  -37.1785   24.8450 C   0  0  0  0  0  0
  -21.4279  -29.3047   22.3835 N   0  0  0  0  0  0
  -26.4321  -37.3748   23.9373 N   0  0  0  0  0  0
  -24.6833  -31.0631   22.0954 N   0  0  0  0  0  0
  -23.4391  -28.7984   23.2816 O   0  0  0  0  0  0
  -28.3001  -26.3982   20.1445 O   0  0  0  0  0  0
  -26.5615  -34.8842   22.4697 O   0  0  0  0  0  0
  -23.5402  -32.1353   23.7444 O   0  0  0  0  0  0
  -23.3719  -21.5082   19.2895 C   0  0  0  0  0  0
  -23.6318  -23.0010   19.0838 C   0  0  0  0  0  0
  -26.9311  -20.5306   21.6593 C   0  0  0  0  0  0
  -24.6026  -20.9836   20.0482 C   0  0  0  0  0  0
  -25.0981  -23.1926   19.4783 C   0  0  0  0  0  0
  -28.3427  -20.0747   22.0625 C   0  0  0  0  0  0
  -29.2403  -21.1316   20.0125 C   0  0  0  0  0  0
  -27.9796  -22.1582   19.9117 C   0  0  2  0  0  0
  -26.8274  -21.9304   20.9754 C   0  0  1  0  0  0
  -30.0086  -17.2566   21.0271 C   0  0  0  0  0  0
  -29.1395  -18.4238   20.2913 C   0  0  0  0  0  0
  -28.0258  -24.9808   20.5519 C   0  0  0  0  0  0
  -28.3909  -23.7271   19.6036 C   0  0  2  0  0  0
  -29.7342  -15.7855   20.7382 N   0  0  0  0  0  0
  -25.3925  -22.1629   20.5017 N   0  3  0  0  0  0
  -29.2030  -19.8577   20.8738 N   0  3  2  0  0  0
  -27.8797  -24.0448   18.3210 O   0  0  0  0  0  0
  -31.4730  -12.5944   19.1645 H   0  0  0  0  0  0
  -30.4118  -11.4514   19.9301 H   0  0  0  0  0  0
  -29.7851  -11.7467   17.4912 H   0  0  0  0  0  0
  -29.6115  -13.4732   17.7604 H   0  0  0  0  0  0
  -27.8406  -11.2709   18.8361 H   0  0  0  0  0  0
  -27.3768  -12.5811   17.7900 H   0  0  0  0  0  0
  -27.6587  -14.2338   19.4870 H   0  0  0  0  0  0
  -28.7085  -12.1007   21.4015 H   0  0  0  0  0  0
  -28.4151  -13.7630   21.8224 H   0  0  0  0  0  0
  -25.2836   -9.5594   22.4773 H   0  0  0  0  0  0
  -24.0018   -7.4597   22.7457 H   0  0  0  0  0  0
  -21.0894   -8.8811   19.8964 H   0  0  0  0  0  0
  -22.3800  -10.9707   19.6136 H   0  0  0  0  0  0
  -21.2053   -7.6175   23.9725 H   0  0  0  0  0  0
  -21.1439   -6.0529   25.9044 H   0  0  0  0  0  0
  -22.0644   -2.7667   23.2753 H   0  0  0  0  0  0
  -22.4260  -11.9911   22.4624 H   0  0  0  0  0  0
  -21.1167  -13.1285   22.2638 H   0  0  0  0  0  0
  -24.6707  -15.8375   20.4481 H   0  0  0  0  0  0
  -26.2590  -15.5846   19.9384 H   0  0  0  0  0  0
  -26.7145  -32.5402   23.1167 H   0  0  0  0  0  0
  -24.9975  -33.9731   25.0444 H   0  0  0  0  0  0
  -22.6922  -31.2886   21.3951 H   0  0  0  0  0  0
  -23.3745  -35.9669   23.3286 H   0  0  0  0  0  0
  -24.3605  -36.8946   22.2058 H   0  0  0  0  0  0
  -23.7290  -37.6520   23.6676 H   0  0  0  0  0  0
  -26.1254  -31.5554   20.6314 H   0  0  0  0  0  0
  -26.8314  -30.8172   22.0318 H   0  0  0  0  0  0
  -28.1075  -28.9522   21.2093 H   0  0  0  0  0  0
  -26.0255  -25.9692   18.9061 H   0  0  0  0  0  0
  -23.9763  -27.3258   18.9859 H   0  0  0  0  0  0
  -23.7518  -30.5812   19.3960 H   0  0  0  0  0  0
  -22.7563  -29.2362   19.8595 H   0  0  0  0  0  0
  -25.1301  -36.1945   25.0816 H   0  0  0  0  0  0
  -21.0231  -28.3228   24.1545 H   0  0  0  0  0  0
  -20.5852  -26.2283   23.3840 H   0  0  0  0  0  0
  -21.6985  -26.7277   22.1692 H   0  0  0  0  0  0
  -19.7108  -27.3327   20.6960 H   0  0  0  0  0  0
  -19.7366  -25.6460   21.1188 H   0  0  0  0  0  0
  -17.4487  -26.6546   21.3993 H   0  0  0  0  0  0
  -18.0509  -26.0085   22.8945 H   0  0  0  0  0  0
  -19.8237  -30.7167   24.2230 H   0  0  0  0  0  0
  -17.5421  -31.6398   24.5029 H   0  0  0  0  0  0
  -15.5649  -30.3113   23.7762 H   0  0  0  0  0  0
  -15.8835  -28.0822   22.7287 H   0  0  0  0  0  0
  -24.5952  -30.6921   25.7937 H   0  0  0  0  0  0
  -24.8860  -32.2782   26.4976 H   0  0  0  0  0  0
  -25.8161  -30.8881   27.0308 H   0  0  0  0  0  0
  -26.2884  -29.6708   24.1246 H   0  0  0  0  0  0
  -27.3974  -29.7223   25.4745 H   0  0  0  0  0  0
  -27.8767  -30.4242   23.9501 H   0  0  0  0  0  0
  -27.2673  -33.3615   26.2032 H   0  0  0  0  0  0
  -28.3833  -32.6785   25.0308 H   0  0  0  0  0  0
  -28.0693  -31.8418   26.5417 H   0  0  0  0  0  0
  -28.2580  -38.0108   24.7481 H   0  0  0  0  0  0
  -28.1115  -36.2613   24.6311 H   0  0  0  0  0  0
  -27.2272  -37.1466   25.8842 H   0  0  0  0  0  0
  -20.9283  -29.8997   21.7349 H   0  0  0  0  0  0
  -26.0212  -38.2828   24.1325 H   0  0  0  0  0  0
  -23.2598  -20.9760   18.3422 H   0  0  0  0  0  0
  -22.4627  -21.3365   19.8671 H   0  0  0  0  0  0
  -22.9787  -23.5878   19.7345 H   0  0  0  0  0  0
  -23.4357  -23.3068   18.0529 H   0  0  0  0  0  0
  -26.2934  -20.5166   22.5442 H   0  0  0  0  0  0
  -26.5505  -19.7411   21.0149 H   0  0  0  0  0  0
  -25.1947  -20.3786   19.3589 H   0  0  0  0  0  0
  -24.2944  -20.3456   20.8768 H   0  0  0  0  0  0
  -25.2599  -24.2030   19.8378 H   0  0  0  0  0  0
  -25.6872  -23.0200   18.5801 H   0  0  0  0  0  0
  -28.2796  -19.1462   22.6317 H   0  0  0  0  0  0
  -28.7841  -20.8190   22.7281 H   0  0  0  0  0  0
  -30.0124  -21.7107   20.5187 H   0  0  0  0  0  0
  -29.6582  -20.9235   19.0269 H   0  0  0  0  0  0
  -27.5274  -21.7858   18.9929 H   0  0  0  0  0  0
  -27.0086  -22.6725   21.7594 H   0  0  0  0  0  0
  -31.0685  -17.4504   20.8658 H   0  0  0  0  0  0
  -29.8847  -17.3500   22.1061 H   0  0  0  0  0  0
  -28.0906  -18.1244   20.2431 H   0  0  0  0  0  0
  -29.4965  -18.4523   19.2607 H   0  0  0  0  0  0
  -28.6397  -24.8491   21.4448 H   0  0  0  0  0  0
  -27.0056  -24.9015   20.9208 H   0  0  0  0  0  0
  -29.4778  -23.7375   19.5099 H   0  0  0  0  0  0
  -28.7719  -15.5101   20.8648 H   0  0  0  0  0  0
  -24.8962  -22.4882   21.3227 H   0  0  0  0  0  0
  -30.1417  -19.8489   21.2520 H   0  0  0  0  0  0
  -28.6188  -24.3151   17.7801 H   0  0  0  0  0  0
  1 25  1  0  0  0
  1 30  2  0  0  0
  1 84  1  0  0  0
  2  3  1  0  0  0
  2 25  1  0  0  0
  2 88  1  0  0  0
  2 89  1  0  0  0
  3  4  1  0  0  0
  3 90  1  0  0  0
  3 91  1  0  0  0
  4  5  1  0  0  0
  4 92  1  0  0  0
  4 93  1  0  0  0
  5  6  1  0  0  0
  5 26  1  0  0  0
  5 94  1  0  0  0
  6 25  1  0  0  0
  6 95  1  0  0  0
  6 96  1  0  0  0
  7  8  2  0  0  0
  7 26  1  0  0  0
  7 29  1  0  0  0
  8  9  1  0  0  0
  8 22  1  0  0  0
  9 10  1  0  0  0
  9 27  2  0  0  0
 10 11  2  0  0  0
 10 15  1  0  0  0
 11 12  1  0  0  0
 11 97  1  0  0  0
 12 13  2  0  0  0
 12 98  1  0  0  0
 13 14  1  0  0  0
 13 31  1  0  0  0
 14 15  2  0  0  0
 14 99  1  0  0  0
 15100  1  0  0  0
 16 17  2  0  0  0
 16 21  1  0  0  0
 16 31  1  0  0  0
 17 18  1  0  0  0
 17101  1  0  0  0
 18 19  2  0  0  0
 18102  1  0  0  0
 19 20  1  0  0  0
 19 24  1  0  0  0
 20 21  2  0  0  0
 20103  1  0  0  0
 21 23  1  0  0  0
 22 28  1  0  0  0
 22 32  2  0  0  0
 26 27  1  0  0  0
 28104  1  0  0  0
 28105  1  0  0  0
 29106  1  0  0  0
 29107  1  0  0  0
 33 34  1  0  0  0
 33 66  1  0  0  0
 33 70  2  0  0  0
 34 36  1  0  0  0
 34 59  1  0  0  0
 34108  1  0  0  0
 35 44  2  0  0  0
 35 45  1  0  0  0
 35 68  1  0  0  0
 36 56  1  0  0  0
 36109  1  0  0  0
 37 39  1  0  0  0
 37 47  1  0  0  0
 37 66  1  0  0  0
 37110  1  0  0  0
 38 43  2  0  0  0
 38 46  1  0  0  0
 38 47  1  0  0  0
 39 64  1  0  0  0
 39 67  2  0  0  0
 40 52  1  0  0  0
 40 53  2  0  0  0
 40 58  1  0  0  0
 41111  1  0  0  0
 41112  1  0  0  0
 41113  1  0  0  0
 41 48  1  0  0  0
 42 43  1  0  0  0
 42 66  1  0  0  0
 42114  1  0  0  0
 42115  1  0  0  0
 43 44  1  0  0  0
 44116  1  0  0  0
 45 46  2  0  0  0
 45117  1  0  0  0
 46118  1  0  0  0
 47119  1  0  0  0
 47120  1  0  0  0
 48 56  1  0  0  0
 48 65  1  0  0  0
 48121  1  0  0  0
 49 50  1  0  0  0
 49 53  1  0  0  0
 49 64  1  0  0  0
 49122  1  0  0  0
 50 51  1  0  0  0
 50123  1  0  0  0
 50124  1  0  0  0
 51 52  1  0  0  0
 51125  1  0  0  0
 51126  1  0  0  0
 52127  1  0  0  0
 52128  1  0  0  0
 53 54  1  0  0  0
 54 55  2  0  0  0
 54129  1  0  0  0
 55 57  1  0  0  0
 55130  1  0  0  0
 56 69  2  0  0  0
 57 58  2  0  0  0
 57131  1  0  0  0
 58132  1  0  0  0
 59 60  1  0  0  0
 59 61  1  0  0  0
 59 62  1  0  0  0
 60133  1  0  0  0
 60134  1  0  0  0
 60135  1  0  0  0
 61136  1  0  0  0
 61137  1  0  0  0
 61138  1  0  0  0
 62139  1  0  0  0
 62140  1  0  0  0
 62141  1  0  0  0
 63 65  1  0  0  0
 63142  1  0  0  0
 63143  1  0  0  0
 63144  1  0  0  0
 64145  1  0  0  0
 65146  1  0  0  0
 68 82  1  0  0  0
 71 72  1  0  0  0
 71 74  1  0  0  0
 71147  1  0  0  0
 71148  1  0  0  0
 72 75  1  0  0  0
 72149  1  0  0  0
 72150  1  0  0  0
 73 76  1  0  0  0
 73151  1  0  0  0
 73152  1  0  0  0
 73 79  1  0  0  0
 74153  1  0  0  0
 74154  1  0  0  0
 74 85  1  0  0  0
 75 85  1  0  0  0
 75155  1  0  0  0
 75156  1  0  0  0
 76 86  1  0  0  0
 76157  1  0  0  0
 76158  1  0  0  0
 77 86  1  0  0  0
 77159  1  0  0  0
 77160  1  0  0  0
 77 78  1  0  0  0
 78 79  1  0  0  0
 78 83  1  0  0  0
 78161  1  0  0  0
 79 85  1  0  0  0
 79162  1  0  0  0
 80 81  1  0  0  0
 80 84  1  0  0  0
 80163  1  0  0  0
 80164  1  0  0  0
 81165  1  0  0  0
 81166  1  0  0  0
 81 86  1  0  0  0
 82 83  1  0  0  0
 82167  1  0  0  0
 82168  1  0  0  0
 83 87  1  0  0  0
 83169  1  0  0  0
 84170  1  0  0  0
 85171  1  0  0  0
 86172  1  0  0  0
 87173  1  0  0  0
M  CHG  2  85   1  86   1
M  ISO  4   1 100  68 101  82 101  84 100
M  END
> <chiral flag>
0

> <version>
0

> <s_m_source_file>
/data/baiqing/PycharmProjects/Reinvent-master-3.2/result/LINK_invent/BTK/process_docking_weight1_custom_sum_contain_oxygen_bond_distance_aromatic_linkinvent_7_9_3/rearranged_h_0126.sdf

> <i_m_source_file_index>
74

> <r_mmod_Potential_Energy-OPLS-2005>
124.368774414062

> <r_mmod_Stretch_Energy-OPLS-2005>
138.101959228516

> <r_mmod_Bend_Energy-OPLS-2005>
240.3466796875

> <r_mmod_Torsional_Energy-OPLS-2005>
411.641204833984

> <r_mmod_Improper_Torsional_Energy-OPLS-2005>
4.87462186813354

> <r_mmod_Van_der_Waal_Energy-OPLS-2005>
123.446365356445

> <r_mmod_Electrostatic_Energy-OPLS-2005>
114.962501525879

> <r_mmod_Solvation_Energy-OPLS-2005>
-983.813659667969

> <b_mmod_Minimization_Converged-OPLS-2005>
0

> <r_mmod_RMS_Derivative-OPLS-2005>
10.8829708099365

$$$$
74
                    3D
 Structure written by MMmdl.
163172  0  0  1  0            999 V2000
  -30.6883  -14.4661   20.5840 C   0  0  0  0  0  0
  -30.4267  -12.3082   19.4161 C   0  0  0  0  0  0
  -29.4894  -12.5049   18.2055 C   0  0  0  0  0  0
  -28.0127  -12.3621   18.6231 C   0  0  0  0  0  0
  -27.6632  -13.1995   19.8820 C   0  0  2  0  0  0
  -28.7064  -12.9675   20.9989 C   0  0  0  0  0  0
  -25.2596  -13.8152   20.5690 C   0  0  0  0  0  0
  -24.1837  -13.0448   20.9188 C   0  0  0  0  0  0
  -24.6378  -11.6905   20.8749 C   0  0  0  0  0  0
  -23.9035  -10.4298   21.0419 C   0  0  0  0  0  0
  -24.3592   -9.4207   21.9187 C   0  0  0  0  0  0
  -23.6277   -8.2241   22.0753 C   0  0  0  0  0  0
  -22.4264   -8.0278   21.3543 C   0  0  0  0  0  0
  -21.9890   -9.0251   20.4648 C   0  0  0  0  0  0
  -22.7210  -10.2137   20.3064 C   0  0  0  0  0  0
  -21.6858   -6.0720   22.5270 C   0  0  0  0  0  0
  -21.4016   -6.5629   23.8206 C   0  0  0  0  0  0
  -21.3650   -5.6784   24.9170 C   0  0  0  0  0  0
  -21.6046   -4.3044   24.7225 C   0  0  0  0  0  0
  -21.8821   -3.8133   23.4351 C   0  0  0  0  0  0
  -21.9193   -4.6944   22.3400 C   0  0  0  0  0  0
  -22.7855  -13.5241   21.1856 C   0  0  0  0  0  0
  -22.1660   -4.2126   21.0980 F   0  0  0  0  0  0
  -21.5621   -3.4531   25.7745 F   0  0  0  0  0  0
  -30.0363  -13.2807   20.4485 N   0  0  0  0  0  0
  -26.3026  -12.9302   20.3417 N   0  0  0  0  0  0
  -25.9298  -11.6473   20.5797 N   0  0  0  0  0  0
  -22.0487  -12.8233   22.0405 N   0  0  0  0  0  0
  -25.4350  -15.1867   20.4070 N   0  0  0  0  0  0
  -31.7996  -14.6857   20.0946 O   0  0  0  0  0  0
  -21.6654   -6.8856   21.4228 O   0  0  0  0  0  0
  -22.3536  -14.5547   20.6694 O   0  0  0  0  0  0
  -24.6136  -31.8687   23.2102 C   0  0  0  0  0  0
  -25.9046  -32.4824   23.8390 C   0  0  1  0  0  0
  -27.2350  -27.4478   20.0979 C   0  0  0  0  0  0
  -25.5908  -33.8623   24.2328 N   0  0  0  0  0  0
  -23.4009  -30.4909   21.5495 C   0  0  2  0  0  0
  -24.8486  -28.9538   20.1169 C   0  0  0  0  0  0
  -22.7404  -29.4653   22.4985 C   0  0  0  0  0  0
  -18.0274  -28.1372   22.8508 C   0  0  0  0  0  0
  -24.1485  -36.7307   23.2635 C   0  0  0  0  0  0
  -25.9275  -30.8375   21.3618 C   0  0  0  0  0  0
  -26.0071  -29.4710   20.7124 C   0  0  0  0  0  0
  -27.2063  -28.7245   20.7018 C   0  0  0  0  0  0
  -26.0657  -26.9379   19.5019 C   0  0  0  0  0  0
  -24.8713  -27.6850   19.5094 C   0  0  0  0  0  0
  -23.6102  -29.8204   20.1649 C   0  0  0  0  0  0
  -25.4106  -36.3108   24.0338 C   0  0  1  0  0  0
  -20.5864  -28.3653   23.1323 C   0  0  2  0  0  0
  -20.6757  -26.9393   22.5417 C   0  0  0  0  0  0
  -19.5737  -26.6383   21.5214 C   0  0  0  0  0  0
  -18.1917  -26.7921   22.1632 C   0  0  0  0  0  0
  -19.1526  -28.8830   23.2914 C   0  0  0  0  0  0
  -18.9450  -30.1438   23.8919 C   0  0  0  0  0  0
  -17.6450  -30.6577   24.0571 C   0  0  0  0  0  0
  -25.9037  -34.9476   23.5127 C   0  0  0  0  0  0
  -16.5341  -29.9080   23.6327 C   0  0  0  0  0  0
  -16.7263  -28.6499   23.0350 C   0  0  0  0  0  0
  -26.4483  -31.6592   25.0706 C   0  0  0  0  0  0
  -25.3765  -31.3691   26.1467 C   0  0  0  0  0  0
  -27.0302  -30.3032   24.6065 C   0  0  0  0  0  0
  -27.6060  -32.4295   25.7475 C   0  0  0  0  0  0
  -27.5578  -37.1805   24.8468 C   0  0  0  0  0  0
  -21.4131  -29.3021   22.3729 N   0  0  0  0  0  0
  -26.4293  -37.3791   23.9410 N   0  0  0  0  0  0
  -24.6651  -31.0797   22.0993 N   0  0  0  0  0  0
  -23.4186  -28.8206   23.3027 O   0  0  0  0  0  0
  -28.3868  -26.7003   20.0680 O   0  0  0  0  0  0
  -26.5584  -34.8929   22.4680 O   0  0  0  0  0  0
  -23.5330  -32.1426   23.7512 O   0  0  0  0  0  0
  -29.2941  -23.7922   19.8335 C   0  0  0  0  0  0
  -29.2708  -22.4064   19.5673 C   0  0  0  0  0  0
  -27.6457  -23.4694   21.5828 C   0  0  0  0  0  0
  -27.6014  -22.0775   21.3203 C   0  0  0  0  0  0
  -28.4774  -24.3374   20.8439 C   0  0  0  0  0  0
  -28.4333  -21.5334   20.3021 C   0  0  0  0  0  0
  -25.3941  -20.6662   21.5580 C   0  0  0  0  0  0
  -25.3449  -21.7033   22.6525 C   0  0  0  0  0  0
  -26.6815  -21.2095   22.1387 C   0  0  0  0  0  0
  -28.4085  -20.0376   19.9407 C   0  0  0  0  0  0
  -28.5495  -25.8259   21.1897 C   0  0  0  0  0  0
  -30.2847  -16.8820   21.2244 C   0  0  0  0  0  0
  -29.1734  -17.7496   20.5698 C   0  0  0  0  0  0
  -29.9698  -15.4429   21.1678 N   0  0  0  0  0  0
  -29.4041  -19.2172   20.6751 N   0  3  0  0  0  0
  -31.4689  -12.4176   19.1113 H   0  0  0  0  0  0
  -30.3399  -11.2923   19.8062 H   0  0  0  0  0  0
  -29.7256  -11.7833   17.4223 H   0  0  0  0  0  0
  -29.6502  -13.4913   17.7689 H   0  0  0  0  0  0
  -27.8232  -11.3060   18.8182 H   0  0  0  0  0  0
  -27.3572  -12.6389   17.7963 H   0  0  0  0  0  0
  -27.7101  -14.2477   19.5893 H   0  0  0  0  0  0
  -28.6838  -11.9269   21.3267 H   0  0  0  0  0  0
  -28.4687  -13.5501   21.8897 H   0  0  0  0  0  0
  -25.2741   -9.5666   22.4759 H   0  0  0  0  0  0
  -23.9973   -7.4632   22.7479 H   0  0  0  0  0  0
  -21.0823   -8.8763   19.8956 H   0  0  0  0  0  0
  -22.3672  -10.9675   19.6174 H   0  0  0  0  0  0
  -21.2019   -7.6137   23.9709 H   0  0  0  0  0  0
  -21.1462   -6.0514   25.9075 H   0  0  0  0  0  0
  -22.0615   -2.7598   23.2864 H   0  0  0  0  0  0
  -22.4108  -11.9883   22.4760 H   0  0  0  0  0  0
  -21.1096  -13.1242   22.2621 H   0  0  0  0  0  0
  -26.2868  -15.6166   20.0732 H   0  0  0  0  0  0
  -24.6675  -15.8433   20.4991 H   0  0  0  0  0  0
  -26.7122  -32.5540   23.1160 H   0  0  0  0  0  0
  -25.0106  -33.9795   25.0505 H   0  0  0  0  0  0
  -22.6868  -31.3053   21.4106 H   0  0  0  0  0  0
  -23.3745  -35.9643   23.3317 H   0  0  0  0  0  0
  -24.3582  -36.8902   22.2045 H   0  0  0  0  0  0
  -23.7247  -37.6523   23.6635 H   0  0  0  0  0  0
  -26.0352  -31.6023   20.5909 H   0  0  0  0  0  0
  -26.8171  -30.8931   21.9776 H   0  0  0  0  0  0
  -28.1033  -29.1224   21.1558 H   0  0  0  0  0  0
  -26.0818  -25.9627   19.0358 H   0  0  0  0  0  0
  -23.9812  -27.2794   19.0483 H   0  0  0  0  0  0
  -23.7150  -30.5933   19.4020 H   0  0  0  0  0  0
  -22.7347  -29.2380   19.8723 H   0  0  0  0  0  0
  -25.1282  -36.1972   25.0829 H   0  0  0  0  0  0
  -20.9965  -28.3223   24.1440 H   0  0  0  0  0  0
  -20.5649  -26.2265   23.3605 H   0  0  0  0  0  0
  -21.6626  -26.7417   22.1221 H   0  0  0  0  0  0
  -19.6885  -25.6297   21.1230 H   0  0  0  0  0  0
  -19.6676  -27.3207   20.6757 H   0  0  0  0  0  0
  -17.4187  -26.6695   21.4027 H   0  0  0  0  0  0
  -18.0308  -26.0041   22.9003 H   0  0  0  0  0  0
  -19.7923  -30.7260   24.2283 H   0  0  0  0  0  0
  -17.5002  -31.6259   24.5168 H   0  0  0  0  0  0
  -15.5342  -30.2989   23.7623 H   0  0  0  0  0  0
  -15.8671  -28.0824   22.7035 H   0  0  0  0  0  0
  -24.5944  -30.7023   25.7819 H   0  0  0  0  0  0
  -24.8949  -32.2839   26.4917 H   0  0  0  0  0  0
  -25.8142  -30.8871   27.0217 H   0  0  0  0  0  0
  -26.2830  -29.6800   24.1129 H   0  0  0  0  0  0
  -27.4087  -29.7257   25.4509 H   0  0  0  0  0  0
  -27.8664  -30.4347   23.9198 H   0  0  0  0  0  0
  -27.2690  -33.3584   26.2087 H   0  0  0  0  0  0
  -28.3869  -32.6866   25.0306 H   0  0  0  0  0  0
  -28.0737  -31.8393   26.5369 H   0  0  0  0  0  0
  -28.2604  -38.0091   24.7496 H   0  0  0  0  0  0
  -28.1062  -36.2618   24.6314 H   0  0  0  0  0  0
  -27.2292  -37.1486   25.8872 H   0  0  0  0  0  0
  -20.9276  -29.8751   21.6969 H   0  0  0  0  0  0
  -26.0181  -38.2871   24.1405 H   0  0  0  0  0  0
  -29.9492  -24.4374   19.2644 H   0  0  0  0  0  0
  -29.9041  -22.0188   18.7805 H   0  0  0  0  0  0
  -27.0326  -23.8825   22.3717 H   0  0  0  0  0  0
  -25.1008  -20.9872   20.5595 H   0  0  0  0  0  0
  -25.1068  -19.6501   21.8241 H   0  0  0  0  0  0
  -25.0233  -21.3631   23.6355 H   0  0  0  0  0  0
  -25.0007  -22.6958   22.3687 H   0  0  0  0  0  0
  -27.2501  -20.5596   22.8013 H   0  0  0  0  0  0
  -28.5828  -19.9271   18.8694 H   0  0  0  0  0  0
  -27.4103  -19.6355   20.1066 H   0  0  0  0  0  0
  -29.5316  -26.0215   21.6205 H   0  0  0  0  0  0
  -27.8327  -26.0525   21.9819 H   0  0  0  0  0  0
  -30.3977  -17.1584   22.2730 H   0  0  0  0  0  0
  -31.2454  -17.0877   20.7487 H   0  0  0  0  0  0
  -28.2143  -17.5201   21.0364 H   0  0  0  0  0  0
  -29.0782  -17.4794   19.5166 H   0  0  0  0  0  0
  -29.0805  -15.1563   21.5495 H   0  0  0  0  0  0
  -30.3172  -19.4434   20.3164 H   0  0  0  0  0  0
  -29.3822  -19.4846   21.6450 H   0  0  0  0  0  0
  1 25  1  0  0  0
  1 30  2  0  0  0
  1 84  1  0  0  0
  2  3  1  0  0  0
  2 25  1  0  0  0
  2 86  1  0  0  0
  2 87  1  0  0  0
  3  4  1  0  0  0
  3 88  1  0  0  0
  3 89  1  0  0  0
  4  5  1  0  0  0
  4 90  1  0  0  0
  4 91  1  0  0  0
  5  6  1  0  0  0
  5 26  1  0  0  0
  5 92  1  0  0  0
  6 25  1  0  0  0
  6 93  1  0  0  0
  6 94  1  0  0  0
  7  8  2  0  0  0
  7 26  1  0  0  0
  7 29  1  0  0  0
  8  9  1  0  0  0
  8 22  1  0  0  0
  9 10  1  0  0  0
  9 27  2  0  0  0
 10 11  2  0  0  0
 10 15  1  0  0  0
 11 12  1  0  0  0
 11 95  1  0  0  0
 12 13  2  0  0  0
 12 96  1  0  0  0
 13 14  1  0  0  0
 13 31  1  0  0  0
 14 15  2  0  0  0
 14 97  1  0  0  0
 15 98  1  0  0  0
 16 17  2  0  0  0
 16 21  1  0  0  0
 16 31  1  0  0  0
 17 18  1  0  0  0
 17 99  1  0  0  0
 18 19  2  0  0  0
 18100  1  0  0  0
 19 20  1  0  0  0
 19 24  1  0  0  0
 20 21  2  0  0  0
 20101  1  0  0  0
 21 23  1  0  0  0
 22 28  1  0  0  0
 22 32  2  0  0  0
 26 27  1  0  0  0
 28102  1  0  0  0
 28103  1  0  0  0
 29104  1  0  0  0
 29105  1  0  0  0
 33 34  1  0  0  0
 33 66  1  0  0  0
 33 70  2  0  0  0
 34 36  1  0  0  0
 34 59  1  0  0  0
 34106  1  0  0  0
 35 44  2  0  0  0
 35 45  1  0  0  0
 35 68  1  0  0  0
 36 56  1  0  0  0
 36107  1  0  0  0
 37 39  1  0  0  0
 37 47  1  0  0  0
 37 66  1  0  0  0
 37108  1  0  0  0
 38 43  2  0  0  0
 38 46  1  0  0  0
 38 47  1  0  0  0
 39 64  1  0  0  0
 39 67  2  0  0  0
 40 52  1  0  0  0
 40 53  2  0  0  0
 40 58  1  0  0  0
 41109  1  0  0  0
 41110  1  0  0  0
 41111  1  0  0  0
 41 48  1  0  0  0
 42 43  1  0  0  0
 42 66  1  0  0  0
 42112  1  0  0  0
 42113  1  0  0  0
 43 44  1  0  0  0
 44114  1  0  0  0
 45 46  2  0  0  0
 45115  1  0  0  0
 46116  1  0  0  0
 47117  1  0  0  0
 47118  1  0  0  0
 48 56  1  0  0  0
 48 65  1  0  0  0
 48119  1  0  0  0
 49 50  1  0  0  0
 49 53  1  0  0  0
 49 64  1  0  0  0
 49120  1  0  0  0
 50 51  1  0  0  0
 50121  1  0  0  0
 50122  1  0  0  0
 51 52  1  0  0  0
 51123  1  0  0  0
 51124  1  0  0  0
 52125  1  0  0  0
 52126  1  0  0  0
 53 54  1  0  0  0
 54 55  2  0  0  0
 54127  1  0  0  0
 55 57  1  0  0  0
 55128  1  0  0  0
 56 69  2  0  0  0
 57 58  2  0  0  0
 57129  1  0  0  0
 58130  1  0  0  0
 59 60  1  0  0  0
 59 61  1  0  0  0
 59 62  1  0  0  0
 60131  1  0  0  0
 60132  1  0  0  0
 60133  1  0  0  0
 61134  1  0  0  0
 61135  1  0  0  0
 61136  1  0  0  0
 62137  1  0  0  0
 62138  1  0  0  0
 62139  1  0  0  0
 63 65  1  0  0  0
 63140  1  0  0  0
 63141  1  0  0  0
 63142  1  0  0  0
 64143  1  0  0  0
 65144  1  0  0  0
 68 81  1  0  0  0
 71 72  2  0  0  0
 71 75  1  0  0  0
 71145  1  0  0  0
 72 76  1  0  0  0
 72146  1  0  0  0
 73 74  1  0  0  0
 73 75  2  0  0  0
 73147  1  0  0  0
 74 76  2  0  0  0
 74 79  1  0  0  0
 75 81  1  0  0  0
 76 80  1  0  0  0
 77 78  1  0  0  0
 77 79  1  0  0  0
 77148  1  0  0  0
 77149  1  0  0  0
 78 79  1  0  0  0
 78150  1  0  0  0
 78151  1  0  0  0
 79152  1  0  0  0
 80 85  1  0  0  0
 80153  1  0  0  0
 80154  1  0  0  0
 81155  1  0  0  0
 81156  1  0  0  0
 82 83  1  0  0  0
 82 84  1  0  0  0
 82157  1  0  0  0
 82158  1  0  0  0
 83 85  1  0  0  0
 83159  1  0  0  0
 83160  1  0  0  0
 84161  1  0  0  0
 85162  1  0  0  0
 85163  1  0  0  0
M  CHG  1  85   1
M  ISO  4   1 100  68 101  81 101  84 100
M  END
> <chiral flag>
0

> <version>
0

> <s_m_source_file>
/data/baiqing/PycharmProjects/Reinvent-master-3.2/result/LINK_invent/BTK/process_docking_weight1_custom_sum_contain_oxygen_bond_distance_aromatic_linkinvent_7_9_3/rearranged_h_0126.sdf

> <i_m_source_file_index>
75

> <r_mmod_Potential_Energy-OPLS-2005>
-283.155426025391

> <r_mmod_Stretch_Energy-OPLS-2005>
36.9820289611816

> <r_mmod_Bend_Energy-OPLS-2005>
87.4622421264648

> <r_mmod_Torsional_Energy-OPLS-2005>
253.774185180664

> <r_mmod_Improper_Torsional_Energy-OPLS-2005>
3.54472470283508

> <r_mmod_Van_der_Waal_Energy-OPLS-2005>
140.937728881836

> <r_mmod_Electrostatic_Energy-OPLS-2005>
-331.911407470703

> <r_mmod_Solvation_Energy-OPLS-2005>
-484.632873535156

> <b_mmod_Minimization_Converged-OPLS-2005>
0

> <r_mmod_RMS_Derivative-OPLS-2005>
1.838130235672

$$$$
75
                    3D
 Structure written by MMmdl.
159167  0  0  1  0            999 V2000
  -30.6600  -14.5899   20.5237 C   0  0  0  0  0  0
  -30.4282  -12.3697   19.4414 C   0  0  0  0  0  0
  -29.4994  -12.4998   18.2157 C   0  0  0  0  0  0
  -28.0230  -12.3445   18.6312 C   0  0  0  0  0  0
  -27.6514  -13.2152   19.8614 C   0  0  2  0  0  0
  -28.6962  -13.0666   20.9893 C   0  0  0  0  0  0
  -25.2549  -13.8169   20.5680 C   0  0  0  0  0  0
  -24.1820  -13.0436   20.9195 C   0  0  0  0  0  0
  -24.6387  -11.6907   20.8746 C   0  0  0  0  0  0
  -23.9058  -10.4291   21.0410 C   0  0  0  0  0  0
  -24.3612   -9.4206   21.9186 C   0  0  0  0  0  0
  -23.6289   -8.2241   22.0754 C   0  0  0  0  0  0
  -22.4272   -8.0278   21.3543 C   0  0  0  0  0  0
  -21.9906   -9.0252   20.4646 C   0  0  0  0  0  0
  -22.7232  -10.2132   20.3058 C   0  0  0  0  0  0
  -21.6851   -6.0733   22.5279 C   0  0  0  0  0  0
  -21.4014   -6.5639   23.8212 C   0  0  0  0  0  0
  -21.3660   -5.6792   24.9175 C   0  0  0  0  0  0
  -21.6044   -4.3054   24.7226 C   0  0  0  0  0  0
  -21.8819   -3.8146   23.4348 C   0  0  0  0  0  0
  -21.9192   -4.6962   22.3403 C   0  0  0  0  0  0
  -22.7844  -13.5230   21.1859 C   0  0  0  0  0  0
  -22.1661   -4.2147   21.0980 F   0  0  0  0  0  0
  -21.5630   -3.4538   25.7740 F   0  0  0  0  0  0
  -30.0118  -13.3915   20.4193 N   0  0  0  0  0  0
  -26.2975  -12.9350   20.3316 N   0  0  0  0  0  0
  -25.9313  -11.6506   20.5762 N   0  0  0  0  0  0
  -22.0486  -12.8220   22.0414 N   0  0  0  0  0  0
  -25.4258  -15.1890   20.4076 N   0  0  0  0  0  0
  -31.8254  -14.7329   20.1469 O   0  0  0  0  0  0
  -21.6637   -6.8875   21.4240 O   0  0  0  0  0  0
  -22.3534  -14.5541   20.6712 O   0  0  0  0  0  0
  -24.6231  -31.8618   23.2043 C   0  0  0  0  0  0
  -25.9092  -32.4789   23.8362 C   0  0  1  0  0  0
  -27.2295  -27.3491   20.0973 C   0  0  0  0  0  0
  -25.5916  -33.8589   24.2289 N   0  0  0  0  0  0
  -23.4140  -30.4863   21.5472 C   0  0  2  0  0  0
  -24.8578  -28.9431   20.1133 C   0  0  0  0  0  0
  -22.7452  -29.4636   22.4955 C   0  0  0  0  0  0
  -18.0280  -28.1381   22.8488 C   0  0  0  0  0  0
  -24.1487  -36.7298   23.2639 C   0  0  0  0  0  0
  -25.9523  -30.8012   21.3693 C   0  0  0  0  0  0
  -26.0253  -29.4306   20.7116 C   0  0  0  0  0  0
  -27.2095  -28.6429   20.6971 C   0  0  0  0  0  0
  -26.0264  -26.8933   19.5068 C   0  0  0  0  0  0
  -24.8578  -27.6775   19.5084 C   0  0  0  0  0  0
  -23.6251  -29.8200   20.1624 C   0  0  0  0  0  0
  -25.4111  -36.3089   24.0328 C   0  0  1  0  0  0
  -20.5877  -28.3679   23.1294 C   0  0  2  0  0  0
  -20.6767  -26.9407   22.5412 C   0  0  0  0  0  0
  -19.5745  -26.6385   21.5210 C   0  0  0  0  0  0
  -18.1925  -26.7927   22.1621 C   0  0  0  0  0  0
  -19.1532  -28.8847   23.2887 C   0  0  0  0  0  0
  -18.9457  -30.1450   23.8902 C   0  0  0  0  0  0
  -17.6458  -30.6586   24.0563 C   0  0  0  0  0  0
  -25.9045  -34.9458   23.5108 C   0  0  0  0  0  0
  -16.5349  -29.9085   23.6330 C   0  0  0  0  0  0
  -16.7268  -28.6502   23.0352 C   0  0  0  0  0  0
  -26.4488  -31.6598   25.0726 C   0  0  0  0  0  0
  -25.3731  -31.3724   26.1459 C   0  0  0  0  0  0
  -27.0331  -30.3029   24.6162 C   0  0  0  0  0  0
  -27.6054  -32.4332   25.7491 C   0  0  0  0  0  0
  -27.5579  -37.1801   24.8463 C   0  0  0  0  0  0
  -21.4170  -29.3038   22.3693 N   0  0  0  0  0  0
  -26.4290  -37.3782   23.9409 N   0  0  0  0  0  0
  -24.6821  -31.0657   22.0976 N   0  0  0  0  0  0
  -23.4192  -28.8174   23.3020 O   0  0  0  0  0  0
  -28.3927  -26.5723   20.1424 O   0  0  0  0  0  0
  -26.5614  -34.8920   22.4674 O   0  0  0  0  0  0
  -23.5404  -32.1403   23.7393 O   0  0  0  0  0  0
  -30.2488  -23.4205   20.0100 C   0  0  0  0  0  0
  -27.8420  -22.7879   19.9187 C   0  0  0  0  0  0
  -30.5655  -22.0617   20.7047 C   0  0  0  0  0  0
  -28.1730  -21.4188   20.6131 C   0  0  0  0  0  0
  -28.8126  -23.9652   20.2524 C   0  0  2  0  0  0
  -29.6091  -20.8952   20.3200 C   0  0  2  0  0  0
  -28.5251  -25.2970   19.4291 C   0  0  0  0  0  0
  -30.3725  -17.0644   21.1702 C   0  0  0  0  0  0
  -29.5485  -18.2671   20.5430 C   0  0  0  0  0  0
  -29.9109  -15.6632   20.9056 N   0  0  0  0  0  0
  -29.9958  -19.6206   21.0417 N   0  3  0  0  0  0
  -31.4708  -12.4828   19.1391 H   0  0  0  0  0  0
  -30.3504  -11.3738   19.8804 H   0  0  0  0  0  0
  -29.7570  -11.7505   17.4660 H   0  0  0  0  0  0
  -29.6475  -13.4712   17.7411 H   0  0  0  0  0  0
  -27.8561  -11.2916   18.8616 H   0  0  0  0  0  0
  -27.3672  -12.5779   17.7917 H   0  0  0  0  0  0
  -27.6724  -14.2512   19.5228 H   0  0  0  0  0  0
  -28.6993  -12.0473   21.3784 H   0  0  0  0  0  0
  -28.4499  -13.7082   21.8367 H   0  0  0  0  0  0
  -25.2757   -9.5683   22.4761 H   0  0  0  0  0  0
  -24.0000   -7.4632   22.7472 H   0  0  0  0  0  0
  -21.0839   -8.8769   19.8951 H   0  0  0  0  0  0
  -22.3690  -10.9672   19.6167 H   0  0  0  0  0  0
  -21.2005   -7.6147   23.9715 H   0  0  0  0  0  0
  -21.1483   -6.0522   25.9077 H   0  0  0  0  0  0
  -22.0598   -2.7608   23.2848 H   0  0  0  0  0  0
  -22.4100  -11.9875   22.4791 H   0  0  0  0  0  0
  -21.1105  -13.1246   22.2627 H   0  0  0  0  0  0
  -24.6544  -15.8402   20.5059 H   0  0  0  0  0  0
  -26.2672  -15.6245   20.0524 H   0  0  0  0  0  0
  -26.7156  -32.5466   23.1111 H   0  0  0  0  0  0
  -25.0061  -33.9740   25.0430 H   0  0  0  0  0  0
  -22.7066  -31.3060   21.4056 H   0  0  0  0  0  0
  -23.3747  -35.9632   23.3306 H   0  0  0  0  0  0
  -24.3574  -36.8917   22.2051 H   0  0  0  0  0  0
  -23.7244  -37.6503   23.6657 H   0  0  0  0  0  0
  -26.0786  -31.5656   20.6012 H   0  0  0  0  0  0
  -26.8350  -30.8499   21.9954 H   0  0  0  0  0  0
  -28.1095  -29.0173   21.1645 H   0  0  0  0  0  0
  -25.9333  -25.9172   19.0603 H   0  0  0  0  0  0
  -23.9558  -27.2899   19.0549 H   0  0  0  0  0  0
  -23.7406  -30.5947   19.4036 H   0  0  0  0  0  0
  -22.7457  -29.2464   19.8636 H   0  0  0  0  0  0
  -25.1292  -36.1940   25.0822 H   0  0  0  0  0  0
  -20.9969  -28.3250   24.1414 H   0  0  0  0  0  0
  -20.5664  -26.2289   23.3607 H   0  0  0  0  0  0
  -21.6637  -26.7437   22.1210 H   0  0  0  0  0  0
  -19.6905  -25.6296   21.1237 H   0  0  0  0  0  0
  -19.6685  -27.3195   20.6740 H   0  0  0  0  0  0
  -17.4195  -26.6676   21.4022 H   0  0  0  0  0  0
  -18.0324  -26.0067   22.9015 H   0  0  0  0  0  0
  -19.7934  -30.7263   24.2277 H   0  0  0  0  0  0
  -17.5015  -31.6268   24.5160 H   0  0  0  0  0  0
  -15.5350  -30.2988   23.7656 H   0  0  0  0  0  0
  -15.8667  -28.0824   22.7066 H   0  0  0  0  0  0
  -24.5910  -30.7066   25.7792 H   0  0  0  0  0  0
  -24.8912  -32.2883   26.4888 H   0  0  0  0  0  0
  -25.8066  -30.8906   27.0232 H   0  0  0  0  0  0
  -26.2897  -29.6779   24.1198 H   0  0  0  0  0  0
  -27.4053  -29.7285   25.4656 H   0  0  0  0  0  0
  -27.8754  -30.4329   23.9362 H   0  0  0  0  0  0
  -27.2671  -33.3633   26.2071 H   0  0  0  0  0  0
  -28.3858  -32.6895   25.0313 H   0  0  0  0  0  0
  -28.0727  -31.8458   26.5404 H   0  0  0  0  0  0
  -28.2596  -38.0099   24.7518 H   0  0  0  0  0  0
  -28.1078  -36.2632   24.6282 H   0  0  0  0  0  0
  -27.2298  -37.1444   25.8867 H   0  0  0  0  0  0
  -20.9339  -29.8769   21.6916 H   0  0  0  0  0  0
  -26.0173  -38.2856   24.1418 H   0  0  0  0  0  0
  -30.4108  -23.3026   18.9372 H   0  0  0  0  0  0
  -30.9740  -24.1663   20.3385 H   0  0  0  0  0  0
  -26.8245  -23.0831   20.1782 H   0  0  0  0  0  0
  -27.8359  -22.6320   18.8387 H   0  0  0  0  0  0
  -30.5390  -22.2121   21.7850 H   0  0  0  0  0  0
  -31.5934  -21.7836   20.4682 H   0  0  0  0  0  0
  -27.4432  -20.6722   20.2977 H   0  0  0  0  0  0
  -28.0397  -21.5326   21.6897 H   0  0  0  0  0  0
  -28.7072  -24.1973   21.3132 H   0  0  0  0  0  0
  -29.7095  -20.7141   19.2485 H   0  0  0  0  0  0
  -27.7420  -25.1134   18.7002 H   0  0  0  0  0  0
  -29.3853  -25.4639   18.7801 H   0  0  0  0  0  0
  -30.3799  -17.1783   22.2549 H   0  0  0  0  0  0
  -31.4149  -17.1640   20.8631 H   0  0  0  0  0  0
  -28.4861  -18.1523   20.7600 H   0  0  0  0  0  0
  -29.6483  -18.2374   19.4574 H   0  0  0  0  0  0
  -28.9503  -15.4568   21.1364 H   0  0  0  0  0  0
  -29.7430  -19.7042   22.0133 H   0  0  0  0  0  0
  -31.0021  -19.5921   21.0124 H   0  0  0  0  0  0
  1 25  1  0  0  0
  1 30  2  0  0  0
  1 80  1  0  0  0
  2  3  1  0  0  0
  2 25  1  0  0  0
  2 82  1  0  0  0
  2 83  1  0  0  0
  3  4  1  0  0  0
  3 84  1  0  0  0
  3 85  1  0  0  0
  4  5  1  0  0  0
  4 86  1  0  0  0
  4 87  1  0  0  0
  5  6  1  0  0  0
  5 26  1  0  0  0
  5 88  1  0  0  0
  6 25  1  0  0  0
  6 89  1  0  0  0
  6 90  1  0  0  0
  7  8  2  0  0  0
  7 26  1  0  0  0
  7 29  1  0  0  0
  8  9  1  0  0  0
  8 22  1  0  0  0
  9 10  1  0  0  0
  9 27  2  0  0  0
 10 11  2  0  0  0
 10 15  1  0  0  0
 11 12  1  0  0  0
 11 91  1  0  0  0
 12 13  2  0  0  0
 12 92  1  0  0  0
 13 14  1  0  0  0
 13 31  1  0  0  0
 14 15  2  0  0  0
 14 93  1  0  0  0
 15 94  1  0  0  0
 16 17  2  0  0  0
 16 21  1  0  0  0
 16 31  1  0  0  0
 17 18  1  0  0  0
 17 95  1  0  0  0
 18 19  2  0  0  0
 18 96  1  0  0  0
 19 20  1  0  0  0
 19 24  1  0  0  0
 20 21  2  0  0  0
 20 97  1  0  0  0
 21 23  1  0  0  0
 22 28  1  0  0  0
 22 32  2  0  0  0
 26 27  1  0  0  0
 28 98  1  0  0  0
 28 99  1  0  0  0
 29100  1  0  0  0
 29101  1  0  0  0
 33 34  1  0  0  0
 33 66  1  0  0  0
 33 70  2  0  0  0
 34 36  1  0  0  0
 34 59  1  0  0  0
 34102  1  0  0  0
 35 44  2  0  0  0
 35 45  1  0  0  0
 35 68  1  0  0  0
 36 56  1  0  0  0
 36103  1  0  0  0
 37 39  1  0  0  0
 37 47  1  0  0  0
 37 66  1  0  0  0
 37104  1  0  0  0
 38 43  2  0  0  0
 38 46  1  0  0  0
 38 47  1  0  0  0
 39 64  1  0  0  0
 39 67  2  0  0  0
 40 52  1  0  0  0
 40 53  2  0  0  0
 40 58  1  0  0  0
 41105  1  0  0  0
 41106  1  0  0  0
 41107  1  0  0  0
 41 48  1  0  0  0
 42 43  1  0  0  0
 42 66  1  0  0  0
 42108  1  0  0  0
 42109  1  0  0  0
 43 44  1  0  0  0
 44110  1  0  0  0
 45 46  2  0  0  0
 45111  1  0  0  0
 46112  1  0  0  0
 47113  1  0  0  0
 47114  1  0  0  0
 48 56  1  0  0  0
 48 65  1  0  0  0
 48115  1  0  0  0
 49 50  1  0  0  0
 49 53  1  0  0  0
 49 64  1  0  0  0
 49116  1  0  0  0
 50 51  1  0  0  0
 50117  1  0  0  0
 50118  1  0  0  0
 51 52  1  0  0  0
 51119  1  0  0  0
 51120  1  0  0  0
 52121  1  0  0  0
 52122  1  0  0  0
 53 54  1  0  0  0
 54 55  2  0  0  0
 54123  1  0  0  0
 55 57  1  0  0  0
 55124  1  0  0  0
 56 69  2  0  0  0
 57 58  2  0  0  0
 57125  1  0  0  0
 58126  1  0  0  0
 59 60  1  0  0  0
 59 61  1  0  0  0
 59 62  1  0  0  0
 60127  1  0  0  0
 60128  1  0  0  0
 60129  1  0  0  0
 61130  1  0  0  0
 61131  1  0  0  0
 61132  1  0  0  0
 62133  1  0  0  0
 62134  1  0  0  0
 62135  1  0  0  0
 63 65  1  0  0  0
 63136  1  0  0  0
 63137  1  0  0  0
 63138  1  0  0  0
 64139  1  0  0  0
 65140  1  0  0  0
 68 77  1  0  0  0
 71 73  1  0  0  0
 71 75  1  0  0  0
 71141  1  0  0  0
 71142  1  0  0  0
 72 74  1  0  0  0
 72 75  1  0  0  0
 72143  1  0  0  0
 72144  1  0  0  0
 73 76  1  0  0  0
 73145  1  0  0  0
 73146  1  0  0  0
 74 76  1  0  0  0
 74147  1  0  0  0
 74148  1  0  0  0
 75 77  1  0  0  0
 75149  1  0  0  0
 76 81  1  0  0  0
 76150  1  0  0  0
 77151  1  0  0  0
 77152  1  0  0  0
 78 79  1  0  0  0
 78 80  1  0  0  0
 78153  1  0  0  0
 78154  1  0  0  0
 79 81  1  0  0  0
 79155  1  0  0  0
 79156  1  0  0  0
 80157  1  0  0  0
 81158  1  0  0  0
 81159  1  0  0  0
M  CHG  1  81   1
M  ISO  4   1 100  68 101  77 101  80 100
M  END
> <chiral flag>
0

> <version>
0

> <s_m_source_file>
/data/baiqing/PycharmProjects/Reinvent-master-3.2/result/LINK_invent/BTK/process_docking_weight1_custom_sum_contain_oxygen_bond_distance_aromatic_linkinvent_7_9_3/rearranged_h_0126.sdf

> <i_m_source_file_index>
76

> <r_mmod_Potential_Energy-OPLS-2005>
-152.838165283203

> <r_mmod_Stretch_Energy-OPLS-2005>
64.4404754638672

> <r_mmod_Bend_Energy-OPLS-2005>
140.56721496582

> <r_mmod_Torsional_Energy-OPLS-2005>
229.718780517578

> <r_mmod_Improper_Torsional_Energy-OPLS-2005>
3.75444364547729

> <r_mmod_Van_der_Waal_Energy-OPLS-2005>
130.652481079102

> <r_mmod_Electrostatic_Energy-OPLS-2005>
-277.11572265625

> <r_mmod_Solvation_Energy-OPLS-2005>
-479.000396728516

> <b_mmod_Minimization_Converged-OPLS-2005>
0

> <r_mmod_RMS_Derivative-OPLS-2005>
0.337198555469513

$$$$
76
                    3D
 Structure written by MMmdl.
157166  0  0  1  0            999 V2000
  -30.5860  -14.8605   20.4097 C   0  0  0  0  0  0
  -30.4332  -12.5236   19.5012 C   0  0  0  0  0  0
  -29.5220  -12.5129   18.2547 C   0  0  0  0  0  0
  -28.0495  -12.3239   18.6673 C   0  0  0  0  0  0
  -27.6357  -13.2484   19.8444 C   0  0  2  0  0  0
  -28.6784  -13.2494   20.9837 C   0  0  0  0  0  0
  -25.2481  -13.8232   20.5722 C   0  0  0  0  0  0
  -24.1787  -13.0455   20.9235 C   0  0  0  0  0  0
  -24.6399  -11.6940   20.8752 C   0  0  0  0  0  0
  -23.9092  -10.4300   21.0400 C   0  0  0  0  0  0
  -24.3639   -9.4213   21.9181 C   0  0  0  0  0  0
  -23.6311   -8.2249   22.0753 C   0  0  0  0  0  0
  -22.4295   -8.0288   21.3538 C   0  0  0  0  0  0
  -21.9929   -9.0270   20.4647 C   0  0  0  0  0  0
  -22.7263  -10.2148   20.3051 C   0  0  0  0  0  0
  -21.6862   -6.0748   22.5273 C   0  0  0  0  0  0
  -21.4027   -6.5646   23.8214 C   0  0  0  0  0  0
  -21.3664   -5.6788   24.9164 C   0  0  0  0  0  0
  -21.6046   -4.3056   24.7215 C   0  0  0  0  0  0
  -21.8817   -3.8156   23.4335 C   0  0  0  0  0  0
  -21.9190   -4.6972   22.3392 C   0  0  0  0  0  0
  -22.7805  -13.5223   21.1870 C   0  0  0  0  0  0
  -22.1654   -4.2164   21.0963 F   0  0  0  0  0  0
  -21.5622   -3.4536   25.7726 F   0  0  0  0  0  0
  -29.9656  -13.6220   20.3897 N   0  0  0  0  0  0
  -26.2914  -12.9473   20.3273 N   0  0  0  0  0  0
  -25.9338  -11.6603   20.5762 N   0  0  0  0  0  0
  -22.0437  -12.8233   22.0426 N   0  0  0  0  0  0
  -25.4120  -15.1966   20.4151 N   0  0  0  0  0  0
  -31.7824  -14.9080   20.1093 O   0  0  0  0  0  0
  -21.6644   -6.8898   21.4239 O   0  0  0  0  0  0
  -22.3490  -14.5509   20.6677 O   0  0  0  0  0  0
  -24.6379  -31.8489   23.1937 C   0  0  0  0  0  0
  -25.9175  -32.4722   23.8314 C   0  0  1  0  0  0
  -27.2163  -27.1884   20.1336 C   0  0  0  0  0  0
  -25.5943  -33.8529   24.2230 N   0  0  0  0  0  0
  -23.4385  -30.4712   21.5376 C   0  0  2  0  0  0
  -24.8855  -28.9032   20.1132 C   0  0  0  0  0  0
  -22.7529  -29.4577   22.4868 C   0  0  0  0  0  0
  -18.0294  -28.1379   22.8471 C   0  0  0  0  0  0
  -24.1492  -36.7267   23.2637 C   0  0  0  0  0  0
  -25.9918  -30.7396   21.3824 C   0  0  0  0  0  0
  -26.0628  -29.3548   20.7219 C   0  0  0  0  0  0
  -27.2317  -28.5139   20.7121 C   0  0  0  0  0  0
  -26.0091  -26.8196   19.4997 C   0  0  0  0  0  0
  -24.8669  -27.6461   19.4913 C   0  0  0  0  0  0
  -23.6625  -29.8021   20.1558 C   0  0  0  0  0  0
  -25.4119  -36.3049   24.0320 C   0  0  1  0  0  0
  -20.5907  -28.3707   23.1236 C   0  0  2  0  0  0
  -20.6781  -26.9417   22.5392 C   0  0  0  0  0  0
  -19.5761  -26.6369   21.5194 C   0  0  0  0  0  0
  -18.1942  -26.7920   22.1605 C   0  0  0  0  0  0
  -19.1551  -28.8857   23.2851 C   0  0  0  0  0  0
  -18.9467  -30.1450   23.8887 C   0  0  0  0  0  0
  -17.6467  -30.6588   24.0545 C   0  0  0  0  0  0
  -25.9065  -34.9418   23.5081 C   0  0  0  0  0  0
  -16.5357  -29.9085   23.6316 C   0  0  0  0  0  0
  -16.7277  -28.6489   23.0357 C   0  0  0  0  0  0
  -26.4518  -31.6569   25.0731 C   0  0  0  0  0  0
  -25.3721  -31.3740   26.1436 C   0  0  0  0  0  0
  -27.0366  -30.2970   24.6262 C   0  0  0  0  0  0
  -27.6052  -32.4322   25.7516 C   0  0  0  0  0  0
  -27.5580  -37.1790   24.8464 C   0  0  0  0  0  0
  -21.4229  -29.3053   22.3619 N   0  0  0  0  0  0
  -26.4287  -37.3758   23.9416 N   0  0  0  0  0  0
  -24.7095  -31.0393   22.0940 N   0  0  0  0  0  0
  -23.4195  -28.8103   23.2982 O   0  0  0  0  0  0
  -28.2925  -26.2486   20.1848 O   0  0  0  0  0  0
  -26.5640  -34.8907   22.4655 O   0  0  0  0  0  0
  -23.5502  -32.1333   23.7185 O   0  0  0  0  0  0
  -28.4638  -21.1058   19.6269 C   0  0  0  0  0  0
  -28.6770  -19.6653   19.5688 C   0  0  0  0  0  0
  -30.4623  -19.8573   21.1016 C   0  0  0  0  0  0
  -29.2665  -22.0070   20.4080 C   0  0  0  0  0  0
  -30.2612  -21.2877   21.1665 C   0  0  0  0  0  0
  -29.7130  -18.9642   20.2805 C   0  0  0  0  0  0
  -31.1861  -22.0597   22.1018 C   0  0  0  0  0  0
  -31.3139  -23.5507   21.7651 C   0  0  0  0  0  0
  -29.2760  -23.6595   20.3757 C   0  0  1  0  0  0
  -30.2447  -17.4516   19.9467 C   0  0  0  0  0  0
  -28.0485  -24.7280   20.0983 C   0  0  0  0  0  0
  -29.8434  -16.0566   20.5107 N   0  0  0  0  0  0
  -29.9843  -24.1575   21.5732 N   0  3  0  0  0  0
  -31.4754  -12.6425   19.2009 H   0  0  0  0  0  0
  -30.3893  -11.5662   20.0226 H   0  0  0  0  0  0
  -29.8247  -11.7190   17.5709 H   0  0  0  0  0  0
  -29.6353  -13.4498   17.7060 H   0  0  0  0  0  0
  -27.9250  -11.2801   18.9602 H   0  0  0  0  0  0
  -27.3932  -12.4770   17.8106 H   0  0  0  0  0  0
  -27.6113  -14.2579   19.4311 H   0  0  0  0  0  0
  -28.7411  -12.2716   21.4647 H   0  0  0  0  0  0
  -28.3988  -13.9617   21.7621 H   0  0  0  0  0  0
  -25.2775   -9.5702   22.4755 H   0  0  0  0  0  0
  -24.0020   -7.4651   22.7486 H   0  0  0  0  0  0
  -21.0848   -8.8807   19.8961 H   0  0  0  0  0  0
  -22.3719  -10.9696   19.6164 H   0  0  0  0  0  0
  -21.2032   -7.6159   23.9727 H   0  0  0  0  0  0
  -21.1484   -6.0507   25.9067 H   0  0  0  0  0  0
  -22.0591   -2.7619   23.2813 H   0  0  0  0  0  0
  -22.4054  -11.9921   22.4864 H   0  0  0  0  0  0
  -21.1042  -13.1254   22.2598 H   0  0  0  0  0  0
  -24.6388  -15.8431   20.5296 H   0  0  0  0  0  0
  -26.2495  -15.6431   20.0649 H   0  0  0  0  0  0
  -26.7236  -32.5336   23.1042 H   0  0  0  0  0  0
  -25.0096  -33.9664   25.0377 H   0  0  0  0  0  0
  -22.7389  -31.2959   21.3863 H   0  0  0  0  0  0
  -23.3763  -35.9591   23.3285 H   0  0  0  0  0  0
  -24.3572  -36.8908   22.2054 H   0  0  0  0  0  0
  -23.7239  -37.6456   23.6678 H   0  0  0  0  0  0
  -26.1393  -31.4984   20.6124 H   0  0  0  0  0  0
  -26.8657  -30.7902   22.0212 H   0  0  0  0  0  0
  -28.1358  -28.8565   21.1975 H   0  0  0  0  0  0
  -25.9130  -25.8591   19.0179 H   0  0  0  0  0  0
  -23.9632  -27.2935   19.0146 H   0  0  0  0  0  0
  -23.8022  -30.5790   19.4035 H   0  0  0  0  0  0
  -22.7778  -29.2471   19.8398 H   0  0  0  0  0  0
  -25.1306  -36.1886   25.0812 H   0  0  0  0  0  0
  -21.0003  -28.3296   24.1352 H   0  0  0  0  0  0
  -20.5660  -26.2324   23.3607 H   0  0  0  0  0  0
  -21.6652  -26.7422   22.1207 H   0  0  0  0  0  0
  -19.6937  -25.6272   21.1246 H   0  0  0  0  0  0
  -19.6710  -27.3150   20.6704 H   0  0  0  0  0  0
  -17.4211  -26.6645   21.4011 H   0  0  0  0  0  0
  -18.0364  -26.0062   22.9004 H   0  0  0  0  0  0
  -19.7946  -30.7252   24.2272 H   0  0  0  0  0  0
  -17.5024  -31.6269   24.5150 H   0  0  0  0  0  0
  -15.5359  -30.2983   23.7650 H   0  0  0  0  0  0
  -15.8670  -28.0796   22.7103 H   0  0  0  0  0  0
  -24.5898  -30.7091   25.7759 H   0  0  0  0  0  0
  -24.8910  -32.2915   26.4836 H   0  0  0  0  0  0
  -25.8018  -30.8928   27.0231 H   0  0  0  0  0  0
  -26.2960  -29.6707   24.1274 H   0  0  0  0  0  0
  -27.4001  -29.7253   25.4812 H   0  0  0  0  0  0
  -27.8870  -30.4219   23.9554 H   0  0  0  0  0  0
  -27.2653  -33.3626   26.2077 H   0  0  0  0  0  0
  -28.3886  -32.6872   25.0369 H   0  0  0  0  0  0
  -28.0707  -31.8461   26.5449 H   0  0  0  0  0  0
  -28.2583  -38.0098   24.7512 H   0  0  0  0  0  0
  -28.1089  -36.2625   24.6289 H   0  0  0  0  0  0
  -27.2293  -37.1438   25.8864 H   0  0  0  0  0  0
  -20.9420  -29.8783   21.6830 H   0  0  0  0  0  0
  -26.0156  -38.2829   24.1417 H   0  0  0  0  0  0
  -27.6919  -21.5229   18.9953 H   0  0  0  0  0  0
  -28.0626  -19.0979   18.8826 H   0  0  0  0  0  0
  -31.2898  -19.4371   21.6594 H   0  0  0  0  0  0
  -32.1803  -21.6099   22.0888 H   0  0  0  0  0  0
  -30.8127  -21.9437   23.1198 H   0  0  0  0  0  0
  -31.9172  -23.6915   20.8671 H   0  0  0  0  0  0
  -31.8361  -24.0656   22.5729 H   0  0  0  0  0  0
  -29.9550  -23.8609   19.5465 H   0  0  0  0  0  0
  -31.3289  -17.5113   20.0563 H   0  0  0  0  0  0
  -30.0989  -17.3520   18.8696 H   0  0  0  0  0  0
  -27.2376  -24.4980   20.7894 H   0  0  0  0  0  0
  -27.6638  -24.5097   19.1019 H   0  0  0  0  0  0
  -28.8722  -15.9505   20.7629 H   0  0  0  0  0  0
  -30.0939  -25.1548   21.4746 H   0  0  0  0  0  0
  -29.4221  -23.9940   22.3929 H   0  0  0  0  0  0
  1 25  1  0  0  0
  1 30  2  0  0  0
  1 82  1  0  0  0
  2  3  1  0  0  0
  2 25  1  0  0  0
  2 84  1  0  0  0
  2 85  1  0  0  0
  3  4  1  0  0  0
  3 86  1  0  0  0
  3 87  1  0  0  0
  4  5  1  0  0  0
  4 88  1  0  0  0
  4 89  1  0  0  0
  5  6  1  0  0  0
  5 26  1  0  0  0
  5 90  1  0  0  0
  6 25  1  0  0  0
  6 91  1  0  0  0
  6 92  1  0  0  0
  7  8  2  0  0  0
  7 26  1  0  0  0
  7 29  1  0  0  0
  8  9  1  0  0  0
  8 22  1  0  0  0
  9 10  1  0  0  0
  9 27  2  0  0  0
 10 11  2  0  0  0
 10 15  1  0  0  0
 11 12  1  0  0  0
 11 93  1  0  0  0
 12 13  2  0  0  0
 12 94  1  0  0  0
 13 14  1  0  0  0
 13 31  1  0  0  0
 14 15  2  0  0  0
 14 95  1  0  0  0
 15 96  1  0  0  0
 16 17  2  0  0  0
 16 21  1  0  0  0
 16 31  1  0  0  0
 17 18  1  0  0  0
 17 97  1  0  0  0
 18 19  2  0  0  0
 18 98  1  0  0  0
 19 20  1  0  0  0
 19 24  1  0  0  0
 20 21  2  0  0  0
 20 99  1  0  0  0
 21 23  1  0  0  0
 22 28  1  0  0  0
 22 32  2  0  0  0
 26 27  1  0  0  0
 28100  1  0  0  0
 28101  1  0  0  0
 29102  1  0  0  0
 29103  1  0  0  0
 33 34  1  0  0  0
 33 66  1  0  0  0
 33 70  2  0  0  0
 34 36  1  0  0  0
 34 59  1  0  0  0
 34104  1  0  0  0
 35 44  2  0  0  0
 35 45  1  0  0  0
 35 68  1  0  0  0
 36 56  1  0  0  0
 36105  1  0  0  0
 37 39  1  0  0  0
 37 47  1  0  0  0
 37 66  1  0  0  0
 37106  1  0  0  0
 38 43  2  0  0  0
 38 46  1  0  0  0
 38 47  1  0  0  0
 39 64  1  0  0  0
 39 67  2  0  0  0
 40 52  1  0  0  0
 40 53  2  0  0  0
 40 58  1  0  0  0
 41107  1  0  0  0
 41108  1  0  0  0
 41109  1  0  0  0
 41 48  1  0  0  0
 42 43  1  0  0  0
 42 66  1  0  0  0
 42110  1  0  0  0
 42111  1  0  0  0
 43 44  1  0  0  0
 44112  1  0  0  0
 45 46  2  0  0  0
 45113  1  0  0  0
 46114  1  0  0  0
 47115  1  0  0  0
 47116  1  0  0  0
 48 56  1  0  0  0
 48 65  1  0  0  0
 48117  1  0  0  0
 49 50  1  0  0  0
 49 53  1  0  0  0
 49 64  1  0  0  0
 49118  1  0  0  0
 50 51  1  0  0  0
 50119  1  0  0  0
 50120  1  0  0  0
 51 52  1  0  0  0
 51121  1  0  0  0
 51122  1  0  0  0
 52123  1  0  0  0
 52124  1  0  0  0
 53 54  1  0  0  0
 54 55  2  0  0  0
 54125  1  0  0  0
 55 57  1  0  0  0
 55126  1  0  0  0
 56 69  2  0  0  0
 57 58  2  0  0  0
 57127  1  0  0  0
 58128  1  0  0  0
 59 60  1  0  0  0
 59 61  1  0  0  0
 59 62  1  0  0  0
 60129  1  0  0  0
 60130  1  0  0  0
 60131  1  0  0  0
 61132  1  0  0  0
 61133  1  0  0  0
 61134  1  0  0  0
 62135  1  0  0  0
 62136  1  0  0  0
 62137  1  0  0  0
 63 65  1  0  0  0
 63138  1  0  0  0
 63139  1  0  0  0
 63140  1  0  0  0
 64141  1  0  0  0
 65142  1  0  0  0
 68 81  1  0  0  0
 71 72  2  0  0  0
 71 74  1  0  0  0
 71143  1  0  0  0
 72 76  1  0  0  0
 72144  1  0  0  0
 73 75  1  0  0  0
 73 76  2  0  0  0
 73145  1  0  0  0
 74 75  2  0  0  0
 74 79  1  0  0  0
 75 77  1  0  0  0
 76 80  1  0  0  0
 77 78  1  0  0  0
 77146  1  0  0  0
 77147  1  0  0  0
 78 83  1  0  0  0
 78148  1  0  0  0
 78149  1  0  0  0
 79 81  1  0  0  0
 79 83  1  0  0  0
 79150  1  0  0  0
 80 82  1  0  0  0
 80151  1  0  0  0
 80152  1  0  0  0
 81153  1  0  0  0
 81154  1  0  0  0
 82155  1  0  0  0
 83156  1  0  0  0
 83157  1  0  0  0
M  CHG  1  83   1
M  ISO  4   1 100  68 101  81 101  82 100
M  END
> <chiral flag>
0

> <version>
0

> <s_m_source_file>
/data/baiqing/PycharmProjects/Reinvent-master-3.2/result/LINK_invent/BTK/process_docking_weight1_custom_sum_contain_oxygen_bond_distance_aromatic_linkinvent_7_9_3/rearranged_h_0126.sdf

> <i_m_source_file_index>
77

> <r_mmod_Potential_Energy-OPLS-2005>
164.773483276367

> <r_mmod_Stretch_Energy-OPLS-2005>
191.68864440918

> <r_mmod_Bend_Energy-OPLS-2005>
239.45442199707

> <r_mmod_Torsional_Energy-OPLS-2005>
250.946029663086

> <r_mmod_Improper_Torsional_Energy-OPLS-2005>
9.83747863769531

> <r_mmod_Van_der_Waal_Energy-OPLS-2005>
139.565704345703

> <r_mmod_Electrostatic_Energy-OPLS-2005>
-353.0458984375

> <r_mmod_Solvation_Energy-OPLS-2005>
-453.927764892578

> <b_mmod_Minimization_Converged-OPLS-2005>
0

> <r_mmod_RMS_Derivative-OPLS-2005>
2.41688585281372

$$$$
77
                    3D
 Structure written by MMmdl.
174183  0  0  1  0            999 V2000
  -30.8239  -14.2865   20.7282 C   0  0  0  0  0  0
  -30.4060  -12.2726   19.3755 C   0  0  0  0  0  0
  -29.4717  -12.5341   18.1829 C   0  0  0  0  0  0
  -28.0021  -12.3839   18.6097 C   0  0  0  0  0  0
  -27.6689  -13.2033   19.8827 C   0  0  2  0  0  0
  -28.7089  -12.9464   20.9979 C   0  0  0  0  0  0
  -25.2621  -13.8159   20.5690 C   0  0  0  0  0  0
  -24.1858  -13.0443   20.9167 C   0  0  0  0  0  0
  -24.6397  -11.6909   20.8729 C   0  0  0  0  0  0
  -23.9060  -10.4295   21.0398 C   0  0  0  0  0  0
  -24.3609   -9.4211   21.9179 C   0  0  0  0  0  0
  -23.6282   -8.2249   22.0758 C   0  0  0  0  0  0
  -22.4265   -8.0285   21.3548 C   0  0  0  0  0  0
  -21.9898   -9.0260   20.4651 C   0  0  0  0  0  0
  -22.7232  -10.2137   20.3054 C   0  0  0  0  0  0
  -21.6855   -6.0733   22.5279 C   0  0  0  0  0  0
  -21.4012   -6.5637   23.8211 C   0  0  0  0  0  0
  -21.3656   -5.6791   24.9174 C   0  0  0  0  0  0
  -21.6045   -4.3055   24.7225 C   0  0  0  0  0  0
  -21.8815   -3.8143   23.4347 C   0  0  0  0  0  0
  -21.9189   -4.6958   22.3402 C   0  0  0  0  0  0
  -22.7882  -13.5248   21.1830 C   0  0  0  0  0  0
  -22.1662   -4.2142   21.0980 F   0  0  0  0  0  0
  -21.5624   -3.4543   25.7740 F   0  0  0  0  0  0
  -30.0604  -13.1979   20.4629 N   0  0  0  0  0  0
  -26.3066  -12.9328   20.3417 N   0  0  0  0  0  0
  -25.9327  -11.6488   20.5778 N   0  0  0  0  0  0
  -22.0510  -12.8246   22.0379 N   0  0  0  0  0  0
  -25.4352  -15.1878   20.4106 N   0  0  0  0  0  0
  -31.7622  -14.6563   20.0126 O   0  0  0  0  0  0
  -21.6638   -6.8877   21.4241 O   0  0  0  0  0  0
  -22.3577  -14.5562   20.6689 O   0  0  0  0  0  0
  -24.6101  -31.8709   23.2133 C   0  0  0  0  0  0
  -25.9012  -32.4832   23.8415 C   0  0  1  0  0  0
  -27.2345  -27.4680   20.0885 C   0  0  0  0  0  0
  -25.5897  -33.8632   24.2347 N   0  0  0  0  0  0
  -23.3955  -30.4946   21.5522 C   0  0  2  0  0  0
  -24.8418  -28.9639   20.1140 C   0  0  0  0  0  0
  -22.7378  -29.4670   22.5006 C   0  0  0  0  0  0
  -18.0264  -28.1382   22.8496 C   0  0  0  0  0  0
  -24.1490  -36.7321   23.2640 C   0  0  0  0  0  0
  -25.9201  -30.8415   21.3656 C   0  0  0  0  0  0
  -25.9959  -29.4765   20.7194 C   0  0  0  0  0  0
  -27.1910  -28.7304   20.7147 C   0  0  0  0  0  0
  -26.0711  -26.9737   19.4548 C   0  0  0  0  0  0
  -24.8711  -27.7077   19.4844 C   0  0  0  0  0  0
  -23.6019  -29.8261   20.1663 C   0  0  0  0  0  0
  -25.4109  -36.3116   24.0338 C   0  0  1  0  0  0
  -20.5847  -28.3660   23.1333 C   0  0  2  0  0  0
  -20.6757  -26.9401   22.5421 C   0  0  0  0  0  0
  -19.5736  -26.6387   21.5215 C   0  0  0  0  0  0
  -18.1912  -26.7929   22.1622 C   0  0  0  0  0  0
  -19.1511  -28.8835   23.2912 C   0  0  0  0  0  0
  -18.9441  -30.1443   23.8923 C   0  0  0  0  0  0
  -17.6443  -30.6584   24.0576 C   0  0  0  0  0  0
  -25.9033  -34.9479   23.5133 C   0  0  0  0  0  0
  -16.5337  -29.9085   23.6334 C   0  0  0  0  0  0
  -16.7255  -28.6506   23.0350 C   0  0  0  0  0  0
  -26.4461  -31.6603   25.0725 C   0  0  0  0  0  0
  -25.3750  -31.3680   26.1491 C   0  0  0  0  0  0
  -27.0292  -30.3058   24.6065 C   0  0  0  0  0  0
  -27.6052  -32.4321   25.7472 C   0  0  0  0  0  0
  -27.5578  -37.1808   24.8464 C   0  0  0  0  0  0
  -21.4110  -29.3036   22.3743 N   0  0  0  0  0  0
  -26.4297  -37.3794   23.9407 N   0  0  0  0  0  0
  -24.6596  -31.0835   22.1025 N   0  0  0  0  0  0
  -23.4170  -28.8215   23.3030 O   0  0  0  0  0  0
  -28.4300  -26.7895   20.0514 O   0  0  0  0  0  0
  -26.5584  -34.8916   22.4687 O   0  0  0  0  0  0
  -23.5304  -32.1454   23.7545 O   0  0  0  0  0  0
  -27.5202  -24.6377   20.8443 C   0  0  0  0  0  0
  -27.6823  -23.2423   20.8985 C   0  0  0  0  0  0
  -28.8739  -22.6762   20.3752 C   0  0  0  0  0  0
  -29.8284  -23.5601   19.8063 C   0  0  0  0  0  0
  -28.5030  -25.4246   20.2134 C   0  0  0  0  0  0
  -30.9406  -14.2367   24.3224 C   0  0  0  0  0  0
  -31.6121  -14.5362   22.9743 C   0  0  0  0  0  0
  -30.0753  -16.2238   21.8952 C   0  0  0  0  0  0
  -30.5583  -15.5029   25.1029 C   0  0  0  0  0  0
  -30.1613  -17.0788   23.1896 C   0  0  1  0  0  0
  -26.5726  -22.4046   21.5152 C   0  0  0  0  0  0
  -31.1456  -23.0835   19.2194 C   0  0  0  0  0  0
  -29.1038  -21.1601   20.3849 C   0  0  0  0  0  0
  -29.4597  -18.4530   23.0233 C   0  0  0  0  0  0
  -29.8553  -19.2363   21.7497 C   0  0  0  0  0  0
  -29.6396  -24.8927   19.7273 N   0  0  0  0  0  0
  -30.6193  -14.8543   21.9349 N   0  0  0  0  0  0
  -29.6086  -16.3684   24.3716 N   0  3  0  0  0  0
  -29.3356  -20.6209   21.7428 N   0  3  0  0  0  0
  -31.4493  -12.3637   19.0670 H   0  0  0  0  0  0
  -30.2932  -11.2451   19.7248 H   0  0  0  0  0  0
  -29.6964  -11.8427   17.3696 H   0  0  0  0  0  0
  -29.6434  -13.5368   17.7893 H   0  0  0  0  0  0
  -27.8135  -11.3251   18.7904 H   0  0  0  0  0  0
  -27.3413  -12.6752   17.7924 H   0  0  0  0  0  0
  -27.7276  -14.2574   19.6109 H   0  0  0  0  0  0
  -28.6507  -11.9124   21.3408 H   0  0  0  0  0  0
  -28.4713  -13.5583   21.8684 H   0  0  0  0  0  0
  -25.2752   -9.5687   22.4758 H   0  0  0  0  0  0
  -23.9989   -7.4642   22.7483 H   0  0  0  0  0  0
  -21.0828   -8.8780   19.8962 H   0  0  0  0  0  0
  -22.3688  -10.9674   19.6167 H   0  0  0  0  0  0
  -21.2009   -7.6146   23.9711 H   0  0  0  0  0  0
  -21.1478   -6.0525   25.9076 H   0  0  0  0  0  0
  -22.0592   -2.7605   23.2854 H   0  0  0  0  0  0
  -22.4101  -11.9897   22.4767 H   0  0  0  0  0  0
  -21.1132  -13.1294   22.2583 H   0  0  0  0  0  0
  -24.6658  -15.8423   20.5049 H   0  0  0  0  0  0
  -26.2864  -15.6233   20.0781 H   0  0  0  0  0  0
  -26.7082  -32.5556   23.1187 H   0  0  0  0  0  0
  -25.0100  -33.9817   25.0523 H   0  0  0  0  0  0
  -22.6820  -31.3102   21.4140 H   0  0  0  0  0  0
  -23.3743  -35.9665   23.3322 H   0  0  0  0  0  0
  -24.3595  -36.8911   22.2053 H   0  0  0  0  0  0
  -23.7246  -37.6529   23.6643 H   0  0  0  0  0  0
  -26.0313  -31.6052   20.5946 H   0  0  0  0  0  0
  -26.8095  -30.8968   21.9812 H   0  0  0  0  0  0
  -28.0851  -29.1242   21.1783 H   0  0  0  0  0  0
  -26.0904  -26.0256   18.9359 H   0  0  0  0  0  0
  -23.9883  -27.3129   19.0017 H   0  0  0  0  0  0
  -23.7053  -30.6006   19.4056 H   0  0  0  0  0  0
  -22.7274  -29.2422   19.8729 H   0  0  0  0  0  0
  -25.1283  -36.1989   25.0830 H   0  0  0  0  0  0
  -20.9944  -28.3224   24.1452 H   0  0  0  0  0  0
  -20.5674  -26.2265   23.3604 H   0  0  0  0  0  0
  -21.6627  -26.7457   22.1200 H   0  0  0  0  0  0
  -19.6904  -25.6302   21.1232 H   0  0  0  0  0  0
  -19.6674  -27.3215   20.6757 H   0  0  0  0  0  0
  -17.4181  -26.6687   21.4018 H   0  0  0  0  0  0
  -18.0308  -26.0057   22.9001 H   0  0  0  0  0  0
  -19.7918  -30.7253   24.2293 H   0  0  0  0  0  0
  -17.4999  -31.6267   24.5169 H   0  0  0  0  0  0
  -15.5340  -30.2996   23.7637 H   0  0  0  0  0  0
  -15.8656  -28.0831   22.7054 H   0  0  0  0  0  0
  -24.5934  -30.7013   25.7830 H   0  0  0  0  0  0
  -24.8933  -32.2821   26.4973 H   0  0  0  0  0  0
  -25.8132  -30.8832   27.0223 H   0  0  0  0  0  0
  -26.2810  -29.6809   24.1177 H   0  0  0  0  0  0
  -27.4146  -29.7302   25.4487 H   0  0  0  0  0  0
  -27.8608  -30.4400   23.9146 H   0  0  0  0  0  0
  -27.2692  -33.3624   26.2065 H   0  0  0  0  0  0
  -28.3845  -32.6875   25.0277 H   0  0  0  0  0  0
  -28.0740  -31.8435   26.5368 H   0  0  0  0  0  0
  -28.2598  -38.0103   24.7515 H   0  0  0  0  0  0
  -28.1068  -36.2633   24.6287 H   0  0  0  0  0  0
  -27.2299  -37.1453   25.8867 H   0  0  0  0  0  0
  -20.9262  -29.8772   21.6982 H   0  0  0  0  0  0
  -26.0189  -38.2871   24.1401 H   0  0  0  0  0  0
  -26.6319  -25.0939   21.2576 H   0  0  0  0  0  0
  -31.6341  -13.6615   24.9381 H   0  0  0  0  0  0
  -30.0716  -13.5926   24.1809 H   0  0  0  0  0  0
  -32.1790  -13.6442   22.6928 H   0  0  0  0  0  0
  -32.3619  -15.3240   23.0613 H   0  0  0  0  0  0
  -30.5896  -16.7637   21.0974 H   0  0  0  0  0  0
  -29.0316  -16.1525   21.5830 H   0  0  0  0  0  0
  -31.4516  -16.0711   25.3673 H   0  0  0  0  0  0
  -30.0980  -15.2113   26.0476 H   0  0  0  0  0  0
  -31.2116  -17.3032   23.3851 H   0  0  0  0  0  0
  -25.6385  -22.9652   21.5505 H   0  0  0  0  0  0
  -26.8256  -22.1231   22.5369 H   0  0  0  0  0  0
  -26.3719  -21.5028   20.9380 H   0  0  0  0  0  0
  -31.7089  -22.5048   19.9512 H   0  0  0  0  0  0
  -31.7752  -23.9199   18.9125 H   0  0  0  0  0  0
  -30.9735  -22.4655   18.3382 H   0  0  0  0  0  0
  -29.9484  -20.8919   19.7516 H   0  0  0  0  0  0
  -28.2476  -20.6609   19.9300 H   0  0  0  0  0  0
  -29.6866  -19.0626   23.8991 H   0  0  0  0  0  0
  -28.3775  -18.3125   23.0224 H   0  0  0  0  0  0
  -29.4581  -18.7145   20.8771 H   0  0  0  0  0  0
  -30.9400  -19.2686   21.6299 H   0  0  0  0  0  0
  -29.3144  -17.0663   25.0364 H   0  0  0  0  0  0
  -28.7868  -15.8433   24.1203 H   0  0  0  0  0  0
  -28.4657  -20.6426   22.2470 H   0  0  0  0  0  0
  -29.9897  -21.2119   22.2308 H   0  0  0  0  0  0
  1 25  1  0  0  0
  1 30  2  0  0  0
  1 87  1  0  0  0
  2  3  1  0  0  0
  2 25  1  0  0  0
  2 90  1  0  0  0
  2 91  1  0  0  0
  3  4  1  0  0  0
  3 92  1  0  0  0
  3 93  1  0  0  0
  4  5  1  0  0  0
  4 94  1  0  0  0
  4 95  1  0  0  0
  5  6  1  0  0  0
  5 26  1  0  0  0
  5 96  1  0  0  0
  6 25  1  0  0  0
  6 97  1  0  0  0
  6 98  1  0  0  0
  7  8  2  0  0  0
  7 26  1  0  0  0
  7 29  1  0  0  0
  8  9  1  0  0  0
  8 22  1  0  0  0
  9 10  1  0  0  0
  9 27  2  0  0  0
 10 11  2  0  0  0
 10 15  1  0  0  0
 11 12  1  0  0  0
 11 99  1  0  0  0
 12 13  2  0  0  0
 12100  1  0  0  0
 13 14  1  0  0  0
 13 31  1  0  0  0
 14 15  2  0  0  0
 14101  1  0  0  0
 15102  1  0  0  0
 16 17  2  0  0  0
 16 21  1  0  0  0
 16 31  1  0  0  0
 17 18  1  0  0  0
 17103  1  0  0  0
 18 19  2  0  0  0
 18104  1  0  0  0
 19 20  1  0  0  0
 19 24  1  0  0  0
 20 21  2  0  0  0
 20105  1  0  0  0
 21 23  1  0  0  0
 22 28  1  0  0  0
 22 32  2  0  0  0
 26 27  1  0  0  0
 28106  1  0  0  0
 28107  1  0  0  0
 29108  1  0  0  0
 29109  1  0  0  0
 33 34  1  0  0  0
 33 66  1  0  0  0
 33 70  2  0  0  0
 34 36  1  0  0  0
 34 59  1  0  0  0
 34110  1  0  0  0
 35 44  2  0  0  0
 35 45  1  0  0  0
 35 68  1  0  0  0
 36 56  1  0  0  0
 36111  1  0  0  0
 37 39  1  0  0  0
 37 47  1  0  0  0
 37 66  1  0  0  0
 37112  1  0  0  0
 38 43  2  0  0  0
 38 46  1  0  0  0
 38 47  1  0  0  0
 39 64  1  0  0  0
 39 67  2  0  0  0
 40 52  1  0  0  0
 40 53  2  0  0  0
 40 58  1  0  0  0
 41113  1  0  0  0
 41114  1  0  0  0
 41115  1  0  0  0
 41 48  1  0  0  0
 42 43  1  0  0  0
 42 66  1  0  0  0
 42116  1  0  0  0
 42117  1  0  0  0
 43 44  1  0  0  0
 44118  1  0  0  0
 45 46  2  0  0  0
 45119  1  0  0  0
 46120  1  0  0  0
 47121  1  0  0  0
 47122  1  0  0  0
 48 56  1  0  0  0
 48 65  1  0  0  0
 48123  1  0  0  0
 49 50  1  0  0  0
 49 53  1  0  0  0
 49 64  1  0  0  0
 49124  1  0  0  0
 50 51  1  0  0  0
 50125  1  0  0  0
 50126  1  0  0  0
 51 52  1  0  0  0
 51127  1  0  0  0
 51128  1  0  0  0
 52129  1  0  0  0
 52130  1  0  0  0
 53 54  1  0  0  0
 54 55  2  0  0  0
 54131  1  0  0  0
 55 57  1  0  0  0
 55132  1  0  0  0
 56 69  2  0  0  0
 57 58  2  0  0  0
 57133  1  0  0  0
 58134  1  0  0  0
 59 60  1  0  0  0
 59 61  1  0  0  0
 59 62  1  0  0  0
 60135  1  0  0  0
 60136  1  0  0  0
 60137  1  0  0  0
 61138  1  0  0  0
 61139  1  0  0  0
 61140  1  0  0  0
 62141  1  0  0  0
 62142  1  0  0  0
 62143  1  0  0  0
 63 65  1  0  0  0
 63144  1  0  0  0
 63145  1  0  0  0
 63146  1  0  0  0
 64147  1  0  0  0
 65148  1  0  0  0
 68 75  1  0  0  0
 71 72  2  0  0  0
 71 75  1  0  0  0
 71149  1  0  0  0
 72 73  1  0  0  0
 72 81  1  0  0  0
 73 74  2  0  0  0
 73 83  1  0  0  0
 74 82  1  0  0  0
 74 86  1  0  0  0
 75 86  2  0  0  0
 76 77  1  0  0  0
 76 79  1  0  0  0
 76150  1  0  0  0
 76151  1  0  0  0
 77 87  1  0  0  0
 77152  1  0  0  0
 77153  1  0  0  0
 78 80  1  0  0  0
 78 87  1  0  0  0
 78154  1  0  0  0
 78155  1  0  0  0
 79 88  1  0  0  0
 79156  1  0  0  0
 79157  1  0  0  0
 80 84  1  0  0  0
 80 88  1  0  0  0
 80158  1  0  0  0
 81159  1  0  0  0
 81160  1  0  0  0
 81161  1  0  0  0
 82162  1  0  0  0
 82163  1  0  0  0
 82164  1  0  0  0
 83 89  1  0  0  0
 83165  1  0  0  0
 83166  1  0  0  0
 84 85  1  0  0  0
 84167  1  0  0  0
 84168  1  0  0  0
 85 89  1  0  0  0
 85169  1  0  0  0
 85170  1  0  0  0
 88171  1  0  0  0
 88172  1  0  0  0
 89173  1  0  0  0
 89174  1  0  0  0
M  CHG  2  88   1  89   1
M  ISO  4   1 100  68 101  75 101  87 100
M  END
> <chiral flag>
0

> <version>
0

> <s_m_source_file>
/data/baiqing/PycharmProjects/Reinvent-master-3.2/result/LINK_invent/BTK/process_docking_weight1_custom_sum_contain_oxygen_bond_distance_aromatic_linkinvent_7_9_3/rearranged_h_0126.sdf

> <i_m_source_file_index>
78

> <r_mmod_Potential_Energy-OPLS-2005>
-255.108413696289

> <r_mmod_Stretch_Energy-OPLS-2005>
35.6497650146484

> <r_mmod_Bend_Energy-OPLS-2005>
108.211669921875

> <r_mmod_Torsional_Energy-OPLS-2005>
358.786865234375

> <r_mmod_Improper_Torsional_Energy-OPLS-2005>
6.75766038894653

> <r_mmod_Van_der_Waal_Energy-OPLS-2005>
166.685821533203

> <r_mmod_Electrostatic_Energy-OPLS-2005>
60.1017723083496

> <r_mmod_Solvation_Energy-OPLS-2005>
-999.766479492188

> <b_mmod_Minimization_Converged-OPLS-2005>
0

> <r_mmod_RMS_Derivative-OPLS-2005>
1.27065527439117

$$$$
78
                    3D
 Structure written by MMmdl.
152160  0  0  1  0            999 V2000
  -30.6214  -14.7373   20.4858 C   0  0  0  0  0  0
  -30.4392  -12.4601   19.4605 C   0  0  0  0  0  0
  -29.5085  -12.5076   18.2287 C   0  0  0  0  0  0
  -28.0365  -12.3274   18.6488 C   0  0  0  0  0  0
  -27.6445  -13.2287   19.8505 C   0  0  2  0  0  0
  -28.6928  -13.1571   20.9819 C   0  0  0  0  0  0
  -25.2523  -13.8190   20.5682 C   0  0  0  0  0  0
  -24.1807  -13.0435   20.9211 C   0  0  0  0  0  0
  -24.6397  -11.6913   20.8755 C   0  0  0  0  0  0
  -23.9072  -10.4287   21.0411 C   0  0  0  0  0  0
  -24.3627   -9.4200   21.9182 C   0  0  0  0  0  0
  -23.6301   -8.2239   22.0757 C   0  0  0  0  0  0
  -22.4285   -8.0280   21.3539 C   0  0  0  0  0  0
  -21.9915   -9.0257   20.4642 C   0  0  0  0  0  0
  -22.7252  -10.2129   20.3056 C   0  0  0  0  0  0
  -21.6853   -6.0740   22.5281 C   0  0  0  0  0  0
  -21.4006   -6.5645   23.8215 C   0  0  0  0  0  0
  -21.3666   -5.6798   24.9181 C   0  0  0  0  0  0
  -21.6048   -4.3060   24.7227 C   0  0  0  0  0  0
  -21.8824   -3.8149   23.4351 C   0  0  0  0  0  0
  -21.9191   -4.6965   22.3407 C   0  0  0  0  0  0
  -22.7834  -13.5215   21.1872 C   0  0  0  0  0  0
  -22.1658   -4.2153   21.0983 F   0  0  0  0  0  0
  -21.5638   -3.4546   25.7739 F   0  0  0  0  0  0
  -29.9919  -13.5159   20.3959 N   0  0  0  0  0  0
  -26.2957  -12.9392   20.3291 N   0  0  0  0  0  0
  -25.9329  -11.6535   20.5759 N   0  0  0  0  0  0
  -22.0480  -12.8202   22.0422 N   0  0  0  0  0  0
  -25.4189  -15.1910   20.4099 N   0  0  0  0  0  0
  -31.8127  -14.8463   20.1880 O   0  0  0  0  0  0
  -21.6646   -6.8881   21.4239 O   0  0  0  0  0  0
  -22.3527  -14.5532   20.6741 O   0  0  0  0  0  0
  -24.6324  -31.8549   23.2014 C   0  0  0  0  0  0
  -25.9154  -32.4753   23.8348 C   0  0  1  0  0  0
  -27.2160  -27.2564   20.1232 C   0  0  0  0  0  0
  -25.5952  -33.8560   24.2256 N   0  0  0  0  0  0
  -23.4291  -30.4811   21.5453 C   0  0  2  0  0  0
  -24.8755  -28.9349   20.1126 C   0  0  0  0  0  0
  -22.7508  -29.4601   22.4913 C   0  0  0  0  0  0
  -18.0295  -28.1393   22.8474 C   0  0  0  0  0  0
  -24.1497  -36.7284   23.2637 C   0  0  0  0  0  0
  -25.9783  -30.7669   21.3836 C   0  0  0  0  0  0
  -26.0509  -29.3916   20.7213 C   0  0  0  0  0  0
  -27.2244  -28.5669   20.7159 C   0  0  0  0  0  0
  -26.0118  -26.8803   19.4786 C   0  0  0  0  0  0
  -24.8611  -27.6873   19.4809 C   0  0  0  0  0  0
  -23.6488  -29.8226   20.1603 C   0  0  0  0  0  0
  -25.4127  -36.3066   24.0314 C   0  0  1  0  0  0
  -20.5898  -28.3704   23.1262 C   0  0  2  0  0  0
  -20.6788  -26.9422   22.5401 C   0  0  0  0  0  0
  -19.5766  -26.6382   21.5205 C   0  0  0  0  0  0
  -18.1945  -26.7934   22.1618 C   0  0  0  0  0  0
  -19.1548  -28.8865   23.2862 C   0  0  0  0  0  0
  -18.9469  -30.1466   23.8881 C   0  0  0  0  0  0
  -17.6468  -30.6590   24.0561 C   0  0  0  0  0  0
  -25.9063  -34.9438   23.5084 C   0  0  0  0  0  0
  -16.5358  -29.9083   23.6340 C   0  0  0  0  0  0
  -16.7280  -28.6507   23.0346 C   0  0  0  0  0  0
  -26.4513  -31.6588   25.0744 C   0  0  0  0  0  0
  -25.3728  -31.3737   26.1452 C   0  0  0  0  0  0
  -27.0361  -30.3004   24.6243 C   0  0  0  0  0  0
  -27.6060  -32.4327   25.7525 C   0  0  0  0  0  0
  -27.5576  -37.1808   24.8465 C   0  0  0  0  0  0
  -21.4211  -29.3048   22.3654 N   0  0  0  0  0  0
  -26.4300  -37.3763   23.9393 N   0  0  0  0  0  0
  -24.6989  -31.0518   22.0995 N   0  0  0  0  0  0
  -23.4212  -28.8122   23.2994 O   0  0  0  0  0  0
  -28.2949  -26.3319   20.1838 O   0  0  0  0  0  0
  -26.5626  -34.8908   22.4646 O   0  0  0  0  0  0
  -23.5474  -32.1367   23.7314 O   0  0  0  0  0  0
  -30.8875  -21.5676   20.2285 C   0  0  0  0  0  0
  -28.6053  -22.2787   20.5249 C   0  0  0  0  0  0
  -31.2190  -22.9307   20.0138 C   0  0  0  0  0  0
  -29.5573  -21.1835   20.5032 C   0  0  0  0  0  0
  -28.9711  -23.6669   20.2854 C   0  0  0  0  0  0
  -27.9324  -24.8652   20.1705 C   0  0  0  0  0  0
  -29.7928  -18.5468   20.1481 C   0  0  0  0  0  0
  -30.2201  -17.2964   21.0843 C   0  0  0  0  0  0
  -30.2767  -23.9080   20.0461 N   0  3  0  0  0  0
  -29.2307  -19.7986   20.7960 N   0  0  0  0  0  0
  -29.8452  -15.8554   20.7382 N   0  0  0  0  0  0
  -31.4753  -12.6011   19.1488 H   0  0  0  0  0  0
  -30.4009  -11.4823   19.9433 H   0  0  0  0  0  0
  -29.7907  -11.7373   17.5107 H   0  0  0  0  0  0
  -29.6294  -13.4626   17.7142 H   0  0  0  0  0  0
  -27.8979  -11.2791   18.9155 H   0  0  0  0  0  0
  -27.3761  -12.5145   17.8009 H   0  0  0  0  0  0
  -27.6397  -14.2510   19.4719 H   0  0  0  0  0  0
  -28.7325  -12.1558   21.4139 H   0  0  0  0  0  0
  -28.4281  -13.8325   21.7978 H   0  0  0  0  0  0
  -25.2774   -9.5696   22.4749 H   0  0  0  0  0  0
  -24.0021   -7.4641   22.7486 H   0  0  0  0  0  0
  -21.0851   -8.8791   19.8942 H   0  0  0  0  0  0
  -22.3721  -10.9681   19.6172 H   0  0  0  0  0  0
  -21.1984   -7.6148   23.9723 H   0  0  0  0  0  0
  -21.1486   -6.0522   25.9086 H   0  0  0  0  0  0
  -22.0589   -2.7612   23.2854 H   0  0  0  0  0  0
  -22.4110  -11.9863   22.4803 H   0  0  0  0  0  0
  -21.1100  -13.1222   22.2629 H   0  0  0  0  0  0
  -24.6479  -15.8409   20.5190 H   0  0  0  0  0  0
  -26.2616  -15.6331   20.0655 H   0  0  0  0  0  0
  -26.7218  -32.5396   23.1084 H   0  0  0  0  0  0
  -25.0113  -33.9698   25.0410 H   0  0  0  0  0  0
  -22.7256  -31.3039   21.4023 H   0  0  0  0  0  0
  -23.3751  -35.9625   23.3306 H   0  0  0  0  0  0
  -24.3579  -36.8904   22.2049 H   0  0  0  0  0  0
  -23.7267  -37.6493   23.6664 H   0  0  0  0  0  0
  -26.1215  -31.5302   20.6171 H   0  0  0  0  0  0
  -26.8536  -30.8108   22.0203 H   0  0  0  0  0  0
  -28.1191  -28.9136   21.2125 H   0  0  0  0  0  0
  -25.9058  -25.9388   18.9661 H   0  0  0  0  0  0
  -23.9598  -27.3344   18.9968 H   0  0  0  0  0  0
  -23.7820  -30.6020   19.4088 H   0  0  0  0  0  0
  -22.7656  -29.2608   19.8506 H   0  0  0  0  0  0
  -25.1315  -36.1907   25.0806 H   0  0  0  0  0  0
  -20.9986  -28.3283   24.1386 H   0  0  0  0  0  0
  -20.5694  -26.2308   23.3605 H   0  0  0  0  0  0
  -21.6654  -26.7449   22.1194 H   0  0  0  0  0  0
  -19.6930  -25.6288   21.1248 H   0  0  0  0  0  0
  -19.6714  -27.3181   20.6730 H   0  0  0  0  0  0
  -17.4212  -26.6667   21.4024 H   0  0  0  0  0  0
  -18.0360  -26.0083   22.9026 H   0  0  0  0  0  0
  -19.7941  -30.7287   24.2244 H   0  0  0  0  0  0
  -17.5020  -31.6271   24.5161 H   0  0  0  0  0  0
  -15.5358  -30.2978   23.7676 H   0  0  0  0  0  0
  -15.8682  -28.0825   22.7062 H   0  0  0  0  0  0
  -24.5909  -30.7082   25.7776 H   0  0  0  0  0  0
  -24.8911  -32.2905   26.4862 H   0  0  0  0  0  0
  -25.8033  -30.8924   27.0240 H   0  0  0  0  0  0
  -26.2956  -29.6750   24.1240 H   0  0  0  0  0  0
  -27.4007  -29.7269   25.4773 H   0  0  0  0  0  0
  -27.8849  -30.4268   23.9518 H   0  0  0  0  0  0
  -27.2666  -33.3624   26.2097 H   0  0  0  0  0  0
  -28.3885  -32.6884   25.0372 H   0  0  0  0  0  0
  -28.0713  -31.8455   26.5450 H   0  0  0  0  0  0
  -28.2603  -38.0094   24.7480 H   0  0  0  0  0  0
  -28.1062  -36.2617   24.6336 H   0  0  0  0  0  0
  -27.2279  -37.1512   25.8866 H   0  0  0  0  0  0
  -20.9406  -29.8786   21.6868 H   0  0  0  0  0  0
  -26.0170  -38.2833   24.1386 H   0  0  0  0  0  0
  -31.6756  -20.8303   20.2109 H   0  0  0  0  0  0
  -27.5636  -22.0614   20.7114 H   0  0  0  0  0  0
  -32.2286  -23.2629   19.8136 H   0  0  0  0  0  0
  -27.1740  -24.6986   20.9379 H   0  0  0  0  0  0
  -27.4653  -24.6464   19.2127 H   0  0  0  0  0  0
  -29.0317  -18.1969   19.4506 H   0  0  0  0  0  0
  -30.6381  -18.8208   19.5156 H   0  0  0  0  0  0
  -31.2985  -17.3453   21.2454 H   0  0  0  0  0  0
  -29.7873  -17.4638   22.0711 H   0  0  0  0  0  0
  -30.5609  -24.8739   19.8646 H   0  0  0  0  0  0
  -28.2861  -19.6715   21.1459 H   0  0  0  0  0  0
  -28.8666  -15.6453   20.8659 H   0  0  0  0  0  0
  1 25  1  0  0  0
  1 30  2  0  0  0
  1 81  1  0  0  0
  2  3  1  0  0  0
  2 25  1  0  0  0
  2 82  1  0  0  0
  2 83  1  0  0  0
  3  4  1  0  0  0
  3 84  1  0  0  0
  3 85  1  0  0  0
  4  5  1  0  0  0
  4 86  1  0  0  0
  4 87  1  0  0  0
  5  6  1  0  0  0
  5 26  1  0  0  0
  5 88  1  0  0  0
  6 25  1  0  0  0
  6 89  1  0  0  0
  6 90  1  0  0  0
  7  8  2  0  0  0
  7 26  1  0  0  0
  7 29  1  0  0  0
  8  9  1  0  0  0
  8 22  1  0  0  0
  9 10  1  0  0  0
  9 27  2  0  0  0
 10 11  2  0  0  0
 10 15  1  0  0  0
 11 12  1  0  0  0
 11 91  1  0  0  0
 12 13  2  0  0  0
 12 92  1  0  0  0
 13 14  1  0  0  0
 13 31  1  0  0  0
 14 15  2  0  0  0
 14 93  1  0  0  0
 15 94  1  0  0  0
 16 17  2  0  0  0
 16 21  1  0  0  0
 16 31  1  0  0  0
 17 18  1  0  0  0
 17 95  1  0  0  0
 18 19  2  0  0  0
 18 96  1  0  0  0
 19 20  1  0  0  0
 19 24  1  0  0  0
 20 21  2  0  0  0
 20 97  1  0  0  0
 21 23  1  0  0  0
 22 28  1  0  0  0
 22 32  2  0  0  0
 26 27  1  0  0  0
 28 98  1  0  0  0
 28 99  1  0  0  0
 29100  1  0  0  0
 29101  1  0  0  0
 33 34  1  0  0  0
 33 66  1  0  0  0
 33 70  2  0  0  0
 34 36  1  0  0  0
 34 59  1  0  0  0
 34102  1  0  0  0
 35 44  2  0  0  0
 35 45  1  0  0  0
 35 68  1  0  0  0
 36 56  1  0  0  0
 36103  1  0  0  0
 37 39  1  0  0  0
 37 47  1  0  0  0
 37 66  1  0  0  0
 37104  1  0  0  0
 38 43  2  0  0  0
 38 46  1  0  0  0
 38 47  1  0  0  0
 39 64  1  0  0  0
 39 67  2  0  0  0
 40 52  1  0  0  0
 40 53  2  0  0  0
 40 58  1  0  0  0
 41105  1  0  0  0
 41106  1  0  0  0
 41107  1  0  0  0
 41 48  1  0  0  0
 42 43  1  0  0  0
 42 66  1  0  0  0
 42108  1  0  0  0
 42109  1  0  0  0
 43 44  1  0  0  0
 44110  1  0  0  0
 45 46  2  0  0  0
 45111  1  0  0  0
 46112  1  0  0  0
 47113  1  0  0  0
 47114  1  0  0  0
 48 56  1  0  0  0
 48 65  1  0  0  0
 48115  1  0  0  0
 49 50  1  0  0  0
 49 53  1  0  0  0
 49 64  1  0  0  0
 49116  1  0  0  0
 50 51  1  0  0  0
 50117  1  0  0  0
 50118  1  0  0  0
 51 52  1  0  0  0
 51119  1  0  0  0
 51120  1  0  0  0
 52121  1  0  0  0
 52122  1  0  0  0
 53 54  1  0  0  0
 54 55  2  0  0  0
 54123  1  0  0  0
 55 57  1  0  0  0
 55124  1  0  0  0
 56 69  2  0  0  0
 57 58  2  0  0  0
 57125  1  0  0  0
 58126  1  0  0  0
 59 60  1  0  0  0
 59 61  1  0  0  0
 59 62  1  0  0  0
 60127  1  0  0  0
 60128  1  0  0  0
 60129  1  0  0  0
 61130  1  0  0  0
 61131  1  0  0  0
 61132  1  0  0  0
 62133  1  0  0  0
 62134  1  0  0  0
 62135  1  0  0  0
 63 65  1  0  0  0
 63136  1  0  0  0
 63137  1  0  0  0
 63138  1  0  0  0
 64139  1  0  0  0
 65140  1  0  0  0
 68 76  1  0  0  0
 71 73  2  0  0  0
 71 74  1  0  0  0
 71141  1  0  0  0
 72 74  2  0  0  0
 72 75  1  0  0  0
 72142  1  0  0  0
 73 79  1  0  0  0
 73143  1  0  0  0
 74 80  1  0  0  0
 75 76  1  0  0  0
 75 79  2  0  0  0
 76144  1  0  0  0
 76145  1  0  0  0
 77 78  1  0  0  0
 77 80  1  0  0  0
 77146  1  0  0  0
 77147  1  0  0  0
 78 81  1  0  0  0
 78148  1  0  0  0
 78149  1  0  0  0
 79150  1  0  0  0
 80151  1  0  0  0
 81152  1  0  0  0
M  CHG  1  79   1
M  ISO  4   1 100  68 101  76 101  81 100
M  END
> <chiral flag>
0

> <version>
0

> <s_m_source_file>
/data/baiqing/PycharmProjects/Reinvent-master-3.2/result/LINK_invent/BTK/process_docking_weight1_custom_sum_contain_oxygen_bond_distance_aromatic_linkinvent_7_9_3/rearranged_h_0126.sdf

> <i_m_source_file_index>
79

> <r_mmod_Potential_Energy-OPLS-2005>
-47.5192222595215

> <r_mmod_Stretch_Energy-OPLS-2005>
117.645378112793

> <r_mmod_Bend_Energy-OPLS-2005>
174.522918701172

> <r_mmod_Torsional_Energy-OPLS-2005>
211.318695068359

> <r_mmod_Improper_Torsional_Energy-OPLS-2005>
6.34891891479492

> <r_mmod_Van_der_Waal_Energy-OPLS-2005>
143.759582519531

> <r_mmod_Electrostatic_Energy-OPLS-2005>
-348.403442382812

> <r_mmod_Solvation_Energy-OPLS-2005>
-440.619537353516

> <b_mmod_Minimization_Converged-OPLS-2005>
0

> <r_mmod_RMS_Derivative-OPLS-2005>
1.65953099727631

$$$$
79
                    3D
 Structure written by MMmdl.
175184  0  0  1  0            999 V2000
  -30.8480  -14.2734   20.7590 C   0  0  0  0  0  0
  -30.4090  -12.2909   19.3668 C   0  0  0  0  0  0
  -29.4679  -12.5390   18.1779 C   0  0  0  0  0  0
  -28.0004  -12.3809   18.6093 C   0  0  0  0  0  0
  -27.6670  -13.2055   19.8777 C   0  0  2  0  0  0
  -28.7103  -12.9622   20.9934 C   0  0  0  0  0  0
  -25.2619  -13.8172   20.5694 C   0  0  0  0  0  0
  -24.1848  -13.0435   20.9162 C   0  0  0  0  0  0
  -24.6406  -11.6922   20.8740 C   0  0  0  0  0  0
  -23.9055  -10.4299   21.0405 C   0  0  0  0  0  0
  -24.3609   -9.4215   21.9181 C   0  0  0  0  0  0
  -23.6292   -8.2250   22.0754 C   0  0  0  0  0  0
  -22.4270   -8.0283   21.3543 C   0  0  0  0  0  0
  -21.9906   -9.0255   20.4647 C   0  0  0  0  0  0
  -22.7239  -10.2140   20.3057 C   0  0  0  0  0  0
  -21.6851   -6.0734   22.5277 C   0  0  0  0  0  0
  -21.4017   -6.5639   23.8210 C   0  0  0  0  0  0
  -21.3656   -5.6789   24.9169 C   0  0  0  0  0  0
  -21.6044   -4.3046   24.7229 C   0  0  0  0  0  0
  -21.8817   -3.8149   23.4349 C   0  0  0  0  0  0
  -21.9195   -4.6960   22.3412 C   0  0  0  0  0  0
  -22.7875  -13.5252   21.1840 C   0  0  0  0  0  0
  -22.1661   -4.2153   21.0982 F   0  0  0  0  0  0
  -21.5627   -3.4542   25.7740 F   0  0  0  0  0  0
  -30.0606  -13.2139   20.4548 N   0  0  0  0  0  0
  -26.3050  -12.9345   20.3391 N   0  0  0  0  0  0
  -25.9329  -11.6499   20.5778 N   0  0  0  0  0  0
  -22.0510  -12.8236   22.0399 N   0  0  0  0  0  0
  -25.4324  -15.1883   20.4071 N   0  0  0  0  0  0
  -31.7580  -14.6829   20.0347 O   0  0  0  0  0  0
  -21.6634   -6.8884   21.4240 O   0  0  0  0  0  0
  -22.3555  -14.5553   20.6688 O   0  0  0  0  0  0
  -24.6167  -31.8689   23.2225 C   0  0  0  0  0  0
  -25.9079  -32.4811   23.8501 C   0  0  1  0  0  0
  -27.2186  -27.4455   20.0853 C   0  0  0  0  0  0
  -25.5973  -33.8616   24.2410 N   0  0  0  0  0  0
  -23.4015  -30.5082   21.5588 C   0  0  2  0  0  0
  -24.8400  -28.9846   20.1169 C   0  0  0  0  0  0
  -22.7432  -29.4714   22.4981 C   0  0  0  0  0  0
  -18.0273  -28.1377   22.8485 C   0  0  0  0  0  0
  -24.1495  -36.7285   23.2641 C   0  0  0  0  0  0
  -25.9345  -30.8373   21.3794 C   0  0  0  0  0  0
  -26.0071  -29.4800   20.7120 C   0  0  0  0  0  0
  -27.1998  -28.7215   20.6898 C   0  0  0  0  0  0
  -26.0188  -26.9711   19.4935 C   0  0  0  0  0  0
  -24.8396  -27.7260   19.5090 C   0  0  0  0  0  0
  -23.6091  -29.8606   20.1677 C   0  0  0  0  0  0
  -25.4109  -36.3107   24.0359 C   0  0  1  0  0  0
  -20.5884  -28.3677   23.1327 C   0  0  2  0  0  0
  -20.6794  -26.9429   22.5401 C   0  0  0  0  0  0
  -19.5767  -26.6394   21.5203 C   0  0  0  0  0  0
  -18.1937  -26.7938   22.1600 C   0  0  0  0  0  0
  -19.1516  -28.8832   23.2908 C   0  0  0  0  0  0
  -18.9440  -30.1450   23.8906 C   0  0  0  0  0  0
  -17.6437  -30.6577   24.0568 C   0  0  0  0  0  0
  -25.9019  -34.9452   23.5148 C   0  0  0  0  0  0
  -16.5339  -29.9056   23.6350 C   0  0  0  0  0  0
  -16.7271  -28.6490   23.0349 C   0  0  0  0  0  0
  -26.4513  -31.6596   25.0827 C   0  0  0  0  0  0
  -25.3845  -31.3622   26.1621 C   0  0  0  0  0  0
  -27.0394  -30.3076   24.6189 C   0  0  0  0  0  0
  -27.6125  -32.4333   25.7566 C   0  0  0  0  0  0
  -27.5586  -37.1803   24.8474 C   0  0  0  0  0  0
  -21.4156  -29.3040   22.3708 N   0  0  0  0  0  0
  -26.4290  -37.3773   23.9420 N   0  0  0  0  0  0
  -24.6693  -31.0828   22.1118 N   0  0  0  0  0  0
  -23.4246  -28.8200   23.2963 O   0  0  0  0  0  0
  -28.3792  -26.6905   20.0988 O   0  0  0  0  0  0
  -26.5510  -34.8873   22.4666 O   0  0  0  0  0  0
  -23.5376  -32.1483   23.7621 O   0  0  0  0  0  0
  -27.5945  -22.4426   19.5479 C   0  0  0  0  0  0
  -29.3268  -21.8147   20.7975 C   0  0  0  0  0  0
  -28.7980  -22.9044   20.1665 C   0  0  0  0  0  0
  -27.3474  -21.1613   19.9462 C   0  0  0  0  0  0
  -30.8228  -21.0978   24.4681 C   0  0  0  0  0  0
  -29.3353  -21.2827   24.7237 C   0  0  0  0  0  0
  -31.0774  -19.6038   24.2894 C   0  0  0  0  0  0
  -28.9122  -19.5465   22.9701 C   0  0  2  0  0  0
  -26.1686  -20.2860   19.6377 C   0  0  0  0  0  0
  -29.3264  -24.3330   20.1723 C   0  0  0  0  0  0
  -28.5090  -19.4870   21.4588 C   0  0  0  0  0  0
  -31.6688  -16.9616   22.6057 C   0  0  0  0  0  0
  -31.7455  -15.4310   22.7684 C   0  0  0  0  0  0
  -30.3481  -17.5566   23.1276 C   0  0  0  0  0  0
  -28.1582  -25.2907   19.9129 C   0  0  0  0  0  0
  -28.3974  -20.7770   20.7689 N   0  0  0  0  0  0
  -28.6237  -20.8891   23.5164 N   0  0  0  0  0  0
  -30.7208  -14.6969   22.0228 N   0  0  0  0  0  0
  -30.3187  -19.0491   23.1336 N   0  3  2  0  0  0
  -31.4486  -12.3968   19.0509 H   0  0  0  0  0  0
  -30.3109  -11.2631   19.7204 H   0  0  0  0  0  0
  -29.6959  -11.8467   17.3655 H   0  0  0  0  0  0
  -29.6300  -13.5430   17.7818 H   0  0  0  0  0  0
  -27.8180  -11.3218   18.7947 H   0  0  0  0  0  0
  -27.3366  -12.6655   17.7923 H   0  0  0  0  0  0
  -27.7224  -14.2580   19.5992 H   0  0  0  0  0  0
  -28.6554  -11.9307   21.3460 H   0  0  0  0  0  0
  -28.4672  -13.5875   21.8537 H   0  0  0  0  0  0
  -25.2752   -9.5689   22.4754 H   0  0  0  0  0  0
  -24.0001   -7.4637   22.7472 H   0  0  0  0  0  0
  -21.0833   -8.8773   19.8956 H   0  0  0  0  0  0
  -22.3690  -10.9671   19.6164 H   0  0  0  0  0  0
  -21.2006   -7.6147   23.9717 H   0  0  0  0  0  0
  -21.1478   -6.0518   25.9068 H   0  0  0  0  0  0
  -22.0602   -2.7619   23.2849 H   0  0  0  0  0  0
  -22.4115  -11.9889   22.4783 H   0  0  0  0  0  0
  -21.1128  -13.1276   22.2614 H   0  0  0  0  0  0
  -24.6665  -15.8460   20.5042 H   0  0  0  0  0  0
  -26.2899  -15.6210   20.0869 H   0  0  0  0  0  0
  -26.7134  -32.5503   23.1239 H   0  0  0  0  0  0
  -25.0400  -33.9801   25.0746 H   0  0  0  0  0  0
  -22.6912  -31.3261   21.4320 H   0  0  0  0  0  0
  -23.3771  -35.9604   23.3313 H   0  0  0  0  0  0
  -24.3598  -36.8896   22.2055 H   0  0  0  0  0  0
  -23.7243  -37.6497   23.6632 H   0  0  0  0  0  0
  -26.0639  -31.6104   20.6201 H   0  0  0  0  0  0
  -26.8159  -30.8664   22.0053 H   0  0  0  0  0  0
  -28.0985  -29.1056   21.1513 H   0  0  0  0  0  0
  -25.9373  -26.0096   19.0129 H   0  0  0  0  0  0
  -23.9340  -27.3323   19.0652 H   0  0  0  0  0  0
  -23.7375  -30.6496   19.4248 H   0  0  0  0  0  0
  -22.7191  -29.3028   19.8601 H   0  0  0  0  0  0
  -25.1274  -36.1979   25.0859 H   0  0  0  0  0  0
  -20.9938  -28.3228   24.1446 H   0  0  0  0  0  0
  -20.5756  -26.2269   23.3573 H   0  0  0  0  0  0
  -21.6672  -26.7517   22.1151 H   0  0  0  0  0  0
  -19.6940  -25.6307   21.1227 H   0  0  0  0  0  0
  -19.6706  -27.3211   20.6753 H   0  0  0  0  0  0
  -17.4231  -26.6712   21.3974 H   0  0  0  0  0  0
  -18.0316  -26.0063   22.8976 H   0  0  0  0  0  0
  -19.7922  -30.7278   24.2280 H   0  0  0  0  0  0
  -17.4987  -31.6279   24.5166 H   0  0  0  0  0  0
  -15.5332  -30.2941   23.7700 H   0  0  0  0  0  0
  -15.8680  -28.0802   22.7049 H   0  0  0  0  0  0
  -24.5993  -30.6971   25.7983 H   0  0  0  0  0  0
  -24.9062  -32.2740   26.5231 H   0  0  0  0  0  0
  -25.8315  -30.8725   27.0295 H   0  0  0  0  0  0
  -26.2947  -29.6725   24.1380 H   0  0  0  0  0  0
  -27.4370  -29.7384   25.4605 H   0  0  0  0  0  0
  -27.8677  -30.4444   23.9236 H   0  0  0  0  0  0
  -27.2782  -33.3607   26.2208 H   0  0  0  0  0  0
  -28.3905  -32.6927   25.0380 H   0  0  0  0  0  0
  -28.0828  -31.8442   26.5436 H   0  0  0  0  0  0
  -28.2598  -38.0102   24.7552 H   0  0  0  0  0  0
  -28.1107  -36.2651   24.6296 H   0  0  0  0  0  0
  -27.2307  -37.1455   25.8874 H   0  0  0  0  0  0
  -20.9279  -29.8834   21.6995 H   0  0  0  0  0  0
  -26.0192  -38.2862   24.1431 H   0  0  0  0  0  0
  -26.9226  -23.0156   18.9163 H   0  0  0  0  0  0
  -30.2474  -21.7324   21.3559 H   0  0  0  0  0  0
  -31.4004  -21.4740   25.3122 H   0  0  0  0  0  0
  -31.1516  -21.6613   23.5942 H   0  0  0  0  0  0
  -29.1106  -22.3250   24.9526 H   0  0  0  0  0  0
  -29.0002  -20.6881   25.5754 H   0  0  0  0  0  0
  -30.7923  -19.0833   25.2067 H   0  0  0  0  0  0
  -32.1452  -19.4279   24.1519 H   0  0  0  0  0  0
  -28.2737  -18.8641   23.5345 H   0  0  0  0  0  0
  -25.4437  -20.8077   19.0108 H   0  0  0  0  0  0
  -25.6439  -19.9925   20.5457 H   0  0  0  0  0  0
  -26.4739  -19.3806   19.1110 H   0  0  0  0  0  0
  -30.0993  -24.4623   19.4164 H   0  0  0  0  0  0
  -29.7785  -24.5418   21.1463 H   0  0  0  0  0  0
  -27.5542  -18.9644   21.3940 H   0  0  0  0  0  0
  -29.1992  -18.8725   20.8778 H   0  0  0  0  0  0
  -31.8146  -17.2291   21.5592 H   0  0  0  0  0  0
  -32.5122  -17.3939   23.1440 H   0  0  0  0  0  0
  -31.6449  -15.1712   23.8233 H   0  0  0  0  0  0
  -32.7379  -15.0797   22.4776 H   0  0  0  0  0  0
  -30.1365  -17.1849   24.1321 H   0  0  0  0  0  0
  -29.5431  -17.1672   22.5010 H   0  0  0  0  0  0
  -27.3522  -25.0012   20.5907 H   0  0  0  0  0  0
  -27.8236  -25.1058   18.8924 H   0  0  0  0  0  0
  -28.7602  -21.5650   22.7637 H   0  0  0  0  0  0
  -29.9907  -14.2491   22.5589 H   0  0  0  0  0  0
  -30.8087  -19.3477   22.3045 H   0  0  0  0  0  0
  1 25  1  0  0  0
  1 30  2  0  0  0
  1 88  1  0  0  0
  2  3  1  0  0  0
  2 25  1  0  0  0
  2 90  1  0  0  0
  2 91  1  0  0  0
  3  4  1  0  0  0
  3 92  1  0  0  0
  3 93  1  0  0  0
  4  5  1  0  0  0
  4 94  1  0  0  0
  4 95  1  0  0  0
  5  6  1  0  0  0
  5 26  1  0  0  0
  5 96  1  0  0  0
  6 25  1  0  0  0
  6 97  1  0  0  0
  6 98  1  0  0  0
  7  8  2  0  0  0
  7 26  1  0  0  0
  7 29  1  0  0  0
  8  9  1  0  0  0
  8 22  1  0  0  0
  9 10  1  0  0  0
  9 27  2  0  0  0
 10 11  2  0  0  0
 10 15  1  0  0  0
 11 12  1  0  0  0
 11 99  1  0  0  0
 12 13  2  0  0  0
 12100  1  0  0  0
 13 14  1  0  0  0
 13 31  1  0  0  0
 14 15  2  0  0  0
 14101  1  0  0  0
 15102  1  0  0  0
 16 17  2  0  0  0
 16 21  1  0  0  0
 16 31  1  0  0  0
 17 18  1  0  0  0
 17103  1  0  0  0
 18 19  2  0  0  0
 18104  1  0  0  0
 19 20  1  0  0  0
 19 24  1  0  0  0
 20 21  2  0  0  0
 20105  1  0  0  0
 21 23  1  0  0  0
 22 28  1  0  0  0
 22 32  2  0  0  0
 26 27  1  0  0  0
 28106  1  0  0  0
 28107  1  0  0  0
 29108  1  0  0  0
 29109  1  0  0  0
 33 34  1  0  0  0
 33 66  1  0  0  0
 33 70  2  0  0  0
 34 36  1  0  0  0
 34 59  1  0  0  0
 34110  1  0  0  0
 35 44  2  0  0  0
 35 45  1  0  0  0
 35 68  1  0  0  0
 36 56  1  0  0  0
 36111  1  0  0  0
 37 39  1  0  0  0
 37 47  1  0  0  0
 37 66  1  0  0  0
 37112  1  0  0  0
 38 43  2  0  0  0
 38 46  1  0  0  0
 38 47  1  0  0  0
 39 64  1  0  0  0
 39 67  2  0  0  0
 40 52  1  0  0  0
 40 53  2  0  0  0
 40 58  1  0  0  0
 41113  1  0  0  0
 41114  1  0  0  0
 41115  1  0  0  0
 41 48  1  0  0  0
 42 43  1  0  0  0
 42 66  1  0  0  0
 42116  1  0  0  0
 42117  1  0  0  0
 43 44  1  0  0  0
 44118  1  0  0  0
 45 46  2  0  0  0
 45119  1  0  0  0
 46120  1  0  0  0
 47121  1  0  0  0
 47122  1  0  0  0
 48 56  1  0  0  0
 48 65  1  0  0  0
 48123  1  0  0  0
 49 50  1  0  0  0
 49 53  1  0  0  0
 49 64  1  0  0  0
 49124  1  0  0  0
 50 51  1  0  0  0
 50125  1  0  0  0
 50126  1  0  0  0
 51 52  1  0  0  0
 51127  1  0  0  0
 51128  1  0  0  0
 52129  1  0  0  0
 52130  1  0  0  0
 53 54  1  0  0  0
 54 55  2  0  0  0
 54131  1  0  0  0
 55 57  1  0  0  0
 55132  1  0  0  0
 56 69  2  0  0  0
 57 58  2  0  0  0
 57133  1  0  0  0
 58134  1  0  0  0
 59 60  1  0  0  0
 59 61  1  0  0  0
 59 62  1  0  0  0
 60135  1  0  0  0
 60136  1  0  0  0
 60137  1  0  0  0
 61138  1  0  0  0
 61139  1  0  0  0
 61140  1  0  0  0
 62141  1  0  0  0
 62142  1  0  0  0
 62143  1  0  0  0
 63 65  1  0  0  0
 63144  1  0  0  0
 63145  1  0  0  0
 63146  1  0  0  0
 64147  1  0  0  0
 65148  1  0  0  0
 68 85  1  0  0  0
 71 73  1  0  0  0
 71 74  2  0  0  0
 71149  1  0  0  0
 72 73  2  0  0  0
 72 86  1  0  0  0
 72150  1  0  0  0
 73 80  1  0  0  0
 74 79  1  0  0  0
 74 86  1  0  0  0
 75 76  1  0  0  0
 75 77  1  0  0  0
 75151  1  0  0  0
 75152  1  0  0  0
 76 87  1  0  0  0
 76153  1  0  0  0
 76154  1  0  0  0
 77 89  1  0  0  0
 77155  1  0  0  0
 77156  1  0  0  0
 78 81  1  0  0  0
 78 87  1  0  0  0
 78 89  1  0  0  0
 78157  1  0  0  0
 79158  1  0  0  0
 79159  1  0  0  0
 79160  1  0  0  0
 80 85  1  0  0  0
 80161  1  0  0  0
 80162  1  0  0  0
 81 86  1  0  0  0
 81163  1  0  0  0
 81164  1  0  0  0
 82 83  1  0  0  0
 82 84  1  0  0  0
 82165  1  0  0  0
 82166  1  0  0  0
 83 88  1  0  0  0
 83167  1  0  0  0
 83168  1  0  0  0
 84169  1  0  0  0
 84170  1  0  0  0
 84 89  1  0  0  0
 85171  1  0  0  0
 85172  1  0  0  0
 87173  1  0  0  0
 88174  1  0  0  0
 89175  1  0  0  0
M  CHG  1  89   1
M  ISO  4   1 100  68 101  85 101  88 100
M  END
> <chiral flag>
0

> <version>
0

> <s_m_source_file>
/data/baiqing/PycharmProjects/Reinvent-master-3.2/result/LINK_invent/BTK/process_docking_weight1_custom_sum_contain_oxygen_bond_distance_aromatic_linkinvent_7_9_3/rearranged_h_0126.sdf

> <i_m_source_file_index>
80

> <r_mmod_Potential_Energy-OPLS-2005>
-42.789623260498

> <r_mmod_Stretch_Energy-OPLS-2005>
38.1173286437988

> <r_mmod_Bend_Energy-OPLS-2005>
117.947204589844

> <r_mmod_Torsional_Energy-OPLS-2005>
280.098907470703

> <r_mmod_Improper_Torsional_Energy-OPLS-2005>
5.93174362182617

> <r_mmod_Van_der_Waal_Energy-OPLS-2005>
161.807861328125

> <r_mmod_Electrostatic_Energy-OPLS-2005>
-205.475067138672

> <r_mmod_Solvation_Energy-OPLS-2005>
-453.077972412109

> <b_mmod_Minimization_Converged-OPLS-2005>
0

> <r_mmod_RMS_Derivative-OPLS-2005>
5.43464279174805

$$$$
80
                    3D
 Structure written by MMmdl.
165173  0  0  1  0            999 V2000
  -30.7312  -14.4578   20.6658 C   0  0  0  0  0  0
  -30.4176  -12.3226   19.4444 C   0  0  0  0  0  0
  -29.5004  -12.4960   18.2162 C   0  0  0  0  0  0
  -28.0217  -12.3396   18.6173 C   0  0  0  0  0  0
  -27.6539  -13.1976   19.8546 C   0  0  2  0  0  0
  -28.6766  -12.9969   20.9891 C   0  0  0  0  0  0
  -25.2566  -13.8130   20.5619 C   0  0  0  0  0  0
  -24.1826  -13.0439   20.9162 C   0  0  0  0  0  0
  -24.6351  -11.6895   20.8684 C   0  0  0  0  0  0
  -23.9013  -10.4300   21.0384 C   0  0  0  0  0  0
  -24.3580   -9.4235   21.9180 C   0  0  0  0  0  0
  -23.6275   -8.2257   22.0755 C   0  0  0  0  0  0
  -22.4264   -8.0276   21.3542 C   0  0  0  0  0  0
  -21.9888   -9.0235   20.4633 C   0  0  0  0  0  0
  -22.7188  -10.2125   20.3038 C   0  0  0  0  0  0
  -21.6856   -6.0732   22.5283 C   0  0  0  0  0  0
  -21.4016   -6.5634   23.8214 C   0  0  0  0  0  0
  -21.3656   -5.6782   24.9175 C   0  0  0  0  0  0
  -21.6048   -4.3044   24.7225 C   0  0  0  0  0  0
  -21.8818   -3.8141   23.4341 C   0  0  0  0  0  0
  -21.9192   -4.6962   22.3403 C   0  0  0  0  0  0
  -22.7857  -13.5244   21.1845 C   0  0  0  0  0  0
  -22.1665   -4.2143   21.0980 F   0  0  0  0  0  0
  -21.5630   -3.4534   25.7740 F   0  0  0  0  0  0
  -30.0217  -13.3063   20.4720 N   0  0  0  0  0  0
  -26.2955  -12.9272   20.3183 N   0  0  0  0  0  0
  -25.9257  -11.6449   20.5640 N   0  0  0  0  0  0
  -22.0487  -12.8244   22.0367 N   0  0  0  0  0  0
  -25.4348  -15.1850   20.4076 N   0  0  0  0  0  0
  -31.7902  -14.6702   20.0644 O   0  0  0  0  0  0
  -21.6639   -6.8873   21.4243 O   0  0  0  0  0  0
  -22.3584  -14.5579   20.6709 O   0  0  0  0  0  0
  -24.6123  -31.8696   23.2116 C   0  0  0  0  0  0
  -25.9005  -32.4851   23.8419 C   0  0  1  0  0  0
  -27.2464  -27.4390   20.1139 C   0  0  0  0  0  0
  -25.5834  -33.8639   24.2349 N   0  0  0  0  0  0
  -23.4035  -30.4905   21.5489 C   0  0  2  0  0  0
  -24.8592  -28.9569   20.1166 C   0  0  0  0  0  0
  -22.7408  -29.4668   22.4982 C   0  0  0  0  0  0
  -18.0270  -28.1399   22.8471 C   0  0  0  0  0  0
  -24.1484  -36.7354   23.2642 C   0  0  0  0  0  0
  -25.9292  -30.8371   21.3660 C   0  0  0  0  0  0
  -26.0142  -29.4670   20.7237 C   0  0  0  0  0  0
  -27.2111  -28.7128   20.7315 C   0  0  0  0  0  0
  -26.0859  -26.9572   19.4772 C   0  0  0  0  0  0
  -24.8870  -27.6976   19.4909 C   0  0  0  0  0  0
  -23.6172  -29.8188   20.1643 C   0  0  0  0  0  0
  -25.4100  -36.3137   24.0339 C   0  0  1  0  0  0
  -20.5860  -28.3712   23.1304 C   0  0  2  0  0  0
  -20.6785  -26.9450   22.5407 C   0  0  0  0  0  0
  -19.5766  -26.6409   21.5206 C   0  0  0  0  0  0
  -18.1938  -26.7948   22.1608 C   0  0  0  0  0  0
  -19.1517  -28.8867   23.2881 C   0  0  0  0  0  0
  -18.9451  -30.1459   23.8905 C   0  0  0  0  0  0
  -17.6458  -30.6604   24.0578 C   0  0  0  0  0  0
  -25.9001  -34.9494   23.5149 C   0  0  0  0  0  0
  -16.5339  -29.9104   23.6333 C   0  0  0  0  0  0
  -16.7255  -28.6523   23.0333 C   0  0  0  0  0  0
  -26.4463  -31.6595   25.0714 C   0  0  0  0  0  0
  -25.3732  -31.3576   26.1435 C   0  0  0  0  0  0
  -27.0326  -30.3073   24.6042 C   0  0  0  0  0  0
  -27.6059  -32.4317   25.7457 C   0  0  0  0  0  0
  -27.5584  -37.1809   24.8459 C   0  0  0  0  0  0
  -21.4138  -29.3064   22.3713 N   0  0  0  0  0  0
  -26.4301  -37.3802   23.9396 N   0  0  0  0  0  0
  -24.6664  -31.0789   22.1024 N   0  0  0  0  0  0
  -23.4193  -28.8215   23.3042 O   0  0  0  0  0  0
  -28.3789  -26.6529   20.0645 O   0  0  0  0  0  0
  -26.5601  -34.8939   22.4732 O   0  0  0  0  0  0
  -23.5309  -32.1435   23.7505 O   0  0  0  0  0  0
  -30.2380  -22.8117   21.6712 C   0  0  0  0  0  0
  -28.3131  -22.3709   21.0123 C   0  0  0  0  0  0
  -29.6354  -21.5836   20.9524 C   0  0  2  0  0  0
  -29.1063  -23.6951   21.0929 C   0  0  1  0  0  0
  -27.0668  -24.8614   22.1637 C   0  0  0  0  0  0
  -30.0117  -15.2590   22.8601 C   0  0  0  0  0  0
  -29.7237  -20.1548   21.5502 C   0  0  0  0  0  0
  -30.3565  -16.8787   21.0490 C   0  0  0  0  0  0
  -29.0541  -17.7268   21.0605 C   0  0  0  0  0  0
  -29.0039  -26.3099   21.3114 C   0  0  0  0  0  0
  -28.5788  -24.9208   21.8876 C   0  0  2  0  0  0
  -30.1505  -15.4480   21.4080 N   0  0  0  0  0  0
  -29.2238  -19.1327   20.5900 N   0  3  0  0  0  0
  -31.4639  -12.4178   19.1507 H   0  0  0  0  0  0
  -30.3212  -11.3131   19.8486 H   0  0  0  0  0  0
  -29.7564  -11.7617   17.4502 H   0  0  0  0  0  0
  -29.6604  -13.4776   17.7656 H   0  0  0  0  0  0
  -27.8511  -11.2837   18.8374 H   0  0  0  0  0  0
  -27.3705  -12.5789   17.7758 H   0  0  0  0  0  0
  -27.6966  -14.2407   19.5396 H   0  0  0  0  0  0
  -28.6523  -11.9668   21.3472 H   0  0  0  0  0  0
  -28.3697  -13.6056   21.8349 H   0  0  0  0  0  0
  -25.2723   -9.5744   22.4752 H   0  0  0  0  0  0
  -23.9991   -7.4670   22.7493 H   0  0  0  0  0  0
  -21.0818   -8.8735   19.8938 H   0  0  0  0  0  0
  -22.3634  -10.9658   19.6139 H   0  0  0  0  0  0
  -21.2001   -7.6142   23.9719 H   0  0  0  0  0  0
  -21.1482   -6.0511   25.9076 H   0  0  0  0  0  0
  -22.0593   -2.7604   23.2844 H   0  0  0  0  0  0
  -22.4068  -11.9864   22.4697 H   0  0  0  0  0  0
  -21.1099  -13.1279   22.2550 H   0  0  0  0  0  0
  -24.6695  -15.8416   20.5139 H   0  0  0  0  0  0
  -26.2827  -15.6138   20.0616 H   0  0  0  0  0  0
  -26.7060  -32.5621   23.1178 H   0  0  0  0  0  0
  -24.9970  -33.9810   25.0493 H   0  0  0  0  0  0
  -22.6902  -31.3065   21.4056 H   0  0  0  0  0  0
  -23.3750  -35.9684   23.3326 H   0  0  0  0  0  0
  -24.3548  -36.8967   22.2043 H   0  0  0  0  0  0
  -23.7247  -37.6559   23.6672 H   0  0  0  0  0  0
  -26.0216  -31.5955   20.5871 H   0  0  0  0  0  0
  -26.8222  -30.9135   21.9717 H   0  0  0  0  0  0
  -28.1051  -29.1077   21.1981 H   0  0  0  0  0  0
  -26.1083  -25.9988   18.9807 H   0  0  0  0  0  0
  -24.0027  -27.3013   19.0110 H   0  0  0  0  0  0
  -23.7254  -30.5922   19.4035 H   0  0  0  0  0  0
  -22.7441  -29.2310   19.8719 H   0  0  0  0  0  0
  -25.1278  -36.2019   25.0829 H   0  0  0  0  0  0
  -20.9924  -28.3311   24.1442 H   0  0  0  0  0  0
  -20.5742  -26.2320   23.3602 H   0  0  0  0  0  0
  -21.6666  -26.7549   22.1190 H   0  0  0  0  0  0
  -19.6967  -25.6318   21.1251 H   0  0  0  0  0  0
  -19.6723  -27.3219   20.6744 H   0  0  0  0  0  0
  -17.4219  -26.6672   21.4001 H   0  0  0  0  0  0
  -18.0336  -26.0095   22.9010 H   0  0  0  0  0  0
  -19.7921  -30.7239   24.2327 H   0  0  0  0  0  0
  -17.5015  -31.6289   24.5175 H   0  0  0  0  0  0
  -15.5342  -30.3010   23.7679 H   0  0  0  0  0  0
  -15.8647  -28.0854   22.7051 H   0  0  0  0  0  0
  -24.5976  -30.6889   25.7689 H   0  0  0  0  0  0
  -24.8829  -32.2649   26.4969 H   0  0  0  0  0  0
  -25.8084  -30.8665   27.0147 H   0  0  0  0  0  0
  -26.2848  -29.6743   24.1253 H   0  0  0  0  0  0
  -27.4310  -29.7369   25.4443 H   0  0  0  0  0  0
  -27.8580  -30.4432   23.9048 H   0  0  0  0  0  0
  -27.2744  -33.3657   26.2002 H   0  0  0  0  0  0
  -28.3858  -32.6794   25.0244 H   0  0  0  0  0  0
  -28.0734  -31.8454   26.5358 H   0  0  0  0  0  0
  -28.2608  -38.0109   24.7547 H   0  0  0  0  0  0
  -28.1092  -36.2642   24.6290 H   0  0  0  0  0  0
  -27.2284  -37.1460   25.8858 H   0  0  0  0  0  0
  -20.9324  -29.8754   21.6881 H   0  0  0  0  0  0
  -26.0231  -38.2902   24.1398 H   0  0  0  0  0  0
  -31.2396  -23.0814   21.3369 H   0  0  0  0  0  0
  -30.1990  -22.7288   22.7603 H   0  0  0  0  0  0
  -27.7520  -22.1415   21.9197 H   0  0  0  0  0  0
  -27.6850  -22.2700   20.1261 H   0  0  0  0  0  0
  -30.0168  -21.5929   19.9282 H   0  0  0  0  0  0
  -29.3676  -23.9916   20.0746 H   0  0  0  0  0  0
  -26.8059  -24.0158   22.8011 H   0  0  0  0  0  0
  -26.4941  -24.7768   21.2409 H   0  0  0  0  0  0
  -26.7312  -25.7611   22.6837 H   0  0  0  0  0  0
  -29.0620  -15.6651   23.2110 H   0  0  0  0  0  0
  -30.8123  -15.7636   23.4022 H   0  0  0  0  0  0
  -30.0482  -14.2106   23.1631 H   0  0  0  0  0  0
  -29.1437  -20.0969   22.4728 H   0  0  0  0  0  0
  -30.7521  -19.9152   21.8267 H   0  0  0  0  0  0
  -31.0995  -17.3194   21.7145 H   0  0  0  0  0  0
  -30.7845  -16.9531   20.0477 H   0  0  0  0  0  0
  -28.5839  -17.7230   22.0441 H   0  0  0  0  0  0
  -28.3360  -17.2544   20.3888 H   0  0  0  0  0  0
  -30.0829  -26.3142   21.1523 H   0  0  0  0  0  0
  -28.8264  -27.0805   22.0647 H   0  0  0  0  0  0
  -29.0479  -24.8794   22.8713 H   0  0  0  0  0  0
  -29.8000  -19.1431   19.7648 H   0  0  0  0  0  0
  -28.3090  -19.4420   20.3045 H   0  0  0  0  0  0
  1 25  1  0  0  0
  1 30  2  0  0  0
  1 82  1  0  0  0
  2  3  1  0  0  0
  2 25  1  0  0  0
  2 84  1  0  0  0
  2 85  1  0  0  0
  3  4  1  0  0  0
  3 86  1  0  0  0
  3 87  1  0  0  0
  4  5  1  0  0  0
  4 88  1  0  0  0
  4 89  1  0  0  0
  5  6  1  0  0  0
  5 26  1  0  0  0
  5 90  1  0  0  0
  6 25  1  0  0  0
  6 91  1  0  0  0
  6 92  1  0  0  0
  7  8  2  0  0  0
  7 26  1  0  0  0
  7 29  1  0  0  0
  8  9  1  0  0  0
  8 22  1  0  0  0
  9 10  1  0  0  0
  9 27  2  0  0  0
 10 11  2  0  0  0
 10 15  1  0  0  0
 11 12  1  0  0  0
 11 93  1  0  0  0
 12 13  2  0  0  0
 12 94  1  0  0  0
 13 14  1  0  0  0
 13 31  1  0  0  0
 14 15  2  0  0  0
 14 95  1  0  0  0
 15 96  1  0  0  0
 16 17  2  0  0  0
 16 21  1  0  0  0
 16 31  1  0  0  0
 17 18  1  0  0  0
 17 97  1  0  0  0
 18 19  2  0  0  0
 18 98  1  0  0  0
 19 20  1  0  0  0
 19 24  1  0  0  0
 20 21  2  0  0  0
 20 99  1  0  0  0
 21 23  1  0  0  0
 22 28  1  0  0  0
 22 32  2  0  0  0
 26 27  1  0  0  0
 28100  1  0  0  0
 28101  1  0  0  0
 29102  1  0  0  0
 29103  1  0  0  0
 33 34  1  0  0  0
 33 66  1  0  0  0
 33 70  2  0  0  0
 34 36  1  0  0  0
 34 59  1  0  0  0
 34104  1  0  0  0
 35 44  2  0  0  0
 35 45  1  0  0  0
 35 68  1  0  0  0
 36 56  1  0  0  0
 36105  1  0  0  0
 37 39  1  0  0  0
 37 47  1  0  0  0
 37 66  1  0  0  0
 37106  1  0  0  0
 38 43  2  0  0  0
 38 46  1  0  0  0
 38 47  1  0  0  0
 39 64  1  0  0  0
 39 67  2  0  0  0
 40 52  1  0  0  0
 40 53  2  0  0  0
 40 58  1  0  0  0
 41107  1  0  0  0
 41108  1  0  0  0
 41109  1  0  0  0
 41 48  1  0  0  0
 42 43  1  0  0  0
 42 66  1  0  0  0
 42110  1  0  0  0
 42111  1  0  0  0
 43 44  1  0  0  0
 44112  1  0  0  0
 45 46  2  0  0  0
 45113  1  0  0  0
 46114  1  0  0  0
 47115  1  0  0  0
 47116  1  0  0  0
 48 56  1  0  0  0
 48 65  1  0  0  0
 48117  1  0  0  0
 49 50  1  0  0  0
 49 53  1  0  0  0
 49 64  1  0  0  0
 49118  1  0  0  0
 50 51  1  0  0  0
 50119  1  0  0  0
 50120  1  0  0  0
 51 52  1  0  0  0
 51121  1  0  0  0
 51122  1  0  0  0
 52123  1  0  0  0
 52124  1  0  0  0
 53 54  1  0  0  0
 54 55  2  0  0  0
 54125  1  0  0  0
 55 57  1  0  0  0
 55126  1  0  0  0
 56 69  2  0  0  0
 57 58  2  0  0  0
 57127  1  0  0  0
 58128  1  0  0  0
 59 60  1  0  0  0
 59 61  1  0  0  0
 59 62  1  0  0  0
 60129  1  0  0  0
 60130  1  0  0  0
 60131  1  0  0  0
 61132  1  0  0  0
 61133  1  0  0  0
 61134  1  0  0  0
 62135  1  0  0  0
 62136  1  0  0  0
 62137  1  0  0  0
 63 65  1  0  0  0
 63138  1  0  0  0
 63139  1  0  0  0
 63140  1  0  0  0
 64141  1  0  0  0
 65142  1  0  0  0
 68 80  1  0  0  0
 71 73  1  0  0  0
 71143  1  0  0  0
 71144  1  0  0  0
 71 74  1  0  0  0
 72 73  1  0  0  0
 72 74  1  0  0  0
 72145  1  0  0  0
 72146  1  0  0  0
 73 77  1  0  0  0
 73147  1  0  0  0
 74 81  1  0  0  0
 74148  1  0  0  0
 75149  1  0  0  0
 75150  1  0  0  0
 75151  1  0  0  0
 75 81  1  0  0  0
 76 82  1  0  0  0
 76152  1  0  0  0
 76153  1  0  0  0
 76154  1  0  0  0
 77 83  1  0  0  0
 77155  1  0  0  0
 77156  1  0  0  0
 78 79  1  0  0  0
 78 82  1  0  0  0
 78157  1  0  0  0
 78158  1  0  0  0
 79 83  1  0  0  0
 79159  1  0  0  0
 79160  1  0  0  0
 80 81  1  0  0  0
 80161  1  0  0  0
 80162  1  0  0  0
 81163  1  0  0  0
 83164  1  0  0  0
 83165  1  0  0  0
M  CHG  1  83   1
M  ISO  4   1 100  68 101  80 101  82 100
M  END
> <chiral flag>
0

> <version>
0

> <s_m_source_file>
/data/baiqing/PycharmProjects/Reinvent-master-3.2/result/LINK_invent/BTK/process_docking_weight1_custom_sum_contain_oxygen_bond_distance_aromatic_linkinvent_7_9_3/rearranged_h_0126.sdf

> <i_m_source_file_index>
81

> <r_mmod_Potential_Energy-OPLS-2005>
-14.2710599899292

> <r_mmod_Stretch_Energy-OPLS-2005>
43.4356269836426

> <r_mmod_Bend_Energy-OPLS-2005>
123.204460144043

> <r_mmod_Torsional_Energy-OPLS-2005>
325.140930175781

> <r_mmod_Improper_Torsional_Energy-OPLS-2005>
6.45729923248291

> <r_mmod_Van_der_Waal_Energy-OPLS-2005>
130.911575317383

> <r_mmod_Electrostatic_Energy-OPLS-2005>
-210.083602905273

> <r_mmod_Solvation_Energy-OPLS-2005>
-444.736083984375

> <b_mmod_Minimization_Converged-OPLS-2005>
0

> <r_mmod_RMS_Derivative-OPLS-2005>
3.27577257156372

$$$$
81
                    3D
 Structure written by MMmdl.
160169  0  0  1  0            999 V2000
  -30.6942  -14.6282   20.4968 C   0  0  0  0  0  0
  -30.4212  -12.3900   19.4591 C   0  0  0  0  0  0
  -29.4981  -12.4962   18.2275 C   0  0  0  0  0  0
  -28.0254  -12.3362   18.6466 C   0  0  0  0  0  0
  -27.6481  -13.2277   19.8598 C   0  0  2  0  0  0
  -28.6971  -13.1310   20.9917 C   0  0  0  0  0  0
  -25.2523  -13.8201   20.5705 C   0  0  0  0  0  0
  -24.1804  -13.0448   20.9213 C   0  0  0  0  0  0
  -24.6391  -11.6926   20.8756 C   0  0  0  0  0  0
  -23.9059  -10.4300   21.0412 C   0  0  0  0  0  0
  -24.3611   -9.4214   21.9187 C   0  0  0  0  0  0
  -23.6293   -8.2244   22.0752 C   0  0  0  0  0  0
  -22.4276   -8.0279   21.3540 C   0  0  0  0  0  0
  -21.9909   -9.0254   20.4642 C   0  0  0  0  0  0
  -22.7231  -10.2138   20.3057 C   0  0  0  0  0  0
  -21.6850   -6.0736   22.5276 C   0  0  0  0  0  0
  -21.4013   -6.5637   23.8211 C   0  0  0  0  0  0
  -21.3659   -5.6791   24.9170 C   0  0  0  0  0  0
  -21.6050   -4.3056   24.7224 C   0  0  0  0  0  0
  -21.8817   -3.8143   23.4345 C   0  0  0  0  0  0
  -21.9195   -4.6962   22.3399 C   0  0  0  0  0  0
  -22.7822  -13.5227   21.1871 C   0  0  0  0  0  0
  -22.1662   -4.2142   21.0980 F   0  0  0  0  0  0
  -21.5633   -3.4541   25.7739 F   0  0  0  0  0  0
  -30.0103  -13.4432   20.4118 N   0  0  0  0  0  0
  -26.2973  -12.9405   20.3346 N   0  0  0  0  0  0
  -25.9328  -11.6549   20.5789 N   0  0  0  0  0  0
  -22.0469  -12.8214   22.0430 N   0  0  0  0  0  0
  -25.4222  -15.1916   20.4098 N   0  0  0  0  0  0
  -31.8690  -14.7044   20.1340 O   0  0  0  0  0  0
  -21.6644   -6.8874   21.4237 O   0  0  0  0  0  0
  -22.3502  -14.5537   20.6728 O   0  0  0  0  0  0
  -24.6297  -31.8616   23.2072 C   0  0  0  0  0  0
  -25.9143  -32.4787   23.8393 C   0  0  1  0  0  0
  -27.2125  -27.3095   20.0947 C   0  0  0  0  0  0
  -25.5953  -33.8590   24.2314 N   0  0  0  0  0  0
  -23.4207  -30.4920   21.5522 C   0  0  2  0  0  0
  -24.8643  -28.9642   20.1068 C   0  0  0  0  0  0
  -22.7493  -29.4631   22.4943 C   0  0  0  0  0  0
  -18.0295  -28.1383   22.8488 C   0  0  0  0  0  0
  -24.1485  -36.7293   23.2639 C   0  0  0  0  0  0
  -25.9689  -30.7858   21.3850 C   0  0  0  0  0  0
  -26.0397  -29.4176   20.7201 C   0  0  0  0  0  0
  -27.2153  -28.6007   20.7149 C   0  0  0  0  0  0
  -26.0121  -26.9462   19.4248 C   0  0  0  0  0  0
  -24.8539  -27.7319   19.4522 C   0  0  0  0  0  0
  -23.6336  -29.8429   20.1638 C   0  0  0  0  0  0
  -25.4112  -36.3083   24.0330 C   0  0  1  0  0  0
  -20.5895  -28.3683   23.1279 C   0  0  2  0  0  0
  -20.6781  -26.9404   22.5402 C   0  0  0  0  0  0
  -19.5752  -26.6377   21.5209 C   0  0  0  0  0  0
  -18.1931  -26.7925   22.1629 C   0  0  0  0  0  0
  -19.1546  -28.8854   23.2874 C   0  0  0  0  0  0
  -18.9472  -30.1459   23.8884 C   0  0  0  0  0  0
  -17.6468  -30.6583   24.0561 C   0  0  0  0  0  0
  -25.9051  -34.9454   23.5110 C   0  0  0  0  0  0
  -16.5360  -29.9073   23.6341 C   0  0  0  0  0  0
  -16.7279  -28.6497   23.0353 C   0  0  0  0  0  0
  -26.4510  -31.6592   25.0762 C   0  0  0  0  0  0
  -25.3734  -31.3721   26.1485 C   0  0  0  0  0  0
  -27.0355  -30.3013   24.6220 C   0  0  0  0  0  0
  -27.6075  -32.4327   25.7520 C   0  0  0  0  0  0
  -27.5574  -37.1809   24.8474 C   0  0  0  0  0  0
  -21.4204  -29.3046   22.3688 N   0  0  0  0  0  0
  -26.4292  -37.3775   23.9409 N   0  0  0  0  0  0
  -24.6924  -31.0620   22.1044 N   0  0  0  0  0  0
  -23.4214  -28.8154   23.3012 O   0  0  0  0  0  0
  -28.2841  -26.3833   20.1759 O   0  0  0  0  0  0
  -26.5608  -34.8907   22.4667 O   0  0  0  0  0  0
  -23.5456  -32.1433   23.7382 O   0  0  0  0  0  0
  -30.0366  -23.5070   20.3526 C   0  0  0  0  0  0
  -30.6186  -22.2141   20.5237 C   0  0  0  0  0  0
  -28.6316  -23.6434   20.2732 C   0  0  0  0  0  0
  -27.8992  -22.4094   20.4015 C   0  0  0  0  0  0
  -29.8144  -21.0515   20.6074 C   0  0  0  0  0  0
  -26.4065  -22.3596   20.3019 C   0  0  0  0  0  0
  -25.7184  -22.0135   22.7753 C   0  0  0  0  0  0
  -24.4456  -22.0699   21.9694 C   0  0  0  0  0  0
  -25.7108  -21.5191   21.3413 C   0  0  0  0  0  0
  -27.8633  -24.9795   19.9323 C   0  0  0  0  0  0
  -29.6537  -18.4396   20.7322 C   0  0  0  0  0  0
  -30.6047  -17.1624   20.7440 C   0  0  0  0  0  0
  -28.4800  -21.1792   20.5631 N   0  0  0  0  0  0
  -30.3813  -19.7466   20.7206 N   0  0  0  0  0  0
  -30.0096  -15.7771   20.7944 N   0  0  0  0  0  0
  -25.7485  -22.9478   19.4349 O   0  0  0  0  0  0
  -31.4648  -12.4827   19.1528 H   0  0  0  0  0  0
  -30.3355  -11.4057   19.9226 H   0  0  0  0  0  0
  -29.7612  -11.7358   17.4910 H   0  0  0  0  0  0
  -29.6409  -13.4611   17.7386 H   0  0  0  0  0  0
  -27.8715  -11.2868   18.9004 H   0  0  0  0  0  0
  -27.3653  -12.5442   17.8037 H   0  0  0  0  0  0
  -27.6555  -14.2553   19.4959 H   0  0  0  0  0  0
  -28.7047  -12.1303   21.4262 H   0  0  0  0  0  0
  -28.4514  -13.8140   21.8064 H   0  0  0  0  0  0
  -25.2753   -9.5697   22.4769 H   0  0  0  0  0  0
  -24.0000   -7.4639   22.7469 H   0  0  0  0  0  0
  -21.0838   -8.8771   19.8948 H   0  0  0  0  0  0
  -22.3682  -10.9681   19.6170 H   0  0  0  0  0  0
  -21.1998   -7.6142   23.9705 H   0  0  0  0  0  0
  -21.1488   -6.0525   25.9073 H   0  0  0  0  0  0
  -22.0597   -2.7604   23.2850 H   0  0  0  0  0  0
  -22.4088  -11.9869   22.4806 H   0  0  0  0  0  0
  -21.1091  -13.1234   22.2648 H   0  0  0  0  0  0
  -24.6543  -15.8468   20.5114 H   0  0  0  0  0  0
  -26.2716  -15.6288   20.0759 H   0  0  0  0  0  0
  -26.7209  -32.5451   23.1137 H   0  0  0  0  0  0
  -25.0126  -33.9750   25.0472 H   0  0  0  0  0  0
  -22.7150  -31.3143   21.4177 H   0  0  0  0  0  0
  -23.3738  -35.9636   23.3318 H   0  0  0  0  0  0
  -24.3569  -36.8885   22.2048 H   0  0  0  0  0  0
  -23.7258  -37.6509   23.6648 H   0  0  0  0  0  0
  -26.1074  -31.5494   20.6183 H   0  0  0  0  0  0
  -26.8478  -30.8286   22.0170 H   0  0  0  0  0  0
  -28.1066  -28.9373   21.2259 H   0  0  0  0  0  0
  -25.8973  -26.0242   18.8759 H   0  0  0  0  0  0
  -23.9590  -27.3828   18.9558 H   0  0  0  0  0  0
  -23.7500  -30.6270   19.4150 H   0  0  0  0  0  0
  -22.7519  -29.2756   19.8602 H   0  0  0  0  0  0
  -25.1281  -36.1930   25.0820 H   0  0  0  0  0  0
  -20.9995  -28.3243   24.1393 H   0  0  0  0  0  0
  -20.5686  -26.2284   23.3596 H   0  0  0  0  0  0
  -21.6643  -26.7425   22.1191 H   0  0  0  0  0  0
  -19.6904  -25.6287   21.1240 H   0  0  0  0  0  0
  -19.6687  -27.3187   20.6737 H   0  0  0  0  0  0
  -17.4199  -26.6686   21.4027 H   0  0  0  0  0  0
  -18.0325  -26.0061   22.9018 H   0  0  0  0  0  0
  -19.7945  -30.7293   24.2232 H   0  0  0  0  0  0
  -17.5017  -31.6263   24.5163 H   0  0  0  0  0  0
  -15.5359  -30.2970   23.7672 H   0  0  0  0  0  0
  -15.8680  -28.0814   22.7067 H   0  0  0  0  0  0
  -24.5943  -30.7018   25.7826 H   0  0  0  0  0  0
  -24.8887  -32.2878   26.4890 H   0  0  0  0  0  0
  -25.8069  -30.8943   27.0279 H   0  0  0  0  0  0
  -26.2938  -29.6770   24.1232 H   0  0  0  0  0  0
  -27.4033  -29.7262   25.4726 H   0  0  0  0  0  0
  -27.8808  -30.4296   23.9456 H   0  0  0  0  0  0
  -27.2707  -33.3650   26.2063 H   0  0  0  0  0  0
  -28.3902  -32.6849   25.0352 H   0  0  0  0  0  0
  -28.0720  -31.8471   26.5464 H   0  0  0  0  0  0
  -28.2606  -38.0088   24.7487 H   0  0  0  0  0  0
  -28.1049  -36.2621   24.6331 H   0  0  0  0  0  0
  -27.2288  -37.1483   25.8875 H   0  0  0  0  0  0
  -20.9381  -29.8794   21.6922 H   0  0  0  0  0  0
  -26.0165  -38.2844   24.1400 H   0  0  0  0  0  0
  -30.6708  -24.3766   20.2560 H   0  0  0  0  0  0
  -31.6969  -22.1332   20.5685 H   0  0  0  0  0  0
  -25.7849  -21.2662   23.5631 H   0  0  0  0  0  0
  -26.2132  -22.9594   22.9949 H   0  0  0  0  0  0
  -24.0971  -23.0542   21.6581 H   0  0  0  0  0  0
  -23.6613  -21.3562   22.2132 H   0  0  0  0  0  0
  -25.7466  -20.4438   21.1797 H   0  0  0  0  0  0
  -26.9421  -24.8898   20.5053 H   0  0  0  0  0  0
  -27.6395  -24.8847   18.8690 H   0  0  0  0  0  0
  -29.0018  -18.4198   21.6065 H   0  0  0  0  0  0
  -29.0018  -18.4036   19.8583 H   0  0  0  0  0  0
  -31.2856  -17.2436   21.5932 H   0  0  0  0  0  0
  -31.2367  -17.2205   19.8563 H   0  0  0  0  0  0
  -31.3944  -19.6924   20.7427 H   0  0  0  0  0  0
  -29.0347  -15.6890   21.0393 H   0  0  0  0  0  0
  1 25  1  0  0  0
  1 30  2  0  0  0
  1 85  1  0  0  0
  2  3  1  0  0  0
  2 25  1  0  0  0
  2 87  1  0  0  0
  2 88  1  0  0  0
  3  4  1  0  0  0
  3 89  1  0  0  0
  3 90  1  0  0  0
  4  5  1  0  0  0
  4 91  1  0  0  0
  4 92  1  0  0  0
  5  6  1  0  0  0
  5 26  1  0  0  0
  5 93  1  0  0  0
  6 25  1  0  0  0
  6 94  1  0  0  0
  6 95  1  0  0  0
  7  8  2  0  0  0
  7 26  1  0  0  0
  7 29  1  0  0  0
  8  9  1  0  0  0
  8 22  1  0  0  0
  9 10  1  0  0  0
  9 27  2  0  0  0
 10 11  2  0  0  0
 10 15  1  0  0  0
 11 12  1  0  0  0
 11 96  1  0  0  0
 12 13  2  0  0  0
 12 97  1  0  0  0
 13 14  1  0  0  0
 13 31  1  0  0  0
 14 15  2  0  0  0
 14 98  1  0  0  0
 15 99  1  0  0  0
 16 17  2  0  0  0
 16 21  1  0  0  0
 16 31  1  0  0  0
 17 18  1  0  0  0
 17100  1  0  0  0
 18 19  2  0  0  0
 18101  1  0  0  0
 19 20  1  0  0  0
 19 24  1  0  0  0
 20 21  2  0  0  0
 20102  1  0  0  0
 21 23  1  0  0  0
 22 28  1  0  0  0
 22 32  2  0  0  0
 26 27  1  0  0  0
 28103  1  0  0  0
 28104  1  0  0  0
 29105  1  0  0  0
 29106  1  0  0  0
 33 34  1  0  0  0
 33 66  1  0  0  0
 33 70  2  0  0  0
 34 36  1  0  0  0
 34 59  1  0  0  0
 34107  1  0  0  0
 35 44  2  0  0  0
 35 45  1  0  0  0
 35 68  1  0  0  0
 36 56  1  0  0  0
 36108  1  0  0  0
 37 39  1  0  0  0
 37 47  1  0  0  0
 37 66  1  0  0  0
 37109  1  0  0  0
 38 43  2  0  0  0
 38 46  1  0  0  0
 38 47  1  0  0  0
 39 64  1  0  0  0
 39 67  2  0  0  0
 40 52  1  0  0  0
 40 53  2  0  0  0
 40 58  1  0  0  0
 41110  1  0  0  0
 41111  1  0  0  0
 41112  1  0  0  0
 41 48  1  0  0  0
 42 43  1  0  0  0
 42 66  1  0  0  0
 42113  1  0  0  0
 42114  1  0  0  0
 43 44  1  0  0  0
 44115  1  0  0  0
 45 46  2  0  0  0
 45116  1  0  0  0
 46117  1  0  0  0
 47118  1  0  0  0
 47119  1  0  0  0
 48 56  1  0  0  0
 48 65  1  0  0  0
 48120  1  0  0  0
 49 50  1  0  0  0
 49 53  1  0  0  0
 49 64  1  0  0  0
 49121  1  0  0  0
 50 51  1  0  0  0
 50122  1  0  0  0
 50123  1  0  0  0
 51 52  1  0  0  0
 51124  1  0  0  0
 51125  1  0  0  0
 52126  1  0  0  0
 52127  1  0  0  0
 53 54  1  0  0  0
 54 55  2  0  0  0
 54128  1  0  0  0
 55 57  1  0  0  0
 55129  1  0  0  0
 56 69  2  0  0  0
 57 58  2  0  0  0
 57130  1  0  0  0
 58131  1  0  0  0
 59 60  1  0  0  0
 59 61  1  0  0  0
 59 62  1  0  0  0
 60132  1  0  0  0
 60133  1  0  0  0
 60134  1  0  0  0
 61135  1  0  0  0
 61136  1  0  0  0
 61137  1  0  0  0
 62138  1  0  0  0
 62139  1  0  0  0
 62140  1  0  0  0
 63 65  1  0  0  0
 63141  1  0  0  0
 63142  1  0  0  0
 63143  1  0  0  0
 64144  1  0  0  0
 65145  1  0  0  0
 68 80  1  0  0  0
 71 72  2  0  0  0
 71 73  1  0  0  0
 71146  1  0  0  0
 72 75  1  0  0  0
 72147  1  0  0  0
 73 74  2  0  0  0
 73 80  1  0  0  0
 74 76  1  0  0  0
 74 83  1  0  0  0
 75 83  2  0  0  0
 75 84  1  0  0  0
 76 86  2  0  0  0
 76 79  1  0  0  0
 77 78  1  0  0  0
 77 79  1  0  0  0
 77148  1  0  0  0
 77149  1  0  0  0
 78 79  1  0  0  0
 78150  1  0  0  0
 78151  1  0  0  0
 79152  1  0  0  0
 80153  1  0  0  0
 80154  1  0  0  0
 81 82  1  0  0  0
 81 84  1  0  0  0
 81155  1  0  0  0
 81156  1  0  0  0
 82 85  1  0  0  0
 82157  1  0  0  0
 82158  1  0  0  0
 84159  1  0  0  0
 85160  1  0  0  0
M  ISO  4   1 100  68 101  80 101  85 100
M  END
> <chiral flag>
0

> <version>
0

> <s_m_source_file>
/data/baiqing/PycharmProjects/Reinvent-master-3.2/result/LINK_invent/BTK/process_docking_weight1_custom_sum_contain_oxygen_bond_distance_aromatic_linkinvent_7_9_3/rearranged_h_0126.sdf

> <i_m_source_file_index>
82

> <r_mmod_Potential_Energy-OPLS-2005>
-77.4069976806641

> <r_mmod_Stretch_Energy-OPLS-2005>
82.1726531982422

> <r_mmod_Bend_Energy-OPLS-2005>
169.276138305664

> <r_mmod_Torsional_Energy-OPLS-2005>
243.339248657227

> <r_mmod_Improper_Torsional_Energy-OPLS-2005>
4.8836727142334

> <r_mmod_Van_der_Waal_Energy-OPLS-2005>
165.8955078125

> <r_mmod_Electrostatic_Energy-OPLS-2005>
-564.038208007812

> <r_mmod_Solvation_Energy-OPLS-2005>
-237.617126464844

> <b_mmod_Minimization_Converged-OPLS-2005>
0

> <r_mmod_RMS_Derivative-OPLS-2005>
1.645756483078

$$$$
82
                    3D
 Structure written by MMmdl.
166175  0  0  1  0            999 V2000
  -30.7407  -14.4087   20.6449 C   0  0  0  0  0  0
  -30.4177  -12.3013   19.4018 C   0  0  0  0  0  0
  -29.4868  -12.5200   18.1939 C   0  0  0  0  0  0
  -28.0097  -12.3763   18.6092 C   0  0  0  0  0  0
  -27.6621  -13.2040   19.8747 C   0  0  2  0  0  0
  -28.7010  -12.9623   20.9913 C   0  0  0  0  0  0
  -25.2586  -13.8148   20.5668 C   0  0  0  0  0  0
  -24.1835  -13.0433   20.9167 C   0  0  0  0  0  0
  -24.6382  -11.6898   20.8720 C   0  0  0  0  0  0
  -23.9046  -10.4287   21.0394 C   0  0  0  0  0  0
  -24.3601   -9.4208   21.9173 C   0  0  0  0  0  0
  -23.6283   -8.2242   22.0748 C   0  0  0  0  0  0
  -22.4267   -8.0276   21.3542 C   0  0  0  0  0  0
  -21.9893   -9.0245   20.4642 C   0  0  0  0  0  0
  -22.7218  -10.2125   20.3047 C   0  0  0  0  0  0
  -21.6854   -6.0728   22.5277 C   0  0  0  0  0  0
  -21.4016   -6.5632   23.8209 C   0  0  0  0  0  0
  -21.3660   -5.6786   24.9172 C   0  0  0  0  0  0
  -21.6045   -4.3047   24.7225 C   0  0  0  0  0  0
  -21.8821   -3.8139   23.4347 C   0  0  0  0  0  0
  -21.9194   -4.6954   22.3401 C   0  0  0  0  0  0
  -22.7863  -13.5244   21.1833 C   0  0  0  0  0  0
  -22.1665   -4.2140   21.0980 F   0  0  0  0  0  0
  -21.5628   -3.4535   25.7740 F   0  0  0  0  0  0
  -30.0371  -13.2639   20.4461 N   0  0  0  0  0  0
  -26.3020  -12.9313   20.3346 N   0  0  0  0  0  0
  -25.9305  -11.6475   20.5738 N   0  0  0  0  0  0
  -22.0494  -12.8244   22.0388 N   0  0  0  0  0  0
  -25.4314  -15.1862   20.4087 N   0  0  0  0  0  0
  -31.8174  -14.6471   20.0925 O   0  0  0  0  0  0
  -21.6638   -6.8869   21.4238 O   0  0  0  0  0  0
  -22.3559  -14.5558   20.6687 O   0  0  0  0  0  0
  -24.6120  -31.8693   23.2107 C   0  0  0  0  0  0
  -25.9024  -32.4829   23.8398 C   0  0  1  0  0  0
  -27.2378  -27.4609   20.0958 C   0  0  0  0  0  0
  -25.5889  -33.8626   24.2338 N   0  0  0  0  0  0
  -23.3993  -30.4909   21.5504 C   0  0  2  0  0  0
  -24.8480  -28.9563   20.1161 C   0  0  0  0  0  0
  -22.7397  -29.4657   22.5000 C   0  0  0  0  0  0
  -18.0270  -28.1369   22.8494 C   0  0  0  0  0  0
  -24.1485  -36.7319   23.2637 C   0  0  0  0  0  0
  -25.9239  -30.8430   21.3590 C   0  0  0  0  0  0
  -26.0044  -29.4767   20.7118 C   0  0  0  0  0  0
  -27.2048  -28.7348   20.7009 C   0  0  0  0  0  0
  -26.0715  -26.9437   19.4985 C   0  0  0  0  0  0
  -24.8746  -27.6873   19.5074 C   0  0  0  0  0  0
  -23.6073  -29.8199   20.1655 C   0  0  0  0  0  0
  -25.4104  -36.3116   24.0342 C   0  0  1  0  0  0
  -20.5857  -28.3650   23.1327 C   0  0  2  0  0  0
  -20.6761  -26.9390   22.5418 C   0  0  0  0  0  0
  -19.5741  -26.6382   21.5210 C   0  0  0  0  0  0
  -18.1919  -26.7918   22.1622 C   0  0  0  0  0  0
  -19.1519  -28.8827   23.2908 C   0  0  0  0  0  0
  -18.9450  -30.1437   23.8913 C   0  0  0  0  0  0
  -17.6452  -30.6577   24.0564 C   0  0  0  0  0  0
  -25.9029  -34.9479   23.5137 C   0  0  0  0  0  0
  -16.5344  -29.9081   23.6321 C   0  0  0  0  0  0
  -16.7261  -28.6497   23.0344 C   0  0  0  0  0  0
  -26.4464  -31.6592   25.0708 C   0  0  0  0  0  0
  -25.3749  -31.3688   26.1471 C   0  0  0  0  0  0
  -27.0278  -30.3040   24.6046 C   0  0  0  0  0  0
  -27.6053  -32.4294   25.7467 C   0  0  0  0  0  0
  -27.5580  -37.1813   24.8467 C   0  0  0  0  0  0
  -21.4128  -29.3021   22.3738 N   0  0  0  0  0  0
  -26.4295  -37.3796   23.9407 N   0  0  0  0  0  0
  -24.6632  -31.0815   22.0994 N   0  0  0  0  0  0
  -23.4180  -28.8208   23.3039 O   0  0  0  0  0  0
  -28.3960  -26.7268   20.0746 O   0  0  0  0  0  0
  -26.5590  -34.8930   22.4697 O   0  0  0  0  0  0
  -23.5320  -32.1433   23.7518 O   0  0  0  0  0  0
  -27.6080  -22.0745   20.6815 C   0  0  0  0  0  0
  -29.6189  -22.5515   19.3992 C   0  0  0  0  0  0
  -27.5612  -23.4197   21.1061 C   0  0  0  0  0  0
  -29.5717  -23.8956   19.8240 C   0  0  0  0  0  0
  -28.6345  -21.6260   19.8200 C   0  0  0  0  0  0
  -28.5385  -24.3411   20.6736 C   0  0  0  0  0  0
  -29.7707  -19.7621   17.1653 C   0  0  0  0  0  0
  -28.4224  -20.1544   17.7663 C   0  0  0  0  0  0
  -30.3589  -18.8076   18.1976 C   0  0  0  0  0  0
  -28.6245  -20.1838   19.2945 C   0  0  1  0  0  0
  -29.9293  -19.3740   19.5666 C   0  0  1  0  0  0
  -28.5089  -25.7890   21.1474 C   0  0  0  0  0  0
  -30.8385  -16.4981   22.0104 C   0  0  0  0  0  0
  -31.0353  -17.6517   20.9969 C   0  0  0  0  0  0
  -30.1757  -15.3040   21.4704 N   0  0  0  0  0  0
  -29.7689  -18.3070   20.5897 N   0  3  0  0  0  0
  -31.4611  -12.4031   19.0978 H   0  0  0  0  0  0
  -30.3186  -11.2832   19.7819 H   0  0  0  0  0  0
  -29.7222  -11.8081   17.4015 H   0  0  0  0  0  0
  -29.6568  -13.5125   17.7731 H   0  0  0  0  0  0
  -27.8173  -11.3189   18.7936 H   0  0  0  0  0  0
  -27.3579  -12.6624   17.7830 H   0  0  0  0  0  0
  -27.7139  -14.2557   19.5925 H   0  0  0  0  0  0
  -28.6700  -11.9211   21.3158 H   0  0  0  0  0  0
  -28.4520  -13.5449   21.8784 H   0  0  0  0  0  0
  -25.2743   -9.5692   22.4747 H   0  0  0  0  0  0
  -23.9995   -7.4636   22.7470 H   0  0  0  0  0  0
  -21.0821   -8.8760   19.8953 H   0  0  0  0  0  0
  -22.3669  -10.9659   19.6158 H   0  0  0  0  0  0
  -21.2009   -7.6140   23.9711 H   0  0  0  0  0  0
  -21.1482   -6.0514   25.9074 H   0  0  0  0  0  0
  -22.0598   -2.7600   23.2852 H   0  0  0  0  0  0
  -22.4099  -11.9908   22.4788 H   0  0  0  0  0  0
  -21.1112  -13.1279   22.2581 H   0  0  0  0  0  0
  -24.6629  -15.8404   20.5106 H   0  0  0  0  0  0
  -26.2808  -15.6211   20.0730 H   0  0  0  0  0  0
  -26.7094  -32.5556   23.1167 H   0  0  0  0  0  0
  -25.0053  -33.9789   25.0493 H   0  0  0  0  0  0
  -22.6865  -31.3062   21.4110 H   0  0  0  0  0  0
  -23.3739  -35.9660   23.3320 H   0  0  0  0  0  0
  -24.3583  -36.8910   22.2047 H   0  0  0  0  0  0
  -23.7248  -37.6536   23.6634 H   0  0  0  0  0  0
  -26.0287  -31.6068   20.5871 H   0  0  0  0  0  0
  -26.8146  -30.9020   21.9726 H   0  0  0  0  0  0
  -28.1011  -29.1333   21.1558 H   0  0  0  0  0  0
  -26.0932  -25.9696   19.0301 H   0  0  0  0  0  0
  -23.9860  -27.2804   19.0449 H   0  0  0  0  0  0
  -23.7121  -30.5932   19.4034 H   0  0  0  0  0  0
  -22.7322  -29.2367   19.8730 H   0  0  0  0  0  0
  -25.1277  -36.1987   25.0835 H   0  0  0  0  0  0
  -20.9952  -28.3214   24.1445 H   0  0  0  0  0  0
  -20.5657  -26.2257   23.3601 H   0  0  0  0  0  0
  -21.6635  -26.7433   22.1215 H   0  0  0  0  0  0
  -19.6903  -25.6300   21.1224 H   0  0  0  0  0  0
  -19.6679  -27.3207   20.6751 H   0  0  0  0  0  0
  -17.4188  -26.6666   21.4024 H   0  0  0  0  0  0
  -18.0322  -26.0053   22.9012 H   0  0  0  0  0  0
  -19.7927  -30.7249   24.2288 H   0  0  0  0  0  0
  -17.5008  -31.6261   24.5160 H   0  0  0  0  0  0
  -15.5344  -30.2987   23.7633 H   0  0  0  0  0  0
  -15.8662  -28.0821   22.7047 H   0  0  0  0  0  0
  -24.5912  -30.7041   25.7818 H   0  0  0  0  0  0
  -24.8951  -32.2839   26.4949 H   0  0  0  0  0  0
  -25.8119  -30.8839   27.0208 H   0  0  0  0  0  0
  -26.2800  -29.6814   24.1116 H   0  0  0  0  0  0
  -27.4086  -29.7255   25.4472 H   0  0  0  0  0  0
  -27.8620  -30.4370   23.9154 H   0  0  0  0  0  0
  -27.2685  -33.3581   26.2087 H   0  0  0  0  0  0
  -28.3842  -32.6871   25.0278 H   0  0  0  0  0  0
  -28.0741  -31.8387   26.5348 H   0  0  0  0  0  0
  -28.2612  -38.0096   24.7501 H   0  0  0  0  0  0
  -28.1060  -36.2629   24.6306 H   0  0  0  0  0  0
  -27.2300  -37.1485   25.8873 H   0  0  0  0  0  0
  -20.9284  -29.8742   21.6963 H   0  0  0  0  0  0
  -26.0189  -38.2879   24.1396 H   0  0  0  0  0  0
  -26.8345  -21.3941   21.0114 H   0  0  0  0  0  0
  -30.4116  -22.2438   18.7327 H   0  0  0  0  0  0
  -26.7651  -23.7423   21.7629 H   0  0  0  0  0  0
  -30.3303  -24.5909   19.4923 H   0  0  0  0  0  0
  -30.4083  -20.6406   17.0605 H   0  0  0  0  0  0
  -29.6734  -19.3079   16.1783 H   0  0  0  0  0  0
  -27.6942  -19.3801   17.5193 H   0  0  0  0  0  0
  -28.0338  -21.0895   17.3602 H   0  0  0  0  0  0
  -31.4418  -18.7187   18.1023 H   0  0  0  0  0  0
  -29.9346  -17.8147   18.0387 H   0  0  0  0  0  0
  -27.7713  -19.6728   19.7444 H   0  0  0  0  0  0
  -30.7050  -20.0622   19.9077 H   0  0  0  0  0  0
  -29.4431  -25.9932   21.6717 H   0  0  0  0  0  0
  -27.7192  -25.9185   21.8913 H   0  0  0  0  0  0
  -30.2754  -16.8504   22.8753 H   0  0  0  0  0  0
  -31.8147  -16.2019   22.3993 H   0  0  0  0  0  0
  -31.5700  -17.2865   20.1202 H   0  0  0  0  0  0
  -31.6816  -18.4070   21.4471 H   0  0  0  0  0  0
  -29.2918  -15.0359   21.8792 H   0  0  0  0  0  0
  -29.1304  -17.6077   20.2486 H   0  0  0  0  0  0
  -29.3577  -18.7217   21.4114 H   0  0  0  0  0  0
  1 25  1  0  0  0
  1 30  2  0  0  0
  1 85  1  0  0  0
  2  3  1  0  0  0
  2 25  1  0  0  0
  2 87  1  0  0  0
  2 88  1  0  0  0
  3  4  1  0  0  0
  3 89  1  0  0  0
  3 90  1  0  0  0
  4  5  1  0  0  0
  4 91  1  0  0  0
  4 92  1  0  0  0
  5  6  1  0  0  0
  5 26  1  0  0  0
  5 93  1  0  0  0
  6 25  1  0  0  0
  6 94  1  0  0  0
  6 95  1  0  0  0
  7  8  2  0  0  0
  7 26  1  0  0  0
  7 29  1  0  0  0
  8  9  1  0  0  0
  8 22  1  0  0  0
  9 10  1  0  0  0
  9 27  2  0  0  0
 10 11  2  0  0  0
 10 15  1  0  0  0
 11 12  1  0  0  0
 11 96  1  0  0  0
 12 13  2  0  0  0
 12 97  1  0  0  0
 13 14  1  0  0  0
 13 31  1  0  0  0
 14 15  2  0  0  0
 14 98  1  0  0  0
 15 99  1  0  0  0
 16 17  2  0  0  0
 16 21  1  0  0  0
 16 31  1  0  0  0
 17 18  1  0  0  0
 17100  1  0  0  0
 18 19  2  0  0  0
 18101  1  0  0  0
 19 20  1  0  0  0
 19 24  1  0  0  0
 20 21  2  0  0  0
 20102  1  0  0  0
 21 23  1  0  0  0
 22 28  1  0  0  0
 22 32  2  0  0  0
 26 27  1  0  0  0
 28103  1  0  0  0
 28104  1  0  0  0
 29105  1  0  0  0
 29106  1  0  0  0
 33 34  1  0  0  0
 33 66  1  0  0  0
 33 70  2  0  0  0
 34 36  1  0  0  0
 34 59  1  0  0  0
 34107  1  0  0  0
 35 44  2  0  0  0
 35 45  1  0  0  0
 35 68  1  0  0  0
 36 56  1  0  0  0
 36108  1  0  0  0
 37 39  1  0  0  0
 37 47  1  0  0  0
 37 66  1  0  0  0
 37109  1  0  0  0
 38 43  2  0  0  0
 38 46  1  0  0  0
 38 47  1  0  0  0
 39 64  1  0  0  0
 39 67  2  0  0  0
 40 52  1  0  0  0
 40 53  2  0  0  0
 40 58  1  0  0  0
 41110  1  0  0  0
 41111  1  0  0  0
 41112  1  0  0  0
 41 48  1  0  0  0
 42 43  1  0  0  0
 42 66  1  0  0  0
 42113  1  0  0  0
 42114  1  0  0  0
 43 44  1  0  0  0
 44115  1  0  0  0
 45 46  2  0  0  0
 45116  1  0  0  0
 46117  1  0  0  0
 47118  1  0  0  0
 47119  1  0  0  0
 48 56  1  0  0  0
 48 65  1  0  0  0
 48120  1  0  0  0
 49 50  1  0  0  0
 49 53  1  0  0  0
 49 64  1  0  0  0
 49121  1  0  0  0
 50 51  1  0  0  0
 50122  1  0  0  0
 50123  1  0  0  0
 51 52  1  0  0  0
 51124  1  0  0  0
 51125  1  0  0  0
 52126  1  0  0  0
 52127  1  0  0  0
 53 54  1  0  0  0
 54 55  2  0  0  0
 54128  1  0  0  0
 55 57  1  0  0  0
 55129  1  0  0  0
 56 69  2  0  0  0
 57 58  2  0  0  0
 57130  1  0  0  0
 58131  1  0  0  0
 59 60  1  0  0  0
 59 61  1  0  0  0
 59 62  1  0  0  0
 60132  1  0  0  0
 60133  1  0  0  0
 60134  1  0  0  0
 61135  1  0  0  0
 61136  1  0  0  0
 61137  1  0  0  0
 62138  1  0  0  0
 62139  1  0  0  0
 62140  1  0  0  0
 63 65  1  0  0  0
 63141  1  0  0  0
 63142  1  0  0  0
 63143  1  0  0  0
 64144  1  0  0  0
 65145  1  0  0  0
 68 82  1  0  0  0
 71 73  2  0  0  0
 71 75  1  0  0  0
 71146  1  0  0  0
 72 74  1  0  0  0
 72 75  2  0  0  0
 72147  1  0  0  0
 73 76  1  0  0  0
 73148  1  0  0  0
 74 76  2  0  0  0
 74149  1  0  0  0
 75 80  1  0  0  0
 76 82  1  0  0  0
 77 78  1  0  0  0
 77 79  1  0  0  0
 77150  1  0  0  0
 77151  1  0  0  0
 78 80  1  0  0  0
 78152  1  0  0  0
 78153  1  0  0  0
 79 81  1  0  0  0
 79154  1  0  0  0
 79155  1  0  0  0
 80 81  1  0  0  0
 80156  1  0  0  0
 81 86  1  0  0  0
 81157  1  0  0  0
 82158  1  0  0  0
 82159  1  0  0  0
 83 84  1  0  0  0
 83 85  1  0  0  0
 83160  1  0  0  0
 83161  1  0  0  0
 84 86  1  0  0  0
 84162  1  0  0  0
 84163  1  0  0  0
 85164  1  0  0  0
 86165  1  0  0  0
 86166  1  0  0  0
M  CHG  1  86   1
M  ISO  4   1 100  68 101  82 101  85 100
M  END
> <chiral flag>
0

> <version>
0

> <s_m_source_file>
/data/baiqing/PycharmProjects/Reinvent-master-3.2/result/LINK_invent/BTK/process_docking_weight1_custom_sum_contain_oxygen_bond_distance_aromatic_linkinvent_7_9_3/rearranged_h_0126.sdf

> <i_m_source_file_index>
83

> <r_mmod_Potential_Energy-OPLS-2005>
-141.354385375977

> <r_mmod_Stretch_Energy-OPLS-2005>
34.7790603637695

> <r_mmod_Bend_Energy-OPLS-2005>
109.107353210449

> <r_mmod_Torsional_Energy-OPLS-2005>
340.293548583984

> <r_mmod_Improper_Torsional_Energy-OPLS-2005>
2.31941533088684

> <r_mmod_Van_der_Waal_Energy-OPLS-2005>
143.544555664062

> <r_mmod_Electrostatic_Energy-OPLS-2005>
-318.254058837891

> <r_mmod_Solvation_Energy-OPLS-2005>
-460.808624267578

> <b_mmod_Minimization_Converged-OPLS-2005>
0

> <r_mmod_RMS_Derivative-OPLS-2005>
0.66360741853714

$$$$
83
                    3D
 Structure written by MMmdl.
158166  0  0  1  0            999 V2000
  -30.6834  -14.4993   20.5789 C   0  0  0  0  0  0
  -30.4279  -12.3281   19.4199 C   0  0  0  0  0  0
  -29.4961  -12.5157   18.2056 C   0  0  0  0  0  0
  -28.0153  -12.3753   18.6164 C   0  0  0  0  0  0
  -27.6604  -13.2083   19.8773 C   0  0  2  0  0  0
  -28.7051  -12.9907   20.9956 C   0  0  0  0  0  0
  -25.2563  -13.8149   20.5674 C   0  0  0  0  0  0
  -24.1818  -13.0423   20.9183 C   0  0  0  0  0  0
  -24.6378  -11.6896   20.8749 C   0  0  0  0  0  0
  -23.9044  -10.4283   21.0408 C   0  0  0  0  0  0
  -24.3606   -9.4204   21.9187 C   0  0  0  0  0  0
  -23.6288   -8.2237   22.0753 C   0  0  0  0  0  0
  -22.4271   -8.0270   21.3541 C   0  0  0  0  0  0
  -21.9898   -9.0238   20.4642 C   0  0  0  0  0  0
  -22.7221  -10.2120   20.3051 C   0  0  0  0  0  0
  -21.6853   -6.0724   22.5278 C   0  0  0  0  0  0
  -21.4019   -6.5629   23.8209 C   0  0  0  0  0  0
  -21.3663   -5.6785   24.9174 C   0  0  0  0  0  0
  -21.6042   -4.3047   24.7228 C   0  0  0  0  0  0
  -21.8824   -3.8137   23.4354 C   0  0  0  0  0  0
  -21.9192   -4.6951   22.3406 C   0  0  0  0  0  0
  -22.7845  -13.5224   21.1848 C   0  0  0  0  0  0
  -22.1664   -4.2132   21.0983 F   0  0  0  0  0  0
  -21.5629   -3.4531   25.7744 F   0  0  0  0  0  0
  -30.0323  -13.3106   20.4419 N   0  0  0  0  0  0
  -26.3014  -12.9323   20.3391 N   0  0  0  0  0  0
  -25.9310  -11.6481   20.5789 N   0  0  0  0  0  0
  -22.0485  -12.8226   22.0411 N   0  0  0  0  0  0
  -25.4256  -15.1873   20.4054 N   0  0  0  0  0  0
  -31.8077  -14.7065   20.1139 O   0  0  0  0  0  0
  -21.6639   -6.8869   21.4241 O   0  0  0  0  0  0
  -22.3533  -14.5535   20.6703 O   0  0  0  0  0  0
  -24.6163  -31.8633   23.2052 C   0  0  0  0  0  0
  -25.9051  -32.4793   23.8349 C   0  0  1  0  0  0
  -27.2433  -27.4024   20.0923 C   0  0  0  0  0  0
  -25.5904  -33.8592   24.2265 N   0  0  0  0  0  0
  -23.4053  -30.4855   21.5458 C   0  0  2  0  0  0
  -24.8520  -28.9432   20.1170 C   0  0  0  0  0  0
  -22.7411  -29.4634   22.4964 C   0  0  0  0  0  0
  -18.0273  -28.1371   22.8502 C   0  0  0  0  0  0
  -24.1481  -36.7298   23.2636 C   0  0  0  0  0  0
  -25.9376  -30.8187   21.3636 C   0  0  0  0  0  0
  -26.0130  -29.4502   20.7109 C   0  0  0  0  0  0
  -27.2047  -28.6858   20.6955 C   0  0  0  0  0  0
  -26.0508  -26.9077   19.5128 C   0  0  0  0  0  0
  -24.8669  -27.6720   19.5197 C   0  0  0  0  0  0
  -23.6149  -29.8126   20.1632 C   0  0  0  0  0  0
  -25.4113  -36.3084   24.0314 C   0  0  1  0  0  0
  -20.5871  -28.3644   23.1314 C   0  0  2  0  0  0
  -20.6758  -26.9377   22.5421 C   0  0  0  0  0  0
  -19.5738  -26.6377   21.5217 C   0  0  0  0  0  0
  -18.1915  -26.7921   22.1628 C   0  0  0  0  0  0
  -19.1531  -28.8828   23.2896 C   0  0  0  0  0  0
  -18.9459  -30.1445   23.8887 C   0  0  0  0  0  0
  -17.6462  -30.6581   24.0565 C   0  0  0  0  0  0
  -25.9048  -34.9454   23.5089 C   0  0  0  0  0  0
  -16.5347  -29.9083   23.6341 C   0  0  0  0  0  0
  -16.7262  -28.6503   23.0352 C   0  0  0  0  0  0
  -26.4456  -31.6601   25.0707 C   0  0  0  0  0  0
  -25.3714  -31.3753   26.1455 C   0  0  0  0  0  0
  -27.0287  -30.3024   24.6140 C   0  0  0  0  0  0
  -27.6002  -32.4336   25.7499 C   0  0  0  0  0  0
  -27.5569  -37.1804   24.8463 C   0  0  0  0  0  0
  -21.4139  -29.3006   22.3707 N   0  0  0  0  0  0
  -26.4286  -37.3782   23.9401 N   0  0  0  0  0  0
  -24.6710  -31.0724   22.0956 N   0  0  0  0  0  0
  -23.4174  -28.8189   23.3020 O   0  0  0  0  0  0
  -28.4400  -26.6997   20.1084 O   0  0  0  0  0  0
  -26.5618  -34.8921   22.4655 O   0  0  0  0  0  0
  -23.5348  -32.1397   23.7442 O   0  0  0  0  0  0
  -28.8590  -24.2611   21.6705 C   0  0  0  0  0  0
  -28.7594  -22.8843   19.6961 C   0  0  0  0  0  0
  -28.7244  -24.1809   20.2708 C   0  0  0  0  0  0
  -29.0132  -23.0790   22.4201 C   0  0  0  0  0  0
  -28.9144  -21.7408   20.5217 C   0  0  0  0  0  0
  -29.1698  -23.1397   23.9242 C   0  0  0  0  0  0
  -28.6168  -25.4488   19.3991 C   0  0  0  0  0  0
  -28.9293  -20.3126   19.9501 C   0  0  0  0  0  0
  -30.3219  -16.9124   21.3305 C   0  0  0  0  0  0
  -29.4485  -17.9035   20.4973 C   0  0  0  0  0  0
  -29.0395  -21.8456   21.8648 N   0  0  0  0  0  0
  -29.9568  -15.4915   21.1347 N   0  0  0  0  0  0
  -29.6656  -19.3490   20.8118 N   0  3  0  0  0  0
  -31.4707  -12.4400   19.1187 H   0  0  0  0  0  0
  -30.3397  -11.3153   19.8161 H   0  0  0  0  0  0
  -29.7381  -11.7899   17.4279 H   0  0  0  0  0  0
  -29.6610  -13.5004   17.7656 H   0  0  0  0  0  0
  -27.8206  -11.3190   18.8048 H   0  0  0  0  0  0
  -27.3691  -12.6594   17.7848 H   0  0  0  0  0  0
  -27.7001  -14.2584   19.5878 H   0  0  0  0  0  0
  -28.6868  -11.9543   21.3352 H   0  0  0  0  0  0
  -28.4633  -13.5866   21.8768 H   0  0  0  0  0  0
  -25.2749   -9.5684   22.4763 H   0  0  0  0  0  0
  -23.9993   -7.4632   22.7471 H   0  0  0  0  0  0
  -21.0834   -8.8749   19.8949 H   0  0  0  0  0  0
  -22.3675  -10.9656   19.6162 H   0  0  0  0  0  0
  -21.2011   -7.6135   23.9707 H   0  0  0  0  0  0
  -21.1491   -6.0519   25.9075 H   0  0  0  0  0  0
  -22.0604   -2.7593   23.2861 H   0  0  0  0  0  0
  -22.4085  -11.9883   22.4798 H   0  0  0  0  0  0
  -21.1109  -13.1264   22.2616 H   0  0  0  0  0  0
  -24.6518  -15.8384   20.4863 H   0  0  0  0  0  0
  -26.2726  -15.6222   20.0647 H   0  0  0  0  0  0
  -26.7121  -32.5476   23.1105 H   0  0  0  0  0  0
  -25.0047  -33.9747   25.0406 H   0  0  0  0  0  0
  -22.6947  -31.3015   21.4009 H   0  0  0  0  0  0
  -23.3735  -35.9643   23.3320 H   0  0  0  0  0  0
  -24.3569  -36.8907   22.2049 H   0  0  0  0  0  0
  -23.7263  -37.6513   23.6655 H   0  0  0  0  0  0
  -26.0599  -31.5843   20.5960 H   0  0  0  0  0  0
  -26.8213  -30.8670   21.9878 H   0  0  0  0  0  0
  -28.1036  -29.0781   21.1505 H   0  0  0  0  0  0
  -25.9985  -25.9285   19.0640 H   0  0  0  0  0  0
  -23.9689  -27.2658   19.0739 H   0  0  0  0  0  0
  -23.7242  -30.5824   19.3990 H   0  0  0  0  0  0
  -22.7382  -29.2316   19.8699 H   0  0  0  0  0  0
  -25.1297  -36.1918   25.0808 H   0  0  0  0  0  0
  -20.9963  -28.3217   24.1434 H   0  0  0  0  0  0
  -20.5674  -26.2240   23.3604 H   0  0  0  0  0  0
  -21.6618  -26.7425   22.1197 H   0  0  0  0  0  0
  -19.6897  -25.6296   21.1227 H   0  0  0  0  0  0
  -19.6685  -27.3192   20.6759 H   0  0  0  0  0  0
  -17.4181  -26.6666   21.4032 H   0  0  0  0  0  0
  -18.0310  -26.0063   22.9024 H   0  0  0  0  0  0
  -19.7936  -30.7269   24.2227 H   0  0  0  0  0  0
  -17.5021  -31.6265   24.5156 H   0  0  0  0  0  0
  -15.5348  -30.2979   23.7689 H   0  0  0  0  0  0
  -15.8658  -28.0834   22.7058 H   0  0  0  0  0  0
  -24.5886  -30.7087   25.7827 H   0  0  0  0  0  0
  -24.8912  -32.2932   26.4850 H   0  0  0  0  0  0
  -25.8071  -30.8981   27.0243 H   0  0  0  0  0  0
  -26.2855  -29.6804   24.1137 H   0  0  0  0  0  0
  -27.3959  -29.7243   25.4634 H   0  0  0  0  0  0
  -27.8731  -30.4300   23.9359 H   0  0  0  0  0  0
  -27.2580  -33.3622   26.2076 H   0  0  0  0  0  0
  -28.3838  -32.6928   25.0370 H   0  0  0  0  0  0
  -28.0637  -31.8470   26.5437 H   0  0  0  0  0  0
  -28.2584  -38.0095   24.7494 H   0  0  0  0  0  0
  -28.1056  -36.2629   24.6299 H   0  0  0  0  0  0
  -27.2278  -37.1464   25.8861 H   0  0  0  0  0  0
  -20.9284  -29.8712   21.6925 H   0  0  0  0  0  0
  -26.0152  -38.2843   24.1432 H   0  0  0  0  0  0
  -28.8592  -25.2234   22.1647 H   0  0  0  0  0  0
  -28.6708  -22.7665   18.6239 H   0  0  0  0  0  0
  -29.9444  -23.8562   24.1988 H   0  0  0  0  0  0
  -29.4496  -22.1679   24.3330 H   0  0  0  0  0  0
  -28.2350  -23.4491   24.3901 H   0  0  0  0  0  0
  -27.9116  -25.2922   18.5855 H   0  0  0  0  0  0
  -29.5797  -25.5388   18.8961 H   0  0  0  0  0  0
  -29.3652  -20.3186   18.9501 H   0  0  0  0  0  0
  -27.8946  -19.9857   19.8445 H   0  0  0  0  0  0
  -30.2072  -17.1281   22.3934 H   0  0  0  0  0  0
  -31.3779  -17.0680   21.1050 H   0  0  0  0  0  0
  -28.3923  -17.6779   20.6499 H   0  0  0  0  0  0
  -29.6474  -17.7427   19.4364 H   0  0  0  0  0  0
  -29.0432  -15.2152   21.4630 H   0  0  0  0  0  0
  -29.3589  -19.5673   21.7476 H   0  0  0  0  0  0
  -30.6410  -19.5875   20.7622 H   0  0  0  0  0  0
  1 25  1  0  0  0
  1 30  2  0  0  0
  1 82  1  0  0  0
  2  3  1  0  0  0
  2 25  1  0  0  0
  2 84  1  0  0  0
  2 85  1  0  0  0
  3  4  1  0  0  0
  3 86  1  0  0  0
  3 87  1  0  0  0
  4  5  1  0  0  0
  4 88  1  0  0  0
  4 89  1  0  0  0
  5  6  1  0  0  0
  5 26  1  0  0  0
  5 90  1  0  0  0
  6 25  1  0  0  0
  6 91  1  0  0  0
  6 92  1  0  0  0
  7  8  2  0  0  0
  7 26  1  0  0  0
  7 29  1  0  0  0
  8  9  1  0  0  0
  8 22  1  0  0  0
  9 10  1  0  0  0
  9 27  2  0  0  0
 10 11  2  0  0  0
 10 15  1  0  0  0
 11 12  1  0  0  0
 11 93  1  0  0  0
 12 13  2  0  0  0
 12 94  1  0  0  0
 13 14  1  0  0  0
 13 31  1  0  0  0
 14 15  2  0  0  0
 14 95  1  0  0  0
 15 96  1  0  0  0
 16 17  2  0  0  0
 16 21  1  0  0  0
 16 31  1  0  0  0
 17 18  1  0  0  0
 17 97  1  0  0  0
 18 19  2  0  0  0
 18 98  1  0  0  0
 19 20  1  0  0  0
 19 24  1  0  0  0
 20 21  2  0  0  0
 20 99  1  0  0  0
 21 23  1  0  0  0
 22 28  1  0  0  0
 22 32  2  0  0  0
 26 27  1  0  0  0
 28100  1  0  0  0
 28101  1  0  0  0
 29102  1  0  0  0
 29103  1  0  0  0
 33 34  1  0  0  0
 33 66  1  0  0  0
 33 70  2  0  0  0
 34 36  1  0  0  0
 34 59  1  0  0  0
 34104  1  0  0  0
 35 44  2  0  0  0
 35 45  1  0  0  0
 35 68  1  0  0  0
 36 56  1  0  0  0
 36105  1  0  0  0
 37 39  1  0  0  0
 37 47  1  0  0  0
 37 66  1  0  0  0
 37106  1  0  0  0
 38 43  2  0  0  0
 38 46  1  0  0  0
 38 47  1  0  0  0
 39 64  1  0  0  0
 39 67  2  0  0  0
 40 52  1  0  0  0
 40 53  2  0  0  0
 40 58  1  0  0  0
 41107  1  0  0  0
 41108  1  0  0  0
 41109  1  0  0  0
 41 48  1  0  0  0
 42 43  1  0  0  0
 42 66  1  0  0  0
 42110  1  0  0  0
 42111  1  0  0  0
 43 44  1  0  0  0
 44112  1  0  0  0
 45 46  2  0  0  0
 45113  1  0  0  0
 46114  1  0  0  0
 47115  1  0  0  0
 47116  1  0  0  0
 48 56  1  0  0  0
 48 65  1  0  0  0
 48117  1  0  0  0
 49 50  1  0  0  0
 49 53  1  0  0  0
 49 64  1  0  0  0
 49118  1  0  0  0
 50 51  1  0  0  0
 50119  1  0  0  0
 50120  1  0  0  0
 51 52  1  0  0  0
 51121  1  0  0  0
 51122  1  0  0  0
 52123  1  0  0  0
 52124  1  0  0  0
 53 54  1  0  0  0
 54 55  2  0  0  0
 54125  1  0  0  0
 55 57  1  0  0  0
 55126  1  0  0  0
 56 69  2  0  0  0
 57 58  2  0  0  0
 57127  1  0  0  0
 58128  1  0  0  0
 59 60  1  0  0  0
 59 61  1  0  0  0
 59 62  1  0  0  0
 60129  1  0  0  0
 60130  1  0  0  0
 60131  1  0  0  0
 61132  1  0  0  0
 61133  1  0  0  0
 61134  1  0  0  0
 62135  1  0  0  0
 62136  1  0  0  0
 62137  1  0  0  0
 63 65  1  0  0  0
 63138  1  0  0  0
 63139  1  0  0  0
 63140  1  0  0  0
 64141  1  0  0  0
 65142  1  0  0  0
 68 77  1  0  0  0
 71 73  2  0  0  0
 71 74  1  0  0  0
 71143  1  0  0  0
 72 73  1  0  0  0
 72 75  2  0  0  0
 72144  1  0  0  0
 73 77  1  0  0  0
 74 76  1  0  0  0
 74 81  2  0  0  0
 75 78  1  0  0  0
 75 81  1  0  0  0
 76145  1  0  0  0
 76146  1  0  0  0
 76147  1  0  0  0
 77148  1  0  0  0
 77149  1  0  0  0
 78 83  1  0  0  0
 78150  1  0  0  0
 78151  1  0  0  0
 79 80  1  0  0  0
 79 82  1  0  0  0
 79152  1  0  0  0
 79153  1  0  0  0
 80 83  1  0  0  0
 80154  1  0  0  0
 80155  1  0  0  0
 82156  1  0  0  0
 83157  1  0  0  0
 83158  1  0  0  0
M  CHG  1  83   1
M  ISO  4   1 100  68 101  77 101  82 100
M  END
> <chiral flag>
0

> <version>
0

> <s_m_source_file>
/data/baiqing/PycharmProjects/Reinvent-master-3.2/result/LINK_invent/BTK/process_docking_weight1_custom_sum_contain_oxygen_bond_distance_aromatic_linkinvent_7_9_3/rearranged_h_0126.sdf

> <i_m_source_file_index>
84

> <r_mmod_Potential_Energy-OPLS-2005>
-551.285583496094

> <r_mmod_Stretch_Energy-OPLS-2005>
42.7695541381836

> <r_mmod_Bend_Energy-OPLS-2005>
108.957984924316

> <r_mmod_Torsional_Energy-OPLS-2005>
196.277435302734

> <r_mmod_Improper_Torsional_Energy-OPLS-2005>
3.37276196479797

> <r_mmod_Van_der_Waal_Energy-OPLS-2005>
153.405715942383

> <r_mmod_Electrostatic_Energy-OPLS-2005>
-595.526062011719

> <r_mmod_Solvation_Energy-OPLS-2005>
-476.622894287109

> <b_mmod_Minimization_Converged-OPLS-2005>
0

> <r_mmod_RMS_Derivative-OPLS-2005>
1.65755891799927

$$$$
84
                    3D
 Structure written by MMmdl.
166175  0  0  1  0            999 V2000
  -30.5473  -14.9751   20.3580 C   0  0  0  0  0  0
  -30.4120  -12.6027   19.4715 C   0  0  0  0  0  0
  -29.4940  -12.4950   18.2359 C   0  0  0  0  0  0
  -28.0363  -12.2743   18.6724 C   0  0  0  0  0  0
  -27.6027  -13.2461   19.8015 C   0  0  2  0  0  0
  -28.6438  -13.3494   20.9326 C   0  0  0  0  0  0
  -25.2347  -13.8211   20.5662 C   0  0  0  0  0  0
  -24.1710  -13.0445   20.9218 C   0  0  0  0  0  0
  -24.6308  -11.6910   20.8734 C   0  0  0  0  0  0
  -23.8989  -10.4288   21.0381 C   0  0  0  0  0  0
  -24.3568   -9.4215   21.9162 C   0  0  0  0  0  0
  -23.6274   -8.2238   22.0742 C   0  0  0  0  0  0
  -22.4264   -8.0227   21.3531 C   0  0  0  0  0  0
  -21.9860   -9.0175   20.4635 C   0  0  0  0  0  0
  -22.7150  -10.2081   20.3035 C   0  0  0  0  0  0
  -21.6850   -6.0695   22.5257 C   0  0  0  0  0  0
  -21.4031   -6.5616   23.8187 C   0  0  0  0  0  0
  -21.3675   -5.6771   24.9151 C   0  0  0  0  0  0
  -21.6060   -4.3031   24.7206 C   0  0  0  0  0  0
  -21.8821   -3.8109   23.4329 C   0  0  0  0  0  0
  -21.9200   -4.6926   22.3388 C   0  0  0  0  0  0
  -22.7726  -13.5193   21.1873 C   0  0  0  0  0  0
  -22.1654   -4.2103   21.0967 F   0  0  0  0  0  0
  -21.5633   -3.4529   25.7733 F   0  0  0  0  0  0
  -29.9083  -13.7362   20.3017 N   0  0  0  0  0  0
  -26.2735  -12.9440   20.3112 N   0  0  0  0  0  0
  -25.9224  -11.6577   20.5700 N   0  0  0  0  0  0
  -22.0381  -12.8197   22.0433 N   0  0  0  0  0  0
  -25.4039  -15.1952   20.4089 N   0  0  0  0  0  0
  -31.7786  -14.9357   20.2214 O   0  0  0  0  0  0
  -21.6646   -6.8815   21.4210 O   0  0  0  0  0  0
  -22.3391  -14.5464   20.6630 O   0  0  0  0  0  0
  -24.6470  -31.8463   23.1888 C   0  0  0  0  0  0
  -25.9253  -32.4709   23.8265 C   0  0  1  0  0  0
  -27.1972  -27.1193   20.1134 C   0  0  0  0  0  0
  -25.6049  -33.8527   24.2170 N   0  0  0  0  0  0
  -23.4464  -30.4705   21.5347 C   0  0  2  0  0  0
  -24.8866  -28.8983   20.0993 C   0  0  0  0  0  0
  -22.7593  -29.4572   22.4845 C   0  0  0  0  0  0
  -18.0310  -28.1435   22.8455 C   0  0  0  0  0  0
  -24.1508  -36.7286   23.2616 C   0  0  0  0  0  0
  -26.0059  -30.7055   21.3945 C   0  0  0  0  0  0
  -26.0651  -29.3173   20.7294 C   0  0  0  0  0  0
  -27.2144  -28.4397   20.7289 C   0  0  0  0  0  0
  -25.9985  -26.8226   19.4246 C   0  0  0  0  0  0
  -24.8690  -27.6674   19.4298 C   0  0  0  0  0  0
  -23.6717  -29.8105   20.1482 C   0  0  0  0  0  0
  -25.4134  -36.3038   24.0276 C   0  0  1  0  0  0
  -20.5917  -28.3750   23.1218 C   0  0  2  0  0  0
  -20.6853  -26.9474   22.5382 C   0  0  0  0  0  0
  -19.5813  -26.6397   21.5236 C   0  0  0  0  0  0
  -18.1971  -26.7965   22.1619 C   0  0  0  0  0  0
  -19.1571  -28.8912   23.2817 C   0  0  0  0  0  0
  -18.9507  -30.1518   23.8834 C   0  0  0  0  0  0
  -17.6520  -30.6610   24.0580 C   0  0  0  0  0  0
  -25.9094  -34.9421   23.4999 C   0  0  0  0  0  0
  -16.5400  -29.9107   23.6373 C   0  0  0  0  0  0
  -16.7311  -28.6553   23.0327 C   0  0  0  0  0  0
  -26.4569  -31.6596   25.0711 C   0  0  0  0  0  0
  -25.3722  -31.3860   26.1382 C   0  0  0  0  0  0
  -27.0436  -30.2988   24.6309 C   0  0  0  0  0  0
  -27.6058  -32.4398   25.7518 C   0  0  0  0  0  0
  -27.5573  -37.1795   24.8445 C   0  0  0  0  0  0
  -21.4288  -29.3078   22.3616 N   0  0  0  0  0  0
  -26.4288  -37.3760   23.9396 N   0  0  0  0  0  0
  -24.7198  -31.0284   22.0945 N   0  0  0  0  0  0
  -23.4272  -28.8099   23.2962 O   0  0  0  0  0  0
  -28.2460  -26.1256   20.2022 O   0  0  0  0  0  0
  -26.5614  -34.8915   22.4541 O   0  0  0  0  0  0
  -23.5594  -32.1375   23.7101 O   0  0  0  0  0  0
  -29.7110  -18.4725   23.3307 C   0  0  0  0  0  0
  -31.0555  -18.2092   22.6751 C   0  0  0  0  0  0
  -30.2648  -18.5408   19.0906 C   0  0  0  0  0  0
  -30.3029  -16.9855   18.8576 C   0  0  0  0  0  0
  -29.8516  -17.3823   22.3023 C   0  0  0  0  0  0
  -29.1466  -18.8375   20.0734 C   0  0  1  0  0  0
  -29.2598  -17.3744   20.8928 C   0  0  2  0  0  0
  -27.9684  -21.7363   17.4434 C   0  0  0  0  0  0
  -29.0395  -20.4404   20.6693 C   0  0  0  0  0  0
  -27.5608  -21.5468   18.9117 C   0  0  0  0  0  0
  -28.6560  -23.2148   20.5025 C   0  0  0  0  0  0
  -28.1491  -24.6343   19.7180 C   0  0  0  0  0  0
  -29.8634  -16.2097   20.0499 N   0  0  0  0  0  0
  -28.7080  -21.7605   19.8268 N   0  3  1  0  0  0
  -31.4412  -12.7613   19.1416 H   0  0  0  0  0  0
  -30.4120  -11.6698   20.0332 H   0  0  0  0  0  0
  -29.8132  -11.6724   17.5956 H   0  0  0  0  0  0
  -29.5665  -13.4034   17.6350 H   0  0  0  0  0  0
  -27.9512  -11.2415   19.0170 H   0  0  0  0  0  0
  -27.3658  -12.3507   17.8148 H   0  0  0  0  0  0
  -27.5442  -14.2262   19.3255 H   0  0  0  0  0  0
  -28.7378  -12.4129   21.4874 H   0  0  0  0  0  0
  -28.3353  -14.1209   21.6392 H   0  0  0  0  0  0
  -25.2705   -9.5739   22.4737 H   0  0  0  0  0  0
  -23.9972   -7.4661   22.7486 H   0  0  0  0  0  0
  -21.0782   -8.8650   19.8973 H   0  0  0  0  0  0
  -22.3527  -10.9594   19.6153 H   0  0  0  0  0  0
  -21.2019   -7.6131   23.9675 H   0  0  0  0  0  0
  -21.1520   -6.0515   25.9062 H   0  0  0  0  0  0
  -22.0600   -2.7560   23.2852 H   0  0  0  0  0  0
  -22.4013  -11.9886   22.4871 H   0  0  0  0  0  0
  -21.0989  -13.1229   22.2627 H   0  0  0  0  0  0
  -24.6368  -15.8469   20.5420 H   0  0  0  0  0  0
  -26.2582  -15.6434   20.1028 H   0  0  0  0  0  0
  -26.7290  -32.5267   23.0967 H   0  0  0  0  0  0
  -25.0407  -33.9686   25.0445 H   0  0  0  0  0  0
  -22.7475  -31.2961   21.3847 H   0  0  0  0  0  0
  -23.3777  -35.9624   23.3253 H   0  0  0  0  0  0
  -24.3592  -36.8968   22.2048 H   0  0  0  0  0  0
  -23.7274  -37.6461   23.6695 H   0  0  0  0  0  0
  -26.1644  -31.4613   20.6249 H   0  0  0  0  0  0
  -26.8815  -30.7527   22.0330 H   0  0  0  0  0  0
  -28.1052  -28.7528   21.2492 H   0  0  0  0  0  0
  -25.8762  -25.9088   18.8632 H   0  0  0  0  0  0
  -23.9767  -27.3583   18.9005 H   0  0  0  0  0  0
  -23.8223  -30.5982   19.4080 H   0  0  0  0  0  0
  -22.7824  -29.2681   19.8204 H   0  0  0  0  0  0
  -25.1334  -36.1860   25.0774 H   0  0  0  0  0  0
  -20.9994  -28.3384   24.1348 H   0  0  0  0  0  0
  -20.5877  -26.2405   23.3623 H   0  0  0  0  0  0
  -21.6702  -26.7576   22.1107 H   0  0  0  0  0  0
  -19.7011  -25.6298   21.1304 H   0  0  0  0  0  0
  -19.6730  -27.3186   20.6747 H   0  0  0  0  0  0
  -17.4274  -26.6719   21.3985 H   0  0  0  0  0  0
  -18.0312  -26.0103   22.9008 H   0  0  0  0  0  0
  -19.7992  -30.7339   24.2161 H   0  0  0  0  0  0
  -17.5078  -31.6261   24.5226 H   0  0  0  0  0  0
  -15.5405  -30.3014   23.7707 H   0  0  0  0  0  0
  -15.8709  -28.0882   22.7028 H   0  0  0  0  0  0
  -24.5849  -30.7286   25.7720 H   0  0  0  0  0  0
  -24.8967  -32.3093   26.4705 H   0  0  0  0  0  0
  -25.7935  -30.9077   27.0227 H   0  0  0  0  0  0
  -26.3057  -29.6705   24.1327 H   0  0  0  0  0  0
  -27.4065  -29.7304   25.4886 H   0  0  0  0  0  0
  -27.8958  -30.4228   23.9619 H   0  0  0  0  0  0
  -27.2586  -33.3708   26.2013 H   0  0  0  0  0  0
  -28.3901  -32.6976   25.0394 H   0  0  0  0  0  0
  -28.0688  -31.8601   26.5511 H   0  0  0  0  0  0
  -28.2552  -38.0125   24.7515 H   0  0  0  0  0  0
  -28.1094  -36.2654   24.6236 H   0  0  0  0  0  0
  -27.2275  -37.1397   25.8835 H   0  0  0  0  0  0
  -20.9558  -29.8836   21.6789 H   0  0  0  0  0  0
  -26.0144  -38.2816   24.1451 H   0  0  0  0  0  0
  -29.1367  -19.3528   23.0733 H   0  0  0  0  0  0
  -29.6112  -18.1652   24.3678 H   0  0  0  0  0  0
  -31.8185  -17.6818   23.2479 H   0  0  0  0  0  0
  -31.4382  -18.9410   21.9660 H   0  0  0  0  0  0
  -30.1287  -19.0999   18.1644 H   0  0  0  0  0  0
  -31.2103  -18.8761   19.5210 H   0  0  0  0  0  0
  -31.2991  -16.7021   18.5105 H   0  0  0  0  0  0
  -29.6236  -16.7170   18.0478 H   0  0  0  0  0  0
  -29.7857  -16.3986   22.7633 H   0  0  0  0  0  0
  -28.2331  -18.7224   19.4890 H   0  0  0  0  0  0
  -28.2233  -17.0691   21.0429 H   0  0  0  0  0  0
  -27.0841  -21.6693   16.8075 H   0  0  0  0  0  0
  -28.6743  -20.9693   17.1180 H   0  0  0  0  0  0
  -28.4351  -22.7053   17.2602 H   0  0  0  0  0  0
  -29.9794  -20.6429   21.1834 H   0  0  0  0  0  0
  -28.2666  -20.4310   21.4347 H   0  0  0  0  0  0
  -27.1608  -20.5440   19.0308 H   0  0  0  0  0  0
  -26.7291  -22.2031   19.1647 H   0  0  0  0  0  0
  -28.0254  -23.1208   21.3886 H   0  0  0  0  0  0
  -29.6614  -23.3991   20.8810 H   0  0  0  0  0  0
  -27.1192  -24.4304   19.4533 H   0  0  0  0  0  0
  -28.6615  -24.6423   18.7538 H   0  0  0  0  0  0
  -29.4925  -21.8356   19.1963 H   0  0  0  0  0  0
  1 25  1  0  0  0
  1 30  2  0  0  0
  1 83  1  0  0  0
  2  3  1  0  0  0
  2 25  1  0  0  0
  2 85  1  0  0  0
  2 86  1  0  0  0
  3  4  1  0  0  0
  3 87  1  0  0  0
  3 88  1  0  0  0
  4  5  1  0  0  0
  4 89  1  0  0  0
  4 90  1  0  0  0
  5  6  1  0  0  0
  5 26  1  0  0  0
  5 91  1  0  0  0
  6 25  1  0  0  0
  6 92  1  0  0  0
  6 93  1  0  0  0
  7  8  2  0  0  0
  7 26  1  0  0  0
  7 29  1  0  0  0
  8  9  1  0  0  0
  8 22  1  0  0  0
  9 10  1  0  0  0
  9 27  2  0  0  0
 10 11  2  0  0  0
 10 15  1  0  0  0
 11 12  1  0  0  0
 11 94  1  0  0  0
 12 13  2  0  0  0
 12 95  1  0  0  0
 13 14  1  0  0  0
 13 31  1  0  0  0
 14 15  2  0  0  0
 14 96  1  0  0  0
 15 97  1  0  0  0
 16 17  2  0  0  0
 16 21  1  0  0  0
 16 31  1  0  0  0
 17 18  1  0  0  0
 17 98  1  0  0  0
 18 19  2  0  0  0
 18 99  1  0  0  0
 19 20  1  0  0  0
 19 24  1  0  0  0
 20 21  2  0  0  0
 20100  1  0  0  0
 21 23  1  0  0  0
 22 28  1  0  0  0
 22 32  2  0  0  0
 26 27  1  0  0  0
 28101  1  0  0  0
 28102  1  0  0  0
 29103  1  0  0  0
 29104  1  0  0  0
 33 34  1  0  0  0
 33 66  1  0  0  0
 33 70  2  0  0  0
 34 36  1  0  0  0
 34 59  1  0  0  0
 34105  1  0  0  0
 35 44  2  0  0  0
 35 45  1  0  0  0
 35 68  1  0  0  0
 36 56  1  0  0  0
 36106  1  0  0  0
 37 39  1  0  0  0
 37 47  1  0  0  0
 37 66  1  0  0  0
 37107  1  0  0  0
 38 43  2  0  0  0
 38 46  1  0  0  0
 38 47  1  0  0  0
 39 64  1  0  0  0
 39 67  2  0  0  0
 40 52  1  0  0  0
 40 53  2  0  0  0
 40 58  1  0  0  0
 41108  1  0  0  0
 41109  1  0  0  0
 41110  1  0  0  0
 41 48  1  0  0  0
 42 43  1  0  0  0
 42 66  1  0  0  0
 42111  1  0  0  0
 42112  1  0  0  0
 43 44  1  0  0  0
 44113  1  0  0  0
 45 46  2  0  0  0
 45114  1  0  0  0
 46115  1  0  0  0
 47116  1  0  0  0
 47117  1  0  0  0
 48 56  1  0  0  0
 48 65  1  0  0  0
 48118  1  0  0  0
 49 50  1  0  0  0
 49 53  1  0  0  0
 49 64  1  0  0  0
 49119  1  0  0  0
 50 51  1  0  0  0
 50120  1  0  0  0
 50121  1  0  0  0
 51 52  1  0  0  0
 51122  1  0  0  0
 51123  1  0  0  0
 52124  1  0  0  0
 52125  1  0  0  0
 53 54  1  0  0  0
 54 55  2  0  0  0
 54126  1  0  0  0
 55 57  1  0  0  0
 55127  1  0  0  0
 56 69  2  0  0  0
 57 58  2  0  0  0
 57128  1  0  0  0
 58129  1  0  0  0
 59 60  1  0  0  0
 59 61  1  0  0  0
 59 62  1  0  0  0
 60130  1  0  0  0
 60131  1  0  0  0
 60132  1  0  0  0
 61133  1  0  0  0
 61134  1  0  0  0
 61135  1  0  0  0
 62136  1  0  0  0
 62137  1  0  0  0
 62138  1  0  0  0
 63 65  1  0  0  0
 63139  1  0  0  0
 63140  1  0  0  0
 63141  1  0  0  0
 64142  1  0  0  0
 65143  1  0  0  0
 68 82  1  0  0  0
 71 72  1  0  0  0
 71144  1  0  0  0
 71145  1  0  0  0
 71 75  1  0  0  0
 72 75  1  0  0  0
 72146  1  0  0  0
 72147  1  0  0  0
 73 74  1  0  0  0
 73 76  1  0  0  0
 73148  1  0  0  0
 73149  1  0  0  0
 74 83  1  0  0  0
 74150  1  0  0  0
 74151  1  0  0  0
 75 77  1  0  0  0
 75152  1  0  0  0
 76 77  1  0  0  0
 76 79  1  0  0  0
 76153  1  0  0  0
 77 83  1  0  0  0
 77154  1  0  0  0
 78 80  1  0  0  0
 78155  1  0  0  0
 78156  1  0  0  0
 78157  1  0  0  0
 79158  1  0  0  0
 79159  1  0  0  0
 79 84  1  0  0  0
 80 84  1  0  0  0
 80160  1  0  0  0
 80161  1  0  0  0
 81 82  1  0  0  0
 81 84  1  0  0  0
 81162  1  0  0  0
 81163  1  0  0  0
 82164  1  0  0  0
 82165  1  0  0  0
 84166  1  0  0  0
M  CHG  1  84   1
M  ISO  4   1 100  68 101  82 101  83 100
M  END
> <chiral flag>
0

> <version>
0

> <s_m_source_file>
/data/baiqing/PycharmProjects/Reinvent-master-3.2/result/LINK_invent/BTK/process_docking_weight1_custom_sum_contain_oxygen_bond_distance_aromatic_linkinvent_7_9_3/rearranged_h_0126.sdf

> <i_m_source_file_index>
85

> <r_mmod_Potential_Energy-OPLS-2005>
855.020385742188

> <r_mmod_Stretch_Energy-OPLS-2005>
295.383666992188

> <r_mmod_Bend_Energy-OPLS-2005>
340.687316894531

> <r_mmod_Torsional_Energy-OPLS-2005>
415.098815917969

> <r_mmod_Improper_Torsional_Energy-OPLS-2005>
19.9784259796143

> <r_mmod_Van_der_Waal_Energy-OPLS-2005>
107.560348510742

> <r_mmod_Electrostatic_Energy-OPLS-2005>
-126.422210693359

> <r_mmod_Solvation_Energy-OPLS-2005>
-416.780731201172

> <b_mmod_Minimization_Converged-OPLS-2005>
0

> <r_mmod_RMS_Derivative-OPLS-2005>
5.85145902633667

$$$$
85
                    3D
 Structure written by MMmdl.
166175  0  0  1  0            999 V2000
  -30.6620  -14.6011   20.6018 C   0  0  0  0  0  0
  -30.4327  -12.3896   19.4698 C   0  0  0  0  0  0
  -29.5145  -12.5194   18.2347 C   0  0  0  0  0  0
  -28.0345  -12.3557   18.6314 C   0  0  0  0  0  0
  -27.6527  -13.2179   19.8626 C   0  0  2  0  0  0
  -28.6825  -13.0547   20.9978 C   0  0  0  0  0  0
  -25.2537  -13.8181   20.5640 C   0  0  0  0  0  0
  -24.1819  -13.0449   20.9163 C   0  0  0  0  0  0
  -24.6386  -11.6915   20.8721 C   0  0  0  0  0  0
  -23.9068  -10.4294   21.0410 C   0  0  0  0  0  0
  -24.3622   -9.4210   21.9192 C   0  0  0  0  0  0
  -23.6298   -8.2243   22.0760 C   0  0  0  0  0  0
  -22.4279   -8.0284   21.3554 C   0  0  0  0  0  0
  -21.9922   -9.0257   20.4657 C   0  0  0  0  0  0
  -22.7239  -10.2137   20.3063 C   0  0  0  0  0  0
  -21.6853   -6.0748   22.5279 C   0  0  0  0  0  0
  -21.4007   -6.5650   23.8213 C   0  0  0  0  0  0
  -21.3658   -5.6804   24.9183 C   0  0  0  0  0  0
  -21.6043   -4.3064   24.7234 C   0  0  0  0  0  0
  -21.8819   -3.8159   23.4352 C   0  0  0  0  0  0
  -21.9190   -4.6976   22.3407 C   0  0  0  0  0  0
  -22.7847  -13.5237   21.1861 C   0  0  0  0  0  0
  -22.1663   -4.2165   21.0988 F   0  0  0  0  0  0
  -21.5623   -3.4544   25.7742 F   0  0  0  0  0  0
  -30.0120  -13.3981   20.4643 N   0  0  0  0  0  0
  -26.2963  -12.9364   20.3259 N   0  0  0  0  0  0
  -25.9301  -11.6515   20.5701 N   0  0  0  0  0  0
  -22.0505  -12.8216   22.0417 N   0  0  0  0  0  0
  -25.4255  -15.1904   20.4051 N   0  0  0  0  0  0
  -31.7442  -14.8096   20.0416 O   0  0  0  0  0  0
  -21.6644   -6.8885   21.4240 O   0  0  0  0  0  0
  -22.3526  -14.5554   20.6724 O   0  0  0  0  0  0
  -24.6230  -31.8601   23.2000 C   0  0  0  0  0  0
  -25.9083  -32.4782   23.8333 C   0  0  1  0  0  0
  -27.2325  -27.3369   20.1293 C   0  0  0  0  0  0
  -25.5899  -33.8581   24.2266 N   0  0  0  0  0  0
  -23.4162  -30.4796   21.5426 C   0  0  2  0  0  0
  -24.8646  -28.9245   20.1194 C   0  0  0  0  0  0
  -22.7443  -29.4626   22.4948 C   0  0  0  0  0  0
  -18.0284  -28.1365   22.8490 C   0  0  0  0  0  0
  -24.1490  -36.7309   23.2639 C   0  0  0  0  0  0
  -25.9521  -30.7986   21.3638 C   0  0  0  0  0  0
  -26.0300  -29.4225   20.7152 C   0  0  0  0  0  0
  -27.2194  -28.6405   20.7053 C   0  0  0  0  0  0
  -26.0459  -26.8722   19.5259 C   0  0  0  0  0  0
  -24.8719  -27.6539   19.5174 C   0  0  0  0  0  0
  -23.6307  -29.8028   20.1619 C   0  0  0  0  0  0
  -25.4112  -36.3099   24.0330 C   0  0  1  0  0  0
  -20.5878  -28.3680   23.1303 C   0  0  2  0  0  0
  -20.6779  -26.9395   22.5445 C   0  0  0  0  0  0
  -19.5764  -26.6340   21.5239 C   0  0  0  0  0  0
  -18.1938  -26.7897   22.1641 C   0  0  0  0  0  0
  -19.1528  -28.8843   23.2886 C   0  0  0  0  0  0
  -18.9453  -30.1444   23.8898 C   0  0  0  0  0  0
  -17.6453  -30.6585   24.0547 C   0  0  0  0  0  0
  -25.9040  -34.9461   23.5101 C   0  0  0  0  0  0
  -16.5350  -29.9077   23.6319 C   0  0  0  0  0  0
  -16.7266  -28.6482   23.0358 C   0  0  0  0  0  0
  -26.4475  -31.6594   25.0701 C   0  0  0  0  0  0
  -25.3715  -31.3738   26.1434 C   0  0  0  0  0  0
  -27.0302  -30.3020   24.6129 C   0  0  0  0  0  0
  -27.6038  -32.4315   25.7477 C   0  0  0  0  0  0
  -27.5581  -37.1813   24.8463 C   0  0  0  0  0  0
  -21.4162  -29.3047   22.3698 N   0  0  0  0  0  0
  -26.4298  -37.3781   23.9402 N   0  0  0  0  0  0
  -24.6826  -31.0617   22.0945 N   0  0  0  0  0  0
  -23.4180  -28.8168   23.3028 O   0  0  0  0  0  0
  -28.3827  -26.5478   20.1090 O   0  0  0  0  0  0
  -26.5622  -34.8923   22.4675 O   0  0  0  0  0  0
  -23.5400  -32.1378   23.7353 O   0  0  0  0  0  0
  -29.1846  -16.6825   23.2928 C   0  0  0  0  0  0
  -28.3269  -17.0146   22.0780 C   0  0  0  0  0  0
  -29.9513  -20.3696   19.1816 C   0  0  0  0  0  0
  -29.1638  -20.5297   21.4927 C   0  0  0  0  0  0
  -30.1127  -15.5673   22.8013 C   0  0  0  0  0  0
  -29.2216  -21.7182   18.8601 C   0  0  0  0  0  0
  -28.4128  -21.8721   21.1410 C   0  0  0  0  0  0
  -29.3006  -19.5193   20.3061 C   0  0  2  0  0  0
  -29.2803  -16.8144   20.8952 C   0  0  1  0  0  0
  -30.0939  -18.1532   20.6067 C   0  0  0  0  0  0
  -28.3934  -23.9651   19.6191 C   0  0  0  0  0  0
  -28.3439  -25.1723   20.6449 C   0  0  0  0  0  0
  -30.0453  -15.5883   21.3341 N   0  0  0  0  0  0
  -29.0531  -22.6430   20.0286 N   0  3  2  0  0  0
  -31.4789  -12.5051   19.1814 H   0  0  0  0  0  0
  -30.3583  -11.3902   19.9012 H   0  0  0  0  0  0
  -29.7826  -11.7721   17.4881 H   0  0  0  0  0  0
  -29.6661  -13.4928   17.7654 H   0  0  0  0  0  0
  -27.8640  -11.3017   18.8518 H   0  0  0  0  0  0
  -27.3884  -12.5952   17.7858 H   0  0  0  0  0  0
  -27.6811  -14.2577   19.5365 H   0  0  0  0  0  0
  -28.6836  -12.0290   21.3699 H   0  0  0  0  0  0
  -28.3820  -13.6729   21.8411 H   0  0  0  0  0  0
  -25.2773   -9.5693   22.4757 H   0  0  0  0  0  0
  -24.0020   -7.4640   22.7476 H   0  0  0  0  0  0
  -21.0858   -8.8763   19.8966 H   0  0  0  0  0  0
  -22.3695  -10.9674   19.6171 H   0  0  0  0  0  0
  -21.1987   -7.6157   23.9715 H   0  0  0  0  0  0
  -21.1484   -6.0544   25.9085 H   0  0  0  0  0  0
  -22.0600   -2.7626   23.2846 H   0  0  0  0  0  0
  -22.4119  -11.9873   22.4797 H   0  0  0  0  0  0
  -21.1142  -13.1239   22.2676 H   0  0  0  0  0  0
  -24.6630  -15.8511   20.5117 H   0  0  0  0  0  0
  -26.2893  -15.6258   20.1099 H   0  0  0  0  0  0
  -26.7151  -32.5469   23.1088 H   0  0  0  0  0  0
  -25.0035  -33.9718   25.0405 H   0  0  0  0  0  0
  -22.7097  -31.2993   21.3947 H   0  0  0  0  0  0
  -23.3745  -35.9649   23.3310 H   0  0  0  0  0  0
  -24.3585  -36.8919   22.2054 H   0  0  0  0  0  0
  -23.7249  -37.6515   23.6651 H   0  0  0  0  0  0
  -26.0719  -31.5565   20.5878 H   0  0  0  0  0  0
  -26.8377  -30.8578   21.9860 H   0  0  0  0  0  0
  -28.1215  -29.0244   21.1623 H   0  0  0  0  0  0
  -26.0241  -25.8988   19.0571 H   0  0  0  0  0  0
  -23.9757  -27.2651   19.0541 H   0  0  0  0  0  0
  -23.7477  -30.5725   19.3983 H   0  0  0  0  0  0
  -22.7517  -29.2268   19.8660 H   0  0  0  0  0  0
  -25.1297  -36.1955   25.0823 H   0  0  0  0  0  0
  -20.9963  -28.3267   24.1421 H   0  0  0  0  0  0
  -20.5661  -26.2297   23.3652 H   0  0  0  0  0  0
  -21.6655  -26.7418   22.1266 H   0  0  0  0  0  0
  -19.6934  -25.6239   21.1307 H   0  0  0  0  0  0
  -19.6716  -27.3126   20.6744 H   0  0  0  0  0  0
  -17.4207  -26.6610   21.4054 H   0  0  0  0  0  0
  -18.0356  -26.0056   22.9057 H   0  0  0  0  0  0
  -19.7925  -30.7258   24.2273 H   0  0  0  0  0  0
  -17.5007  -31.6272   24.5130 H   0  0  0  0  0  0
  -15.5348  -30.2984   23.7637 H   0  0  0  0  0  0
  -15.8667  -28.0790   22.7093 H   0  0  0  0  0  0
  -24.5883  -30.7086   25.7774 H   0  0  0  0  0  0
  -24.8913  -32.2913   26.4848 H   0  0  0  0  0  0
  -25.8046  -30.8930   27.0217 H   0  0  0  0  0  0
  -26.2858  -29.6783   24.1157 H   0  0  0  0  0  0
  -27.4016  -29.7257   25.4619 H   0  0  0  0  0  0
  -27.8723  -30.4310   23.9321 H   0  0  0  0  0  0
  -27.2644  -33.3603   26.2071 H   0  0  0  0  0  0
  -28.3846  -32.6891   25.0310 H   0  0  0  0  0  0
  -28.0702  -31.8428   26.5384 H   0  0  0  0  0  0
  -28.2613  -38.0098   24.7495 H   0  0  0  0  0  0
  -28.1068  -36.2631   24.6311 H   0  0  0  0  0  0
  -27.2301  -37.1485   25.8868 H   0  0  0  0  0  0
  -20.9323  -29.8759   21.6909 H   0  0  0  0  0  0
  -26.0192  -38.2864   24.1378 H   0  0  0  0  0  0
  -28.5872  -16.3882   24.1575 H   0  0  0  0  0  0
  -29.7745  -17.5547   23.5805 H   0  0  0  0  0  0
  -27.8706  -18.0019   22.1328 H   0  0  0  0  0  0
  -27.5090  -16.2965   22.0142 H   0  0  0  0  0  0
  -30.9911  -20.5776   19.4386 H   0  0  0  0  0  0
  -29.9911  -19.7757   18.2676 H   0  0  0  0  0  0
  -28.6576  -20.0575   22.3334 H   0  0  0  0  0  0
  -30.1579  -20.7767   21.8671 H   0  0  0  0  0  0
  -31.1361  -15.7232   23.1442 H   0  0  0  0  0  0
  -29.7928  -14.6052   23.2024 H   0  0  0  0  0  0
  -28.2378  -21.5001   18.4407 H   0  0  0  0  0  0
  -29.7761  -22.2332   18.0750 H   0  0  0  0  0  0
  -28.3631  -22.5031   22.0291 H   0  0  0  0  0  0
  -27.3813  -21.6438   20.8696 H   0  0  0  0  0  0
  -28.2981  -19.2506   19.9708 H   0  0  0  0  0  0
  -28.7033  -16.5629   20.0046 H   0  0  0  0  0  0
  -30.8044  -18.3303   21.4154 H   0  0  0  0  0  0
  -30.7222  -17.9355   19.7415 H   0  0  0  0  0  0
  -28.9475  -24.3300   18.7536 H   0  0  0  0  0  0
  -27.3839  -23.7676   19.2585 H   0  0  0  0  0  0
  -29.2194  -25.0950   21.2887 H   0  0  0  0  0  0
  -27.4879  -25.0544   21.3124 H   0  0  0  0  0  0
  -29.9872  -22.8749   20.3399 H   0  0  0  0  0  0
  1 25  1  0  0  0
  1 30  2  0  0  0
  1 83  1  0  0  0
  2  3  1  0  0  0
  2 25  1  0  0  0
  2 85  1  0  0  0
  2 86  1  0  0  0
  3  4  1  0  0  0
  3 87  1  0  0  0
  3 88  1  0  0  0
  4  5  1  0  0  0
  4 89  1  0  0  0
  4 90  1  0  0  0
  5  6  1  0  0  0
  5 26  1  0  0  0
  5 91  1  0  0  0
  6 25  1  0  0  0
  6 92  1  0  0  0
  6 93  1  0  0  0
  7  8  2  0  0  0
  7 26  1  0  0  0
  7 29  1  0  0  0
  8  9  1  0  0  0
  8 22  1  0  0  0
  9 10  1  0  0  0
  9 27  2  0  0  0
 10 11  2  0  0  0
 10 15  1  0  0  0
 11 12  1  0  0  0
 11 94  1  0  0  0
 12 13  2  0  0  0
 12 95  1  0  0  0
 13 14  1  0  0  0
 13 31  1  0  0  0
 14 15  2  0  0  0
 14 96  1  0  0  0
 15 97  1  0  0  0
 16 17  2  0  0  0
 16 21  1  0  0  0
 16 31  1  0  0  0
 17 18  1  0  0  0
 17 98  1  0  0  0
 18 19  2  0  0  0
 18 99  1  0  0  0
 19 20  1  0  0  0
 19 24  1  0  0  0
 20 21  2  0  0  0
 20100  1  0  0  0
 21 23  1  0  0  0
 22 28  1  0  0  0
 22 32  2  0  0  0
 26 27  1  0  0  0
 28101  1  0  0  0
 28102  1  0  0  0
 29103  1  0  0  0
 29104  1  0  0  0
 33 34  1  0  0  0
 33 66  1  0  0  0
 33 70  2  0  0  0
 34 36  1  0  0  0
 34 59  1  0  0  0
 34105  1  0  0  0
 35 44  2  0  0  0
 35 45  1  0  0  0
 35 68  1  0  0  0
 36 56  1  0  0  0
 36106  1  0  0  0
 37 39  1  0  0  0
 37 47  1  0  0  0
 37 66  1  0  0  0
 37107  1  0  0  0
 38 43  2  0  0  0
 38 46  1  0  0  0
 38 47  1  0  0  0
 39 64  1  0  0  0
 39 67  2  0  0  0
 40 52  1  0  0  0
 40 53  2  0  0  0
 40 58  1  0  0  0
 41108  1  0  0  0
 41109  1  0  0  0
 41110  1  0  0  0
 41 48  1  0  0  0
 42 43  1  0  0  0
 42 66  1  0  0  0
 42111  1  0  0  0
 42112  1  0  0  0
 43 44  1  0  0  0
 44113  1  0  0  0
 45 46  2  0  0  0
 45114  1  0  0  0
 46115  1  0  0  0
 47116  1  0  0  0
 47117  1  0  0  0
 48 56  1  0  0  0
 48 65  1  0  0  0
 48118  1  0  0  0
 49 50  1  0  0  0
 49 53  1  0  0  0
 49 64  1  0  0  0
 49119  1  0  0  0
 50 51  1  0  0  0
 50120  1  0  0  0
 50121  1  0  0  0
 51 52  1  0  0  0
 51122  1  0  0  0
 51123  1  0  0  0
 52124  1  0  0  0
 52125  1  0  0  0
 53 54  1  0  0  0
 54 55  2  0  0  0
 54126  1  0  0  0
 55 57  1  0  0  0
 55127  1  0  0  0
 56 69  2  0  0  0
 57 58  2  0  0  0
 57128  1  0  0  0
 58129  1  0  0  0
 59 60  1  0  0  0
 59 61  1  0  0  0
 59 62  1  0  0  0
 60130  1  0  0  0
 60131  1  0  0  0
 60132  1  0  0  0
 61133  1  0  0  0
 61134  1  0  0  0
 61135  1  0  0  0
 62136  1  0  0  0
 62137  1  0  0  0
 62138  1  0  0  0
 63 65  1  0  0  0
 63139  1  0  0  0
 63140  1  0  0  0
 63141  1  0  0  0
 64142  1  0  0  0
 65143  1  0  0  0
 68 82  1  0  0  0
 71 72  1  0  0  0
 71 75  1  0  0  0
 71144  1  0  0  0
 71145  1  0  0  0
 72 79  1  0  0  0
 72146  1  0  0  0
 72147  1  0  0  0
 73 76  1  0  0  0
 73 78  1  0  0  0
 73148  1  0  0  0
 73149  1  0  0  0
 74 77  1  0  0  0
 74 78  1  0  0  0
 74150  1  0  0  0
 74151  1  0  0  0
 75 83  1  0  0  0
 75152  1  0  0  0
 75153  1  0  0  0
 76 84  1  0  0  0
 76154  1  0  0  0
 76155  1  0  0  0
 77 84  1  0  0  0
 77156  1  0  0  0
 77157  1  0  0  0
 78 80  1  0  0  0
 78158  1  0  0  0
 79 80  1  0  0  0
 79 83  1  0  0  0
 79159  1  0  0  0
 80160  1  0  0  0
 80161  1  0  0  0
 81 82  1  0  0  0
 81162  1  0  0  0
 81163  1  0  0  0
 81 84  1  0  0  0
 82164  1  0  0  0
 82165  1  0  0  0
 84166  1  0  0  0
M  CHG  1  84   1
M  ISO  4   1 100  68 101  82 101  83 100
M  END
> <chiral flag>
0

> <version>
0

> <s_m_source_file>
/data/baiqing/PycharmProjects/Reinvent-master-3.2/result/LINK_invent/BTK/process_docking_weight1_custom_sum_contain_oxygen_bond_distance_aromatic_linkinvent_7_9_3/rearranged_h_0126.sdf

> <i_m_source_file_index>
86

> <r_mmod_Potential_Energy-OPLS-2005>
288.903076171875

> <r_mmod_Stretch_Energy-OPLS-2005>
80.886962890625

> <r_mmod_Bend_Energy-OPLS-2005>
171.40705871582

> <r_mmod_Torsional_Energy-OPLS-2005>
419.748779296875

> <r_mmod_Improper_Torsional_Energy-OPLS-2005>
1.98670291900635

> <r_mmod_Van_der_Waal_Energy-OPLS-2005>
111.237274169922

> <r_mmod_Electrostatic_Energy-OPLS-2005>
-122.960502624512

> <r_mmod_Solvation_Energy-OPLS-2005>
-409.050689697266

> <b_mmod_Minimization_Converged-OPLS-2005>
0

> <r_mmod_RMS_Derivative-OPLS-2005>
2.0142765045166

$$$$
86
                    3D
 Structure written by MMmdl.
152160  0  0  1  0            999 V2000
  -30.6331  -14.6493   20.4935 C   0  0  0  0  0  0
  -30.4232  -12.3942   19.4619 C   0  0  0  0  0  0
  -29.4994  -12.4987   18.2287 C   0  0  0  0  0  0
  -28.0226  -12.3406   18.6412 C   0  0  0  0  0  0
  -27.6451  -13.2229   19.8614 C   0  0  2  0  0  0
  -28.6876  -13.1040   20.9936 C   0  0  0  0  0  0
  -25.2518  -13.8173   20.5698 C   0  0  0  0  0  0
  -24.1800  -13.0427   20.9184 C   0  0  0  0  0  0
  -24.6381  -11.6903   20.8755 C   0  0  0  0  0  0
  -23.9062  -10.4283   21.0425 C   0  0  0  0  0  0
  -24.3616   -9.4199   21.9199 C   0  0  0  0  0  0
  -23.6292   -8.2235   22.0756 C   0  0  0  0  0  0
  -22.4285   -8.0267   21.3544 C   0  0  0  0  0  0
  -21.9915   -9.0246   20.4648 C   0  0  0  0  0  0
  -22.7240  -10.2121   20.3065 C   0  0  0  0  0  0
  -21.6847   -6.0737   22.5275 C   0  0  0  0  0  0
  -21.4019   -6.5640   23.8213 C   0  0  0  0  0  0
  -21.3658   -5.6791   24.9174 C   0  0  0  0  0  0
  -21.6049   -4.3059   24.7222 C   0  0  0  0  0  0
  -21.8814   -3.8155   23.4339 C   0  0  0  0  0  0
  -21.9190   -4.6966   22.3396 C   0  0  0  0  0  0
  -22.7834  -13.5207   21.1871 C   0  0  0  0  0  0
  -22.1662   -4.2151   21.0969 F   0  0  0  0  0  0
  -21.5622   -3.4547   25.7736 F   0  0  0  0  0  0
  -29.9973  -13.4376   20.4183 N   0  0  0  0  0  0
  -26.2943  -12.9370   20.3333 N   0  0  0  0  0  0
  -25.9313  -11.6518   20.5777 N   0  0  0  0  0  0
  -22.0511  -12.8166   22.0436 N   0  0  0  0  0  0
  -25.4219  -15.1899   20.4113 N   0  0  0  0  0  0
  -31.8099  -14.7710   20.1452 O   0  0  0  0  0  0
  -21.6634   -6.8878   21.4239 O   0  0  0  0  0  0
  -22.3504  -14.5524   20.6750 O   0  0  0  0  0  0
  -24.6287  -31.8557   23.2000 C   0  0  0  0  0  0
  -25.9124  -32.4752   23.8337 C   0  0  1  0  0  0
  -27.2181  -27.3018   20.0952 C   0  0  0  0  0  0
  -25.5925  -33.8550   24.2241 N   0  0  0  0  0  0
  -23.4246  -30.4801   21.5424 C   0  0  2  0  0  0
  -24.8687  -28.9386   20.1041 C   0  0  0  0  0  0
  -22.7494  -29.4570   22.4892 C   0  0  0  0  0  0
  -18.0275  -28.1381   22.8489 C   0  0  0  0  0  0
  -24.1471  -36.7301   23.2633 C   0  0  0  0  0  0
  -25.9677  -30.7775   21.3771 C   0  0  0  0  0  0
  -26.0380  -29.4052   20.7152 C   0  0  0  0  0  0
  -27.2133  -28.5956   20.7048 C   0  0  0  0  0  0
  -26.0128  -26.8798   19.4875 C   0  0  0  0  0  0
  -24.8595  -27.6840   19.4796 C   0  0  0  0  0  0
  -23.6407  -29.8237   20.1544 C   0  0  0  0  0  0
  -25.4092  -36.3052   24.0309 C   0  0  1  0  0  0
  -20.5876  -28.3668   23.1286 C   0  0  2  0  0  0
  -20.6750  -26.9378   22.5401 C   0  0  0  0  0  0
  -19.5717  -26.6363   21.5224 C   0  0  0  0  0  0
  -18.1900  -26.7926   22.1628 C   0  0  0  0  0  0
  -19.1535  -28.8851   23.2881 C   0  0  0  0  0  0
  -18.9475  -30.1461   23.8887 C   0  0  0  0  0  0
  -17.6474  -30.6584   24.0568 C   0  0  0  0  0  0
  -25.9041  -34.9431   23.5079 C   0  0  0  0  0  0
  -16.5364  -29.9084   23.6349 C   0  0  0  0  0  0
  -16.7270  -28.6502   23.0359 C   0  0  0  0  0  0
  -26.4510  -31.6598   25.0746 C   0  0  0  0  0  0
  -25.3734  -31.3758   26.1491 C   0  0  0  0  0  0
  -27.0382  -30.3011   24.6240 C   0  0  0  0  0  0
  -27.6049  -32.4382   25.7524 C   0  0  0  0  0  0
  -27.5579  -37.1754   24.8419 C   0  0  0  0  0  0
  -21.4196  -29.3040   22.3709 N   0  0  0  0  0  0
  -26.4230  -37.3787   23.9449 N   0  0  0  0  0  0
  -24.6932  -31.0541   22.0970 N   0  0  0  0  0  0
  -23.4218  -28.8063   23.2932 O   0  0  0  0  0  0
  -28.3415  -26.4575   20.1529 O   0  0  0  0  0  0
  -26.5599  -34.8912   22.4636 O   0  0  0  0  0  0
  -23.5444  -32.1377   23.7283 O   0  0  0  0  0  0
  -28.3483  -22.6859   19.0070 C   0  0  0  0  0  0
  -29.2556  -23.4929   21.0761 C   0  0  0  0  0  0
  -28.6625  -21.3374   19.3656 C   0  0  0  0  0  0
  -29.5728  -22.1445   21.4363 C   0  0  0  0  0  0
  -28.6504  -23.8081   19.8341 C   0  0  0  0  0  0
  -29.3082  -21.0281   20.5887 C   0  0  0  0  0  0
  -28.4764  -25.2740   19.2741 C   0  0  0  0  0  0
  -29.4345  -18.3817   20.3712 C   0  0  0  0  0  0
  -30.3298  -17.1854   20.9436 C   0  0  0  0  0  0
  -29.7344  -19.7141   20.9885 N   0  0  0  0  0  0
  -29.8739  -15.7547   20.7910 N   0  0  0  0  0  0
  -31.4683  -12.5030   19.1670 H   0  0  0  0  0  0
  -30.3404  -11.4079   19.9208 H   0  0  0  0  0  0
  -29.7634  -11.7369   17.4940 H   0  0  0  0  0  0
  -29.6441  -13.4632   17.7383 H   0  0  0  0  0  0
  -27.8604  -11.2895   18.8840 H   0  0  0  0  0  0
  -27.3667  -12.5642   17.7989 H   0  0  0  0  0  0
  -27.6555  -14.2539   19.5084 H   0  0  0  0  0  0
  -28.6995  -12.0908   21.3999 H   0  0  0  0  0  0
  -28.4362  -13.7600   21.8292 H   0  0  0  0  0  0
  -25.2766   -9.5660   22.4782 H   0  0  0  0  0  0
  -23.9997   -7.4617   22.7487 H   0  0  0  0  0  0
  -21.0847   -8.8780   19.8958 H   0  0  0  0  0  0
  -22.3727  -10.9667   19.6177 H   0  0  0  0  0  0
  -21.2028   -7.6154   23.9709 H   0  0  0  0  0  0
  -21.1483   -6.0534   25.9069 H   0  0  0  0  0  0
  -22.0597   -2.7619   23.2843 H   0  0  0  0  0  0
  -22.4143  -11.9773   22.4711 H   0  0  0  0  0  0
  -21.1168  -13.1203   22.2765 H   0  0  0  0  0  0
  -24.6548  -15.8443   20.5186 H   0  0  0  0  0  0
  -26.2685  -15.6273   20.0704 H   0  0  0  0  0  0
  -26.7191  -32.5393   23.1074 H   0  0  0  0  0  0
  -25.0135  -33.9704   25.0426 H   0  0  0  0  0  0
  -22.7207  -31.3028   21.4011 H   0  0  0  0  0  0
  -23.3743  -35.9617   23.3191 H   0  0  0  0  0  0
  -24.3582  -36.9053   22.2074 H   0  0  0  0  0  0
  -23.7214  -37.6454   23.6754 H   0  0  0  0  0  0
  -26.1015  -31.5383   20.6081 H   0  0  0  0  0  0
  -26.8466  -30.8239   22.0099 H   0  0  0  0  0  0
  -28.1152  -28.9444   21.1889 H   0  0  0  0  0  0
  -25.9065  -25.9038   19.0416 H   0  0  0  0  0  0
  -23.9604  -27.3239   19.0010 H   0  0  0  0  0  0
  -23.7669  -30.6090   19.4075 H   0  0  0  0  0  0
  -22.7579  -29.2623   19.8426 H   0  0  0  0  0  0
  -25.1243  -36.1863   25.0788 H   0  0  0  0  0  0
  -20.9978  -28.3217   24.1399 H   0  0  0  0  0  0
  -20.5667  -26.2243   23.3588 H   0  0  0  0  0  0
  -21.6612  -26.7379   22.1193 H   0  0  0  0  0  0
  -19.6859  -25.6267   21.1257 H   0  0  0  0  0  0
  -19.6673  -27.3173   20.6749 H   0  0  0  0  0  0
  -17.4160  -26.6703   21.4034 H   0  0  0  0  0  0
  -18.0287  -26.0052   22.9016 H   0  0  0  0  0  0
  -19.7948  -30.7301   24.2215 H   0  0  0  0  0  0
  -17.5017  -31.6271   24.5165 H   0  0  0  0  0  0
  -15.5365  -30.2988   23.7664 H   0  0  0  0  0  0
  -15.8661  -28.0838   22.7055 H   0  0  0  0  0  0
  -24.5923  -30.7059   25.7856 H   0  0  0  0  0  0
  -24.8912  -32.2948   26.4871 H   0  0  0  0  0  0
  -25.8089  -30.9014   27.0304 H   0  0  0  0  0  0
  -26.2989  -29.6742   24.1263 H   0  0  0  0  0  0
  -27.4067  -29.7297   25.4760 H   0  0  0  0  0  0
  -27.8833  -30.4274   23.9477 H   0  0  0  0  0  0
  -27.2655  -33.3753   26.1963 H   0  0  0  0  0  0
  -28.3953  -32.6848   25.0415 H   0  0  0  0  0  0
  -28.0611  -31.8605   26.5575 H   0  0  0  0  0  0
  -28.2424  -38.0206   24.7688 H   0  0  0  0  0  0
  -28.1254  -36.2762   24.5966 H   0  0  0  0  0  0
  -27.2348  -37.1064   25.8816 H   0  0  0  0  0  0
  -20.9342  -29.8884   21.7045 H   0  0  0  0  0  0
  -26.0084  -38.2808   24.1636 H   0  0  0  0  0  0
  -27.8990  -22.8593   18.0390 H   0  0  0  0  0  0
  -29.5187  -24.2947   21.7510 H   0  0  0  0  0  0
  -28.4389  -20.5466   18.6618 H   0  0  0  0  0  0
  -30.0599  -21.9842   22.3874 H   0  0  0  0  0  0
  -27.7532  -25.2574   18.4602 H   0  0  0  0  0  0
  -29.4074  -25.4607   18.7390 H   0  0  0  0  0  0
  -28.3804  -18.1576   20.5439 H   0  0  0  0  0  0
  -29.5594  -18.4421   19.2891 H   0  0  0  0  0  0
  -30.4240  -17.3306   22.0217 H   0  0  0  0  0  0
  -31.3419  -17.2909   20.5491 H   0  0  0  0  0  0
  -30.3079  -19.6726   21.8283 H   0  0  0  0  0  0
  -28.9110  -15.5685   21.0252 H   0  0  0  0  0  0
  1 25  1  0  0  0
  1 30  2  0  0  0
  1 81  1  0  0  0
  2  3  1  0  0  0
  2 25  1  0  0  0
  2 82  1  0  0  0
  2 83  1  0  0  0
  3  4  1  0  0  0
  3 84  1  0  0  0
  3 85  1  0  0  0
  4  5  1  0  0  0
  4 86  1  0  0  0
  4 87  1  0  0  0
  5  6  1  0  0  0
  5 26  1  0  0  0
  5 88  1  0  0  0
  6 25  1  0  0  0
  6 89  1  0  0  0
  6 90  1  0  0  0
  7  8  2  0  0  0
  7 26  1  0  0  0
  7 29  1  0  0  0
  8  9  1  0  0  0
  8 22  1  0  0  0
  9 10  1  0  0  0
  9 27  2  0  0  0
 10 11  2  0  0  0
 10 15  1  0  0  0
 11 12  1  0  0  0
 11 91  1  0  0  0
 12 13  2  0  0  0
 12 92  1  0  0  0
 13 14  1  0  0  0
 13 31  1  0  0  0
 14 15  2  0  0  0
 14 93  1  0  0  0
 15 94  1  0  0  0
 16 17  2  0  0  0
 16 21  1  0  0  0
 16 31  1  0  0  0
 17 18  1  0  0  0
 17 95  1  0  0  0
 18 19  2  0  0  0
 18 96  1  0  0  0
 19 20  1  0  0  0
 19 24  1  0  0  0
 20 21  2  0  0  0
 20 97  1  0  0  0
 21 23  1  0  0  0
 22 28  1  0  0  0
 22 32  2  0  0  0
 26 27  1  0  0  0
 28 98  1  0  0  0
 28 99  1  0  0  0
 29100  1  0  0  0
 29101  1  0  0  0
 33 34  1  0  0  0
 33 66  1  0  0  0
 33 70  2  0  0  0
 34 36  1  0  0  0
 34 59  1  0  0  0
 34102  1  0  0  0
 35 44  2  0  0  0
 35 45  1  0  0  0
 35 68  1  0  0  0
 36 56  1  0  0  0
 36103  1  0  0  0
 37 39  1  0  0  0
 37 47  1  0  0  0
 37 66  1  0  0  0
 37104  1  0  0  0
 38 43  2  0  0  0
 38 46  1  0  0  0
 38 47  1  0  0  0
 39 64  1  0  0  0
 39 67  2  0  0  0
 40 52  1  0  0  0
 40 53  2  0  0  0
 40 58  1  0  0  0
 41105  1  0  0  0
 41106  1  0  0  0
 41107  1  0  0  0
 41 48  1  0  0  0
 42 43  1  0  0  0
 42 66  1  0  0  0
 42108  1  0  0  0
 42109  1  0  0  0
 43 44  1  0  0  0
 44110  1  0  0  0
 45 46  2  0  0  0
 45111  1  0  0  0
 46112  1  0  0  0
 47113  1  0  0  0
 47114  1  0  0  0
 48 56  1  0  0  0
 48 65  1  0  0  0
 48115  1  0  0  0
 49 50  1  0  0  0
 49 53  1  0  0  0
 49 64  1  0  0  0
 49116  1  0  0  0
 50 51  1  0  0  0
 50117  1  0  0  0
 50118  1  0  0  0
 51 52  1  0  0  0
 51119  1  0  0  0
 51120  1  0  0  0
 52121  1  0  0  0
 52122  1  0  0  0
 53 54  1  0  0  0
 54 55  2  0  0  0
 54123  1  0  0  0
 55 57  1  0  0  0
 55124  1  0  0  0
 56 69  2  0  0  0
 57 58  2  0  0  0
 57125  1  0  0  0
 58126  1  0  0  0
 59 60  1  0  0  0
 59 61  1  0  0  0
 59 62  1  0  0  0
 60127  1  0  0  0
 60128  1  0  0  0
 60129  1  0  0  0
 61130  1  0  0  0
 61131  1  0  0  0
 61132  1  0  0  0
 62133  1  0  0  0
 62134  1  0  0  0
 62135  1  0  0  0
 63 65  1  0  0  0
 63136  1  0  0  0
 63137  1  0  0  0
 63138  1  0  0  0
 64139  1  0  0  0
 65140  1  0  0  0
 68 77  1  0  0  0
 71 73  2  0  0  0
 71 75  1  0  0  0
 71141  1  0  0  0
 72 74  1  0  0  0
 72 75  2  0  0  0
 72142  1  0  0  0
 73 76  1  0  0  0
 73143  1  0  0  0
 74 76  2  0  0  0
 74144  1  0  0  0
 75 77  1  0  0  0
 76 80  1  0  0  0
 77145  1  0  0  0
 77146  1  0  0  0
 78 79  1  0  0  0
 78 80  1  0  0  0
 78147  1  0  0  0
 78148  1  0  0  0
 79 81  1  0  0  0
 79149  1  0  0  0
 79150  1  0  0  0
 80151  1  0  0  0
 81152  1  0  0  0
M  ISO  4   1 100  68 101  77 101  81 100
M  END
> <chiral flag>
0

> <version>
0

> <s_m_source_file>
/data/baiqing/PycharmProjects/Reinvent-master-3.2/result/LINK_invent/BTK/process_docking_weight1_custom_sum_contain_oxygen_bond_distance_aromatic_linkinvent_7_9_3/rearranged_h_0126.sdf

> <i_m_source_file_index>
87

> <r_mmod_Potential_Energy-OPLS-2005>
6.39830541610718

> <r_mmod_Stretch_Energy-OPLS-2005>
80.6211547851562

> <r_mmod_Bend_Energy-OPLS-2005>
163.270812988281

> <r_mmod_Torsional_Energy-OPLS-2005>
201.040878295898

> <r_mmod_Improper_Torsional_Energy-OPLS-2005>
4.8228611946106

> <r_mmod_Van_der_Waal_Energy-OPLS-2005>
142.937774658203

> <r_mmod_Electrostatic_Energy-OPLS-2005>
-416.407012939453

> <r_mmod_Solvation_Energy-OPLS-2005>
-224.863861083984

> <b_mmod_Minimization_Converged-OPLS-2005>
0

> <r_mmod_RMS_Derivative-OPLS-2005>
3.12634038925171

$$$$
87
                    3D
 Structure written by MMmdl.
173183  0  0  1  0            999 V2000
  -30.7217  -14.5489   20.5552 C   0  0  0  0  0  0
  -30.4043  -12.3574   19.4406 C   0  0  0  0  0  0
  -29.4879  -12.5095   18.2114 C   0  0  0  0  0  0
  -28.0117  -12.3515   18.6192 C   0  0  0  0  0  0
  -27.6430  -13.2124   19.8555 C   0  0  2  0  0  0
  -28.6870  -13.0777   20.9878 C   0  0  0  0  0  0
  -25.2513  -13.8174   20.5690 C   0  0  0  0  0  0
  -24.1819  -13.0448   20.9280 C   0  0  0  0  0  0
  -24.6355  -11.6919   20.8779 C   0  0  0  0  0  0
  -23.9030  -10.4309   21.0416 C   0  0  0  0  0  0
  -24.3598   -9.4228   21.9192 C   0  0  0  0  0  0
  -23.6296   -8.2248   22.0753 C   0  0  0  0  0  0
  -22.4276   -8.0267   21.3529 C   0  0  0  0  0  0
  -21.9897   -9.0242   20.4640 C   0  0  0  0  0  0
  -22.7204  -10.2135   20.3058 C   0  0  0  0  0  0
  -21.6864   -6.0719   22.5265 C   0  0  0  0  0  0
  -21.4022   -6.5634   23.8201 C   0  0  0  0  0  0
  -21.3665   -5.6783   24.9159 C   0  0  0  0  0  0
  -21.6045   -4.3051   24.7214 C   0  0  0  0  0  0
  -21.8836   -3.8136   23.4335 C   0  0  0  0  0  0
  -21.9206   -4.6953   22.3386 C   0  0  0  0  0  0
  -22.7843  -13.5264   21.1871 C   0  0  0  0  0  0
  -22.1674   -4.2133   21.0966 F   0  0  0  0  0  0
  -21.5609   -3.4539   25.7729 F   0  0  0  0  0  0
  -30.0084  -13.3868   20.4242 N   0  0  0  0  0  0
  -26.2919  -12.9344   20.3274 N   0  0  0  0  0  0
  -25.9263  -11.6508   20.5730 N   0  0  0  0  0  0
  -22.0412  -12.8272   22.0377 N   0  0  0  0  0  0
  -25.4157  -15.1891   20.3811 N   0  0  0  0  0  0
  -31.8708  -14.6325   20.1114 O   0  0  0  0  0  0
  -21.6654   -6.8857   21.4224 O   0  0  0  0  0  0
  -22.3647  -14.5589   20.6674 O   0  0  0  0  0  0
  -24.6214  -31.8679   23.2102 C   0  0  0  0  0  0
  -25.9096  -32.4820   23.8407 C   0  0  1  0  0  0
  -27.2130  -27.3716   20.0928 C   0  0  0  0  0  0
  -25.5945  -33.8613   24.2340 N   0  0  0  0  0  0
  -23.4089  -30.4964   21.5533 C   0  0  2  0  0  0
  -24.8525  -28.9652   20.1111 C   0  0  0  0  0  0
  -22.7432  -29.4680   22.4979 C   0  0  0  0  0  0
  -18.0280  -28.1359   22.8502 C   0  0  0  0  0  0
  -24.1490  -36.7306   23.2637 C   0  0  0  0  0  0
  -25.9488  -30.8070   21.3830 C   0  0  0  0  0  0
  -26.0185  -29.4402   20.7243 C   0  0  0  0  0  0
  -27.1993  -28.6484   20.7208 C   0  0  0  0  0  0
  -26.0355  -26.9642   19.4204 C   0  0  0  0  0  0
  -24.8604  -27.7283   19.4546 C   0  0  0  0  0  0
  -23.6216  -29.8422   20.1642 C   0  0  0  0  0  0
  -25.4118  -36.3106   24.0336 C   0  0  1  0  0  0
  -20.5875  -28.3681   23.1299 C   0  0  2  0  0  0
  -20.6778  -26.9412   22.5424 C   0  0  0  0  0  0
  -19.5746  -26.6364   21.5230 C   0  0  0  0  0  0
  -18.1929  -26.7891   22.1657 C   0  0  0  0  0  0
  -19.1528  -28.8832   23.2888 C   0  0  0  0  0  0
  -18.9457  -30.1441   23.8899 C   0  0  0  0  0  0
  -17.6457  -30.6574   24.0556 C   0  0  0  0  0  0
  -25.9053  -34.9471   23.5128 C   0  0  0  0  0  0
  -16.5350  -29.9072   23.6323 C   0  0  0  0  0  0
  -16.7266  -28.6481   23.0354 C   0  0  0  0  0  0
  -26.4488  -31.6603   25.0756 C   0  0  0  0  0  0
  -25.3728  -31.3736   26.1493 C   0  0  0  0  0  0
  -27.0324  -30.3027   24.6179 C   0  0  0  0  0  0
  -27.6052  -32.4333   25.7528 C   0  0  0  0  0  0
  -27.5590  -37.1825   24.8466 C   0  0  0  0  0  0
  -21.4156  -29.3050   22.3704 N   0  0  0  0  0  0
  -26.4299  -37.3796   23.9409 N   0  0  0  0  0  0
  -24.6774  -31.0726   22.1051 N   0  0  0  0  0  0
  -23.4185  -28.8247   23.3056 O   0  0  0  0  0  0
  -28.3378  -26.5471   20.1536 O   0  0  0  0  0  0
  -26.5590  -34.8920   22.4682 O   0  0  0  0  0  0
  -23.5392  -32.1490   23.7436 O   0  0  0  0  0  0
  -27.5490  -24.4550   22.8936 C   0  0  0  0  0  0
  -28.9488  -24.6775   22.3332 C   0  0  0  0  0  0
  -30.2038  -17.9336   22.0160 C   0  0  0  0  0  0
  -26.3894  -20.5455   20.3982 C   0  0  0  0  0  0
  -31.0162  -16.6339   21.8622 C   0  0  0  0  0  0
  -28.9628  -16.3613   20.7325 C   0  0  0  0  0  0
  -27.1068  -23.1248   22.2651 C   0  0  0  0  0  0
  -25.8085  -19.2005   19.9761 C   0  0  0  0  0  0
  -29.2025  -17.9054   20.8659 C   0  0  1  0  0  0
  -27.9097  -20.3114   20.4869 C   0  0  2  0  0  0
  -27.9398  -18.8358   21.0694 C   0  0  1  0  0  0
  -28.8467  -24.0922   20.9216 C   0  0  2  0  0  0
  -28.6858  -21.4957   21.1977 C   0  0  0  0  0  0
  -28.1408  -25.1078   19.9436 C   0  0  0  0  0  0
  -30.1646  -15.6310   21.1938 N   0  0  0  0  0  0
  -26.7445  -18.1853   20.4810 N   0  3  0  0  0  0
  -28.0048  -22.8489   21.1015 N   0  3  1  0  0  0
  -31.4492  -12.4356   19.1381 H   0  0  0  0  0  0
  -30.3034  -11.3639   19.8780 H   0  0  0  0  0  0
  -29.7452  -11.7713   17.4505 H   0  0  0  0  0  0
  -29.6433  -13.4890   17.7560 H   0  0  0  0  0  0
  -27.8380  -11.2964   18.8329 H   0  0  0  0  0  0
  -27.3629  -12.6011   17.7782 H   0  0  0  0  0  0
  -27.6530  -14.2411   19.5075 H   0  0  0  0  0  0
  -28.6842  -12.0644   21.3906 H   0  0  0  0  0  0
  -28.4390  -13.7306   21.8252 H   0  0  0  0  0  0
  -25.2728   -9.5736   22.4778 H   0  0  0  0  0  0
  -24.0012   -7.4673   22.7492 H   0  0  0  0  0  0
  -21.0816   -8.8764   19.8958 H   0  0  0  0  0  0
  -22.3653  -10.9680   19.6183 H   0  0  0  0  0  0
  -21.2020   -7.6141   23.9699 H   0  0  0  0  0  0
  -21.1460   -6.0504   25.9061 H   0  0  0  0  0  0
  -22.0607   -2.7599   23.2841 H   0  0  0  0  0  0
  -22.3984  -11.9946   22.4822 H   0  0  0  0  0  0
  -21.1013  -13.1314   22.2497 H   0  0  0  0  0  0
  -24.5096  -15.6443   20.3357 H   0  0  0  0  0  0
  -25.9437  -15.3586   19.5360 H   0  0  0  0  0  0
  -26.7183  -32.5517   23.1181 H   0  0  0  0  0  0
  -25.0136  -33.9775   25.0510 H   0  0  0  0  0  0
  -22.6994  -31.3151   21.4171 H   0  0  0  0  0  0
  -23.3749  -35.9640   23.3303 H   0  0  0  0  0  0
  -24.3571  -36.8910   22.2048 H   0  0  0  0  0  0
  -23.7236  -37.6517   23.6636 H   0  0  0  0  0  0
  -26.0822  -31.5722   20.6165 H   0  0  0  0  0  0
  -26.8283  -30.8484   22.0138 H   0  0  0  0  0  0
  -28.0885  -28.9999   21.2249 H   0  0  0  0  0  0
  -25.9821  -26.0544   18.8419 H   0  0  0  0  0  0
  -23.9775  -27.3688   18.9452 H   0  0  0  0  0  0
  -23.7468  -30.6236   19.4134 H   0  0  0  0  0  0
  -22.7383  -29.2784   19.8580 H   0  0  0  0  0  0
  -25.1288  -36.1979   25.0825 H   0  0  0  0  0  0
  -20.9955  -28.3264   24.1425 H   0  0  0  0  0  0
  -20.5680  -26.2315   23.3640 H   0  0  0  0  0  0
  -21.6658  -26.7452   22.1239 H   0  0  0  0  0  0
  -19.6917  -25.6271   21.1271 H   0  0  0  0  0  0
  -19.6656  -27.3160   20.6742 H   0  0  0  0  0  0
  -17.4207  -26.6630   21.4058 H   0  0  0  0  0  0
  -18.0338  -26.0028   22.9057 H   0  0  0  0  0  0
  -19.7926  -30.7249   24.2294 H   0  0  0  0  0  0
  -17.5011  -31.6265   24.5144 H   0  0  0  0  0  0
  -15.5346  -30.2974   23.7632 H   0  0  0  0  0  0
  -15.8674  -28.0788   22.7070 H   0  0  0  0  0  0
  -24.5899  -30.7081   25.7843 H   0  0  0  0  0  0
  -24.8929  -32.2902   26.4924 H   0  0  0  0  0  0
  -25.8061  -30.8931   27.0272 H   0  0  0  0  0  0
  -26.2894  -29.6809   24.1174 H   0  0  0  0  0  0
  -27.4008  -29.7248   25.4667 H   0  0  0  0  0  0
  -27.8766  -30.4335   23.9407 H   0  0  0  0  0  0
  -27.2656  -33.3624   26.2117 H   0  0  0  0  0  0
  -28.3853  -32.6915   25.0351 H   0  0  0  0  0  0
  -28.0728  -31.8462   26.5448 H   0  0  0  0  0  0
  -28.2616  -38.0117   24.7507 H   0  0  0  0  0  0
  -28.1079  -36.2649   24.6293 H   0  0  0  0  0  0
  -27.2302  -37.1473   25.8868 H   0  0  0  0  0  0
  -20.9308  -29.8774   21.6936 H   0  0  0  0  0  0
  -26.0187  -38.2876   24.1392 H   0  0  0  0  0  0
  -26.8824  -25.2581   22.5716 H   0  0  0  0  0  0
  -27.5334  -24.4365   23.9839 H   0  0  0  0  0  0
  -29.6751  -24.1123   22.9201 H   0  0  0  0  0  0
  -29.2590  -25.7238   22.3559 H   0  0  0  0  0  0
  -30.8309  -18.8260   22.0080 H   0  0  0  0  0  0
  -29.6814  -17.9144   22.9747 H   0  0  0  0  0  0
  -25.9802  -20.7936   21.3775 H   0  0  0  0  0  0
  -26.1061  -21.3358   19.7029 H   0  0  0  0  0  0
  -31.3623  -16.2677   22.8300 H   0  0  0  0  0  0
  -31.9064  -16.8480   21.2657 H   0  0  0  0  0  0
  -28.7314  -16.1129   19.6969 H   0  0  0  0  0  0
  -28.1302  -16.0355   21.3566 H   0  0  0  0  0  0
  -26.0683  -23.1898   21.9375 H   0  0  0  0  0  0
  -27.1466  -22.3315   23.0117 H   0  0  0  0  0  0
  -25.7537  -19.1208   18.8888 H   0  0  0  0  0  0
  -24.8044  -19.0460   20.3719 H   0  0  0  0  0  0
  -29.7205  -18.2232   19.9593 H   0  0  0  0  0  0
  -28.2737  -20.2620   19.4589 H   0  0  0  0  0  0
  -27.7258  -18.9011   22.1380 H   0  0  0  0  0  0
  -29.8387  -23.8589   20.5325 H   0  0  0  0  0  0
  -29.6769  -21.5614   20.7465 H   0  0  0  0  0  0
  -28.8734  -21.2464   22.2433 H   0  0  0  0  0  0
  -27.0909  -24.8476   20.0476 H   0  0  0  0  0  0
  -28.3962  -24.8705   18.9102 H   0  0  0  0  0  0
  -27.0188  -17.6151   19.6986 H   0  0  0  0  0  0
  -26.2878  -17.5922   21.1589 H   0  0  0  0  0  0
  -27.4310  -22.7901   20.2721 H   0  0  0  0  0  0
  1 25  1  0  0  0
  1 30  2  0  0  0
  1 85  1  0  0  0
  2  3  1  0  0  0
  2 25  1  0  0  0
  2 88  1  0  0  0
  2 89  1  0  0  0
  3  4  1  0  0  0
  3 90  1  0  0  0
  3 91  1  0  0  0
  4  5  1  0  0  0
  4 92  1  0  0  0
  4 93  1  0  0  0
  5  6  1  0  0  0
  5 26  1  0  0  0
  5 94  1  0  0  0
  6 25  1  0  0  0
  6 95  1  0  0  0
  6 96  1  0  0  0
  7  8  2  0  0  0
  7 26  1  0  0  0
  7 29  1  0  0  0
  8  9  1  0  0  0
  8 22  1  0  0  0
  9 10  1  0  0  0
  9 27  2  0  0  0
 10 11  2  0  0  0
 10 15  1  0  0  0
 11 12  1  0  0  0
 11 97  1  0  0  0
 12 13  2  0  0  0
 12 98  1  0  0  0
 13 14  1  0  0  0
 13 31  1  0  0  0
 14 15  2  0  0  0
 14 99  1  0  0  0
 15100  1  0  0  0
 16 17  2  0  0  0
 16 21  1  0  0  0
 16 31  1  0  0  0
 17 18  1  0  0  0
 17101  1  0  0  0
 18 19  2  0  0  0
 18102  1  0  0  0
 19 20  1  0  0  0
 19 24  1  0  0  0
 20 21  2  0  0  0
 20103  1  0  0  0
 21 23  1  0  0  0
 22 28  1  0  0  0
 22 32  2  0  0  0
 26 27  1  0  0  0
 28104  1  0  0  0
 28105  1  0  0  0
 29106  1  0  0  0
 29107  1  0  0  0
 33 34  1  0  0  0
 33 66  1  0  0  0
 33 70  2  0  0  0
 34 36  1  0  0  0
 34 59  1  0  0  0
 34108  1  0  0  0
 35 44  2  0  0  0
 35 45  1  0  0  0
 35 68  1  0  0  0
 36 56  1  0  0  0
 36109  1  0  0  0
 37 39  1  0  0  0
 37 47  1  0  0  0
 37 66  1  0  0  0
 37110  1  0  0  0
 38 43  2  0  0  0
 38 46  1  0  0  0
 38 47  1  0  0  0
 39 64  1  0  0  0
 39 67  2  0  0  0
 40 52  1  0  0  0
 40 53  2  0  0  0
 40 58  1  0  0  0
 41111  1  0  0  0
 41112  1  0  0  0
 41113  1  0  0  0
 41 48  1  0  0  0
 42 43  1  0  0  0
 42 66  1  0  0  0
 42114  1  0  0  0
 42115  1  0  0  0
 43 44  1  0  0  0
 44116  1  0  0  0
 45 46  2  0  0  0
 45117  1  0  0  0
 46118  1  0  0  0
 47119  1  0  0  0
 47120  1  0  0  0
 48 56  1  0  0  0
 48 65  1  0  0  0
 48121  1  0  0  0
 49 50  1  0  0  0
 49 53  1  0  0  0
 49 64  1  0  0  0
 49122  1  0  0  0
 50 51  1  0  0  0
 50123  1  0  0  0
 50124  1  0  0  0
 51 52  1  0  0  0
 51125  1  0  0  0
 51126  1  0  0  0
 52127  1  0  0  0
 52128  1  0  0  0
 53 54  1  0  0  0
 54 55  2  0  0  0
 54129  1  0  0  0
 55 57  1  0  0  0
 55130  1  0  0  0
 56 69  2  0  0  0
 57 58  2  0  0  0
 57131  1  0  0  0
 58132  1  0  0  0
 59 60  1  0  0  0
 59 61  1  0  0  0
 59 62  1  0  0  0
 60133  1  0  0  0
 60134  1  0  0  0
 60135  1  0  0  0
 61136  1  0  0  0
 61137  1  0  0  0
 61138  1  0  0  0
 62139  1  0  0  0
 62140  1  0  0  0
 62141  1  0  0  0
 63 65  1  0  0  0
 63142  1  0  0  0
 63143  1  0  0  0
 63144  1  0  0  0
 64145  1  0  0  0
 65146  1  0  0  0
 68 84  1  0  0  0
 71 72  1  0  0  0
 71 77  1  0  0  0
 71147  1  0  0  0
 71148  1  0  0  0
 72 82  1  0  0  0
 72149  1  0  0  0
 72150  1  0  0  0
 73 75  1  0  0  0
 73151  1  0  0  0
 73152  1  0  0  0
 73 79  1  0  0  0
 74 78  1  0  0  0
 74 80  1  0  0  0
 74153  1  0  0  0
 74154  1  0  0  0
 75 85  1  0  0  0
 75155  1  0  0  0
 75156  1  0  0  0
 76 79  1  0  0  0
 76 85  1  0  0  0
 76157  1  0  0  0
 76158  1  0  0  0
 77 87  1  0  0  0
 77159  1  0  0  0
 77160  1  0  0  0
 78 86  1  0  0  0
 78161  1  0  0  0
 78162  1  0  0  0
 79 81  1  0  0  0
 79163  1  0  0  0
 80 81  1  0  0  0
 80 83  1  0  0  0
 80164  1  0  0  0
 81 86  1  0  0  0
 81165  1  0  0  0
 82 84  1  0  0  0
 82 87  1  0  0  0
 82166  1  0  0  0
 83167  1  0  0  0
 83168  1  0  0  0
 83 87  1  0  0  0
 84169  1  0  0  0
 84170  1  0  0  0
 86171  1  0  0  0
 86172  1  0  0  0
 87173  1  0  0  0
M  CHG  2  86   1  87   1
M  ISO  4   1 100  68 101  84 101  85 100
M  END
> <chiral flag>
0

> <version>
0

> <s_m_source_file>
/data/baiqing/PycharmProjects/Reinvent-master-3.2/result/LINK_invent/BTK/process_docking_weight1_custom_sum_contain_oxygen_bond_distance_aromatic_linkinvent_7_9_3/rearranged_h_0126.sdf

> <i_m_source_file_index>
88

> <r_mmod_Potential_Energy-OPLS-2005>
238.587448120117

> <r_mmod_Stretch_Energy-OPLS-2005>
65.8974761962891

> <r_mmod_Bend_Energy-OPLS-2005>
202.425170898438

> <r_mmod_Torsional_Energy-OPLS-2005>
512.134765625

> <r_mmod_Improper_Torsional_Energy-OPLS-2005>
10.6331596374512

> <r_mmod_Van_der_Waal_Energy-OPLS-2005>
130.675811767578

> <r_mmod_Electrostatic_Energy-OPLS-2005>
214.502807617188

> <r_mmod_Solvation_Energy-OPLS-2005>
-929.147521972656

> <b_mmod_Minimization_Converged-OPLS-2005>
0

> <r_mmod_RMS_Derivative-OPLS-2005>
2.58402228355408

$$$$
88
                    3D
 Structure written by MMmdl.
167176  0  0  1  0            999 V2000
  -31.0451  -14.2376   20.0865 C   0  0  0  0  0  0
  -30.2984  -12.0658   19.3044 C   0  0  0  0  0  0
  -29.3922  -12.3509   18.1068 C   0  0  0  0  0  0
  -27.9393  -12.3596   18.5984 C   0  0  0  0  0  0
  -27.6840  -13.2153   19.8777 C   0  0  2  0  0  0
  -28.8478  -13.1169   20.9244 C   0  0  0  0  0  0
  -25.2748  -13.8186   20.5897 C   0  0  0  0  0  0
  -24.1946  -13.0452   20.9269 C   0  0  0  0  0  0
  -24.6532  -11.6934   20.8856 C   0  0  0  0  0  0
  -23.9155  -10.4314   21.0422 C   0  0  0  0  0  0
  -24.3660   -9.4214   21.9202 C   0  0  0  0  0  0
  -23.6324   -8.2257   22.0783 C   0  0  0  0  0  0
  -22.4310   -8.0313   21.3562 C   0  0  0  0  0  0
  -21.9953   -9.0310   20.4664 C   0  0  0  0  0  0
  -22.7303  -10.2182   20.3071 C   0  0  0  0  0  0
  -21.6873   -6.0754   22.5279 C   0  0  0  0  0  0
  -21.4019   -6.5655   23.8212 C   0  0  0  0  0  0
  -21.3654   -5.6811   24.9176 C   0  0  0  0  0  0
  -21.6035   -4.3071   24.7231 C   0  0  0  0  0  0
  -21.8817   -3.8160   23.4354 C   0  0  0  0  0  0
  -21.9208   -4.6980   22.3403 C   0  0  0  0  0  0
  -22.7917  -13.5231   21.1813 C   0  0  0  0  0  0
  -22.1659   -4.2150   21.0986 F   0  0  0  0  0  0
  -21.5638   -3.4554   25.7744 F   0  0  0  0  0  0
  -30.1465  -13.2087   20.1976 N   0  0  0  0  0  0
  -26.3342  -12.9400   20.3898 N   0  0  0  0  0  0
  -25.9561  -11.6552   20.6199 N   0  0  0  0  0  0
  -22.0514  -12.8243   22.0359 N   0  0  0  0  0  0
  -25.4376  -15.1902   20.4177 N   0  0  0  0  0  0
  -31.3453  -15.0474   20.9276 O   0  0  0  0  0  0
  -21.6662   -6.8908   21.4250 O   0  0  0  0  0  0
  -22.3603  -14.5511   20.6628 O   0  0  0  0  0  0
  -24.6091  -31.8717   23.2146 C   0  0  0  0  0  0
  -25.8998  -32.4853   23.8441 C   0  0  1  0  0  0
  -27.2374  -27.4755   20.0885 C   0  0  0  0  0  0
  -25.5857  -33.8652   24.2361 N   0  0  0  0  0  0
  -23.3953  -30.4953   21.5557 C   0  0  2  0  0  0
  -24.8394  -28.9638   20.1223 C   0  0  0  0  0  0
  -22.7390  -29.4661   22.5031 C   0  0  0  0  0  0
  -18.0271  -28.1365   22.8507 C   0  0  0  0  0  0
  -24.1496  -36.7340   23.2639 C   0  0  0  0  0  0
  -25.9193  -30.8531   21.3575 C   0  0  0  0  0  0
  -25.9981  -29.4897   20.7053 C   0  0  0  0  0  0
  -27.2002  -28.7547   20.6811 C   0  0  0  0  0  0
  -26.0603  -26.9521   19.5064 C   0  0  0  0  0  0
  -24.8626  -27.6921   19.5219 C   0  0  0  0  0  0
  -23.6002  -29.8265   20.1714 C   0  0  0  0  0  0
  -25.4108  -36.3133   24.0347 C   0  0  1  0  0  0
  -20.5855  -28.3625   23.1345 C   0  0  2  0  0  0
  -20.6749  -26.9365   22.5425 C   0  0  0  0  0  0
  -19.5728  -26.6374   21.5218 C   0  0  0  0  0  0
  -18.1909  -26.7909   22.1632 C   0  0  0  0  0  0
  -19.1522  -28.8815   23.2922 C   0  0  0  0  0  0
  -18.9441  -30.1431   23.8914 C   0  0  0  0  0  0
  -17.6443  -30.6567   24.0569 C   0  0  0  0  0  0
  -25.9026  -34.9496   23.5155 C   0  0  0  0  0  0
  -16.5335  -29.9071   23.6329 C   0  0  0  0  0  0
  -16.7255  -28.6493   23.0333 C   0  0  0  0  0  0
  -26.4445  -31.6606   25.0747 C   0  0  0  0  0  0
  -25.3745  -31.3676   26.1518 C   0  0  0  0  0  0
  -27.0264  -30.3066   24.6058 C   0  0  0  0  0  0
  -27.6038  -32.4309   25.7487 C   0  0  0  0  0  0
  -27.5589  -37.1823   24.8462 C   0  0  0  0  0  0
  -21.4122  -29.3013   22.3777 N   0  0  0  0  0  0
  -26.4301  -37.3808   23.9405 N   0  0  0  0  0  0
  -24.6599  -31.0853   22.1015 N   0  0  0  0  0  0
  -23.4196  -28.8187   23.3040 O   0  0  0  0  0  0
  -28.4326  -26.7986   20.0734 O   0  0  0  0  0  0
  -26.5605  -34.8925   22.4733 O   0  0  0  0  0  0
  -23.5295  -32.1432   23.7567 O   0  0  0  0  0  0
  -29.1419  -16.2184   18.1337 C   0  0  0  0  0  0
  -28.4877  -17.4124   18.1095 C   0  0  0  0  0  0
  -30.6816  -17.8049   17.8781 C   0  0  0  0  0  0
  -30.5412  -16.4430   18.0013 C   0  0  0  0  0  0
  -33.8883  -14.6778   17.8336 C   0  0  0  0  0  0
  -33.0220  -15.8991   17.6067 C   0  0  0  0  0  0
  -33.1777  -13.9608   18.9828 C   0  0  0  0  0  0
  -31.6119  -15.3632   17.8764 C   0  0  1  0  0  0
  -29.1500  -20.7195   18.8474 C   0  0  0  0  0  0
  -29.1252  -19.7961   17.6167 C   0  0  0  0  0  0
  -28.9004  -22.1869   18.4347 C   0  0  0  0  0  0
  -28.6118  -24.5277   19.2015 C   0  0  0  0  0  0
  -28.4006  -25.4192   20.4353 C   0  0  0  0  0  0
  -29.4277  -18.3988   17.8949 N   0  0  0  0  0  0
  -31.7429  -14.3096   18.9199 N   0  0  0  0  0  0
  -28.7870  -23.1062   19.5864 N   0  3  0  0  0  0
  -31.3233  -11.8571   18.9954 H   0  0  0  0  0  0
  -29.9824  -11.1475   19.8024 H   0  0  0  0  0  0
  -29.5180  -11.5750   17.3511 H   0  0  0  0  0  0
  -29.6384  -13.2867   17.6069 H   0  0  0  0  0  0
  -27.6803  -11.3189   18.7954 H   0  0  0  0  0  0
  -27.2707  -12.6742   17.7974 H   0  0  0  0  0  0
  -27.6613  -14.2512   19.5719 H   0  0  0  0  0  0
  -28.7977  -12.1732   21.4689 H   0  0  0  0  0  0
  -28.7701  -13.9102   21.6676 H   0  0  0  0  0  0
  -25.2801   -9.5685   22.4778 H   0  0  0  0  0  0
  -24.0037   -7.4648   22.7495 H   0  0  0  0  0  0
  -21.0899   -8.8847   19.8939 H   0  0  0  0  0  0
  -22.3785  -10.9742   19.6173 H   0  0  0  0  0  0
  -21.1997   -7.6164   23.9697 H   0  0  0  0  0  0
  -21.1462   -6.0551   25.9070 H   0  0  0  0  0  0
  -22.0595   -2.7627   23.2868 H   0  0  0  0  0  0
  -22.4141  -11.9944   22.4799 H   0  0  0  0  0  0
  -21.1080  -13.1206   22.2437 H   0  0  0  0  0  0
  -24.6734  -15.8504   20.5136 H   0  0  0  0  0  0
  -26.3139  -15.6314   20.1694 H   0  0  0  0  0  0
  -26.7067  -32.5573   23.1210 H   0  0  0  0  0  0
  -24.9981  -33.9828   25.0479 H   0  0  0  0  0  0
  -22.6802  -31.3099   21.4195 H   0  0  0  0  0  0
  -23.3748  -35.9685   23.3320 H   0  0  0  0  0  0
  -24.3587  -36.8937   22.2046 H   0  0  0  0  0  0
  -23.7249  -37.6553   23.6645 H   0  0  0  0  0  0
  -26.0227  -31.6225   20.5918 H   0  0  0  0  0  0
  -26.8098  -30.9092   21.9728 H   0  0  0  0  0  0
  -28.0966  -29.1636   21.1233 H   0  0  0  0  0  0
  -26.0568  -25.9869   19.0232 H   0  0  0  0  0  0
  -23.9685  -27.2813   19.0718 H   0  0  0  0  0  0
  -23.7011  -30.6003   19.4095 H   0  0  0  0  0  0
  -22.7256  -29.2422   19.8795 H   0  0  0  0  0  0
  -25.1283  -36.2026   25.0841 H   0  0  0  0  0  0
  -20.9951  -28.3164   24.1465 H   0  0  0  0  0  0
  -20.5634  -26.2229   23.3599 H   0  0  0  0  0  0
  -21.6616  -26.7397   22.1226 H   0  0  0  0  0  0
  -19.6877  -25.6298   21.1215 H   0  0  0  0  0  0
  -19.6662  -27.3214   20.6777 H   0  0  0  0  0  0
  -17.4177  -26.6671   21.4035 H   0  0  0  0  0  0
  -18.0298  -26.0040   22.9022 H   0  0  0  0  0  0
  -19.7910  -30.7257   24.2267 H   0  0  0  0  0  0
  -17.4985  -31.6239   24.5171 H   0  0  0  0  0  0
  -15.5330  -30.2967   23.7627 H   0  0  0  0  0  0
  -15.8662  -28.0821   22.7009 H   0  0  0  0  0  0
  -24.5900  -30.7039   25.7861 H   0  0  0  0  0  0
  -24.8950  -32.2815   26.5035 H   0  0  0  0  0  0
  -25.8125  -30.8794   27.0235 H   0  0  0  0  0  0
  -26.2787  -29.6839   24.1137 H   0  0  0  0  0  0
  -27.4092  -29.7273   25.4468 H   0  0  0  0  0  0
  -27.8597  -30.4419   23.9163 H   0  0  0  0  0  0
  -27.2674  -33.3579   26.2143 H   0  0  0  0  0  0
  -28.3799  -32.6917   25.0282 H   0  0  0  0  0  0
  -28.0779  -31.8395   26.5327 H   0  0  0  0  0  0
  -28.2617  -38.0113   24.7505 H   0  0  0  0  0  0
  -28.1077  -36.2640   24.6303 H   0  0  0  0  0  0
  -27.2315  -37.1502   25.8871 H   0  0  0  0  0  0
  -20.9262  -29.8759   21.7033 H   0  0  0  0  0  0
  -26.0206  -38.2903   24.1383 H   0  0  0  0  0  0
  -28.6579  -15.2617   18.1770 H   0  0  0  0  0  0
  -27.4301  -17.6414   18.1552 H   0  0  0  0  0  0
  -31.5643  -18.4071   17.7033 H   0  0  0  0  0  0
  -34.9272  -14.9250   18.0555 H   0  0  0  0  0  0
  -33.8831  -14.0441   16.9439 H   0  0  0  0  0  0
  -33.1395  -16.3250   16.6102 H   0  0  0  0  0  0
  -33.2911  -16.6685   18.3305 H   0  0  0  0  0  0
  -33.6090  -14.2921   19.9297 H   0  0  0  0  0  0
  -33.3366  -12.8838   18.9239 H   0  0  0  0  0  0
  -31.3213  -14.8216   16.9741 H   0  0  0  0  0  0
  -30.1108  -20.6359   19.3572 H   0  0  0  0  0  0
  -28.3853  -20.3966   19.5552 H   0  0  0  0  0  0
  -29.8326  -20.1515   16.8674 H   0  0  0  0  0  0
  -28.1422  -19.8347   17.1456 H   0  0  0  0  0  0
  -27.9799  -22.2516   17.8520 H   0  0  0  0  0  0
  -29.7052  -22.5268   17.7800 H   0  0  0  0  0  0
  -29.4896  -24.8661   18.6505 H   0  0  0  0  0  0
  -27.7634  -24.6192   18.5256 H   0  0  0  0  0  0
  -29.2149  -25.2621   21.1433 H   0  0  0  0  0  0
  -27.4825  -25.1514   20.9627 H   0  0  0  0  0  0
  -29.6130  -23.0237   20.1602 H   0  0  0  0  0  0
  -27.9967  -22.8234   20.1470 H   0  0  0  0  0  0
  1 25  1  0  0  0
  1 30  2  0  0  0
  1 85  1  0  0  0
  2  3  1  0  0  0
  2 25  1  0  0  0
  2 87  1  0  0  0
  2 88  1  0  0  0
  3  4  1  0  0  0
  3 89  1  0  0  0
  3 90  1  0  0  0
  4  5  1  0  0  0
  4 91  1  0  0  0
  4 92  1  0  0  0
  5  6  1  0  0  0
  5 26  1  0  0  0
  5 93  1  0  0  0
  6 25  1  0  0  0
  6 94  1  0  0  0
  6 95  1  0  0  0
  7  8  2  0  0  0
  7 26  1  0  0  0
  7 29  1  0  0  0
  8  9  1  0  0  0
  8 22  1  0  0  0
  9 10  1  0  0  0
  9 27  2  0  0  0
 10 11  2  0  0  0
 10 15  1  0  0  0
 11 12  1  0  0  0
 11 96  1  0  0  0
 12 13  2  0  0  0
 12 97  1  0  0  0
 13 14  1  0  0  0
 13 31  1  0  0  0
 14 15  2  0  0  0
 14 98  1  0  0  0
 15 99  1  0  0  0
 16 17  2  0  0  0
 16 21  1  0  0  0
 16 31  1  0  0  0
 17 18  1  0  0  0
 17100  1  0  0  0
 18 19  2  0  0  0
 18101  1  0  0  0
 19 20  1  0  0  0
 19 24  1  0  0  0
 20 21  2  0  0  0
 20102  1  0  0  0
 21 23  1  0  0  0
 22 28  1  0  0  0
 22 32  2  0  0  0
 26 27  1  0  0  0
 28103  1  0  0  0
 28104  1  0  0  0
 29105  1  0  0  0
 29106  1  0  0  0
 33 34  1  0  0  0
 33 66  1  0  0  0
 33 70  2  0  0  0
 34 36  1  0  0  0
 34 59  1  0  0  0
 34107  1  0  0  0
 35 44  2  0  0  0
 35 45  1  0  0  0
 35 68  1  0  0  0
 36 56  1  0  0  0
 36108  1  0  0  0
 37 39  1  0  0  0
 37 47  1  0  0  0
 37 66  1  0  0  0
 37109  1  0  0  0
 38 43  2  0  0  0
 38 46  1  0  0  0
 38 47  1  0  0  0
 39 64  1  0  0  0
 39 67  2  0  0  0
 40 52  1  0  0  0
 40 53  2  0  0  0
 40 58  1  0  0  0
 41110  1  0  0  0
 41111  1  0  0  0
 41112  1  0  0  0
 41 48  1  0  0  0
 42 43  1  0  0  0
 42 66  1  0  0  0
 42113  1  0  0  0
 42114  1  0  0  0
 43 44  1  0  0  0
 44115  1  0  0  0
 45 46  2  0  0  0
 45116  1  0  0  0
 46117  1  0  0  0
 47118  1  0  0  0
 47119  1  0  0  0
 48 56  1  0  0  0
 48 65  1  0  0  0
 48120  1  0  0  0
 49 50  1  0  0  0
 49 53  1  0  0  0
 49 64  1  0  0  0
 49121  1  0  0  0
 50 51  1  0  0  0
 50122  1  0  0  0
 50123  1  0  0  0
 51 52  1  0  0  0
 51124  1  0  0  0
 51125  1  0  0  0
 52126  1  0  0  0
 52127  1  0  0  0
 53 54  1  0  0  0
 54 55  2  0  0  0
 54128  1  0  0  0
 55 57  1  0  0  0
 55129  1  0  0  0
 56 69  2  0  0  0
 57 58  2  0  0  0
 57130  1  0  0  0
 58131  1  0  0  0
 59 60  1  0  0  0
 59 61  1  0  0  0
 59 62  1  0  0  0
 60132  1  0  0  0
 60133  1  0  0  0
 60134  1  0  0  0
 61135  1  0  0  0
 61136  1  0  0  0
 61137  1  0  0  0
 62138  1  0  0  0
 62139  1  0  0  0
 62140  1  0  0  0
 63 65  1  0  0  0
 63141  1  0  0  0
 63142  1  0  0  0
 63143  1  0  0  0
 64144  1  0  0  0
 65145  1  0  0  0
 68 83  1  0  0  0
 71 72  2  0  0  0
 71 74  1  0  0  0
 71146  1  0  0  0
 72 84  1  0  0  0
 72147  1  0  0  0
 73 74  2  0  0  0
 73 84  1  0  0  0
 73148  1  0  0  0
 74 78  1  0  0  0
 75 76  1  0  0  0
 75 77  1  0  0  0
 75149  1  0  0  0
 75150  1  0  0  0
 76 78  1  0  0  0
 76151  1  0  0  0
 76152  1  0  0  0
 77 85  1  0  0  0
 77153  1  0  0  0
 77154  1  0  0  0
 78 85  1  0  0  0
 78155  1  0  0  0
 79 80  1  0  0  0
 79 81  1  0  0  0
 79156  1  0  0  0
 79157  1  0  0  0
 80 84  1  0  0  0
 80158  1  0  0  0
 80159  1  0  0  0
 81 86  1  0  0  0
 81160  1  0  0  0
 81161  1  0  0  0
 82 83  1  0  0  0
 82 86  1  0  0  0
 82162  1  0  0  0
 82163  1  0  0  0
 83164  1  0  0  0
 83165  1  0  0  0
 86166  1  0  0  0
 86167  1  0  0  0
M  CHG  1  86   1
M  ISO  4   1 100  68 101  83 101  85 100
M  END
> <chiral flag>
0

> <version>
0

> <s_m_source_file>
/data/baiqing/PycharmProjects/Reinvent-master-3.2/result/LINK_invent/BTK/process_docking_weight1_custom_sum_contain_oxygen_bond_distance_aromatic_linkinvent_7_9_3/rearranged_h_0126.sdf

> <i_m_source_file_index>
89

> <r_mmod_Potential_Energy-OPLS-2005>
255.217956542969

> <r_mmod_Stretch_Energy-OPLS-2005>
42.5574150085449

> <r_mmod_Bend_Energy-OPLS-2005>
152.227813720703

> <r_mmod_Torsional_Energy-OPLS-2005>
364.599517822266

> <r_mmod_Improper_Torsional_Energy-OPLS-2005>
6.77797889709473

> <r_mmod_Van_der_Waal_Energy-OPLS-2005>
132.089157104492

> <r_mmod_Electrostatic_Energy-OPLS-2005>
-171.777389526367

> <r_mmod_Solvation_Energy-OPLS-2005>
-457.460662841797

> <b_mmod_Minimization_Converged-OPLS-2005>
0

> <r_mmod_RMS_Derivative-OPLS-2005>
2.98625040054321

$$$$
89
                    3D
 Structure written by MMmdl.
172181  0  0  1  0            999 V2000
  -30.6398  -14.4733   20.6167 C   0  0  0  0  0  0
  -30.4065  -12.3121   19.4355 C   0  0  0  0  0  0
  -29.4709  -12.4922   18.2152 C   0  0  0  0  0  0
  -27.9911  -12.3607   18.6162 C   0  0  0  0  0  0
  -27.6417  -13.1941   19.8737 C   0  0  2  0  0  0
  -28.6594  -12.9720   21.0058 C   0  0  0  0  0  0
  -25.2451  -13.8089   20.5641 C   0  0  0  0  0  0
  -24.1734  -13.0488   20.9180 C   0  0  0  0  0  0
  -24.6286  -11.6906   20.8734 C   0  0  0  0  0  0
  -23.8999  -10.4279   21.0507 C   0  0  0  0  0  0
  -24.3622   -9.4140   21.9259 C   0  0  0  0  0  0
  -23.6286   -8.2194   22.0769 C   0  0  0  0  0  0
  -22.4265   -8.0270   21.3595 C   0  0  0  0  0  0
  -21.9911   -9.0209   20.4680 C   0  0  0  0  0  0
  -22.7205  -10.2084   20.3090 C   0  0  0  0  0  0
  -21.6841   -6.0717   22.5275 C   0  0  0  0  0  0
  -21.3995   -6.5638   23.8191 C   0  0  0  0  0  0
  -21.3649   -5.6812   24.9170 C   0  0  0  0  0  0
  -21.6038   -4.3067   24.7255 C   0  0  0  0  0  0
  -21.8822   -3.8150   23.4382 C   0  0  0  0  0  0
  -21.9160   -4.6944   22.3416 C   0  0  0  0  0  0
  -22.7705  -13.5211   21.1883 C   0  0  0  0  0  0
  -22.1657   -4.2161   21.0989 F   0  0  0  0  0  0
  -21.5615   -3.4519   25.7751 F   0  0  0  0  0  0
  -29.9981  -13.2810   20.4725 N   0  0  0  0  0  0
  -26.2884  -12.9275   20.3351 N   0  0  0  0  0  0
  -25.9204  -11.6480   20.5832 N   0  0  0  0  0  0
  -22.0393  -12.8207   22.0451 N   0  0  0  0  0  0
  -25.4101  -15.1770   20.3529 N   0  0  0  0  0  0
  -31.7830  -14.6611   20.1710 O   0  0  0  0  0  0
  -21.6597   -6.8911   21.4282 O   0  0  0  0  0  0
  -22.3417  -14.5587   20.6738 O   0  0  0  0  0  0
  -24.6110  -31.8688   23.2079 C   0  0  0  0  0  0
  -25.8949  -32.4834   23.8401 C   0  0  1  0  0  0
  -27.2513  -27.4406   20.0912 C   0  0  0  0  0  0
  -25.5795  -33.8648   24.2319 N   0  0  0  0  0  0
  -23.4066  -30.4704   21.5608 C   0  0  2  0  0  0
  -24.8524  -28.9454   20.1262 C   0  0  0  0  0  0
  -22.7429  -29.4584   22.5200 C   0  0  0  0  0  0
  -18.0458  -28.1299   22.8693 C   0  0  0  0  0  0
  -24.1511  -36.7267   23.2650 C   0  0  0  0  0  0
  -25.9395  -30.8179   21.3861 C   0  0  0  0  0  0
  -26.0139  -29.4648   20.7151 C   0  0  0  0  0  0
  -27.2126  -28.7147   20.6947 C   0  0  0  0  0  0
  -26.0666  -26.9307   19.4973 C   0  0  0  0  0  0
  -24.8765  -27.6823   19.5093 C   0  0  0  0  0  0
  -23.6179  -29.8107   20.1789 C   0  0  0  0  0  0
  -25.4132  -36.3130   24.0374 C   0  0  1  0  0  0
  -20.6003  -28.3763   23.1804 C   0  0  2  0  0  0
  -20.6719  -26.9430   22.5998 C   0  0  0  0  0  0
  -19.6275  -26.7721   21.4928 C   0  0  0  0  0  0
  -18.2402  -26.7928   22.1615 C   0  0  0  0  0  0
  -19.1553  -28.8924   23.3370 C   0  0  0  0  0  0
  -18.9178  -30.1567   23.9439 C   0  0  0  0  0  0
  -17.6105  -30.6628   24.0670 C   0  0  0  0  0  0
  -25.9009  -34.9504   23.5158 C   0  0  0  0  0  0
  -16.5280  -29.8968   23.6079 C   0  0  0  0  0  0
  -16.7395  -28.6262   23.0389 C   0  0  0  0  0  0
  -26.4397  -31.6606   25.0670 C   0  0  0  0  0  0
  -25.3622  -31.3657   26.1333 C   0  0  0  0  0  0
  -27.0279  -30.3074   24.6171 C   0  0  0  0  0  0
  -27.6050  -32.4308   25.7322 C   0  0  0  0  0  0
  -27.5621  -37.1785   24.8470 C   0  0  0  0  0  0
  -21.4222  -29.2709   22.3713 N   0  0  0  0  0  0
  -26.4347  -37.3792   23.9375 N   0  0  0  0  0  0
  -24.6684  -31.0736   22.1024 N   0  0  0  0  0  0
  -23.4220  -28.8590   23.3571 O   0  0  0  0  0  0
  -28.4443  -26.7448   20.1162 O   0  0  0  0  0  0
  -26.5630  -34.8963   22.4762 O   0  0  0  0  0  0
  -23.5309  -32.1458   23.7446 O   0  0  0  0  0  0
  -30.1570  -20.5230   21.5636 C   0  0  0  0  0  0
  -30.4929  -19.1581   21.6650 C   0  0  0  0  0  0
  -27.9331  -19.9159   20.8388 C   0  0  0  0  0  0
  -28.8901  -20.9191   21.0655 C   0  0  0  0  0  0
  -29.5455  -18.1489   21.3747 C   0  0  0  0  0  0
  -28.1973  -18.5730   21.2048 C   0  0  0  0  0  0
  -25.4657  -19.5979   24.7857 C   0  0  0  0  0  0
  -24.5520  -20.0429   23.6356 C   0  0  0  0  0  0
  -26.4535  -18.5739   24.1669 C   0  0  0  0  0  0
  -24.9090  -19.0927   22.4954 C   0  0  0  0  0  0
  -30.1586  -16.8967   20.6857 C   0  0  0  0  0  0
  -27.0014  -17.8202   21.7998 C   0  0  0  0  0  0
  -28.5109  -22.3815   20.8168 C   0  0  0  0  0  0
  -29.6368  -24.6087   20.3795 C   0  0  0  0  0  0
  -28.4434  -25.3540   19.7466 C   0  0  0  0  0  0
  -29.8804  -15.5022   21.0617 N   0  0  0  0  0  0
  -26.3329  -18.7897   22.7182 N   0  3  0  0  0  0
  -29.6108  -23.1245   20.1746 N   0  3  0  0  0  0
  -31.4482  -12.4423   19.1163 H   0  0  0  0  0  0
  -30.3143  -11.2922   19.8205 H   0  0  0  0  0  0
  -29.7021  -11.7490   17.4483 H   0  0  0  0  0  0
  -29.6217  -13.4801   17.7717 H   0  0  0  0  0  0
  -27.7824  -11.3049   18.8013 H   0  0  0  0  0  0
  -27.3278  -12.6342   17.7988 H   0  0  0  0  0  0
  -27.6884  -14.2423   19.5935 H   0  0  0  0  0  0
  -28.6118  -11.9398   21.3591 H   0  0  0  0  0  0
  -28.4063  -13.5796   21.8707 H   0  0  0  0  0  0
  -25.2795   -9.5534   22.4830 H   0  0  0  0  0  0
  -23.9938   -7.4556   22.7425 H   0  0  0  0  0  0
  -21.0870   -8.8796   19.8967 H   0  0  0  0  0  0
  -22.3771  -10.9675   19.6174 H   0  0  0  0  0  0
  -21.2031   -7.6145   23.9736 H   0  0  0  0  0  0
  -21.1455   -6.0522   25.9084 H   0  0  0  0  0  0
  -22.0616   -2.7625   23.2844 H   0  0  0  0  0  0
  -22.3977  -11.9847   22.4877 H   0  0  0  0  0  0
  -21.1036  -13.1224   22.2750 H   0  0  0  0  0  0
  -24.5697  -15.7321   20.2292 H   0  0  0  0  0  0
  -26.1513  -15.4819   19.7409 H   0  0  0  0  0  0
  -26.6923  -32.5619   23.1082 H   0  0  0  0  0  0
  -24.9884  -33.9804   25.0447 H   0  0  0  0  0  0
  -22.6862  -31.2815   21.4234 H   0  0  0  0  0  0
  -23.3840  -35.9517   23.3344 H   0  0  0  0  0  0
  -24.3589  -36.8830   22.2033 H   0  0  0  0  0  0
  -23.7154  -37.6464   23.6632 H   0  0  0  0  0  0
  -26.0870  -31.5977   20.6427 H   0  0  0  0  0  0
  -26.8109  -30.8410   22.0283 H   0  0  0  0  0  0
  -28.1056  -29.1171   21.1447 H   0  0  0  0  0  0
  -26.0326  -25.9675   19.0077 H   0  0  0  0  0  0
  -23.9784  -27.2818   19.0501 H   0  0  0  0  0  0
  -23.7420  -30.5905   19.4263 H   0  0  0  0  0  0
  -22.7498  -29.2276   19.8772 H   0  0  0  0  0  0
  -25.1330  -36.2055   25.0889 H   0  0  0  0  0  0
  -21.0313  -28.3574   24.1948 H   0  0  0  0  0  0
  -20.4264  -26.2402   23.3909 H   0  0  0  0  0  0
  -21.6802  -26.6665   22.2902 H   0  0  0  0  0  0
  -19.8200  -25.9027   20.8581 H   0  0  0  0  0  0
  -19.6984  -27.6154   20.8074 H   0  0  0  0  0  0
  -17.4516  -26.6580   21.4164 H   0  0  0  0  0  0
  -18.1612  -25.9525   22.8631 H   0  0  0  0  0  0
  -19.7460  -30.7488   24.3418 H   0  0  0  0  0  0
  -17.4165  -31.6208   24.5372 H   0  0  0  0  0  0
  -15.5112  -30.2645   23.6858 H   0  0  0  0  0  0
  -15.8811  -28.0591   22.7102 H   0  0  0  0  0  0
  -24.5862  -30.6973   25.7568 H   0  0  0  0  0  0
  -24.8663  -32.2732   26.4805 H   0  0  0  0  0  0
  -25.7869  -30.8759   27.0110 H   0  0  0  0  0  0
  -26.2898  -29.6705   24.1290 H   0  0  0  0  0  0
  -27.4019  -29.7428   25.4730 H   0  0  0  0  0  0
  -27.8741  -30.4292   23.9401 H   0  0  0  0  0  0
  -27.2815  -33.3681   26.1884 H   0  0  0  0  0  0
  -28.3797  -32.6749   25.0026 H   0  0  0  0  0  0
  -28.0800  -31.8425   26.5178 H   0  0  0  0  0  0
  -28.2712  -38.0039   24.7597 H   0  0  0  0  0  0
  -28.1090  -36.2601   24.6307 H   0  0  0  0  0  0
  -27.2325  -37.1422   25.8872 H   0  0  0  0  0  0
  -20.9623  -29.7004   21.5780 H   0  0  0  0  0  0
  -26.0319  -38.2960   24.1264 H   0  0  0  0  0  0
  -30.9091  -21.2565   21.7946 H   0  0  0  0  0  0
  -31.5333  -18.8788   21.8595 H   0  0  0  0  0  0
  -26.9176  -20.2150   20.6003 H   0  0  0  0  0  0
  -24.9133  -19.2061   25.6421 H   0  0  0  0  0  0
  -26.0217  -20.4578   25.1452 H   0  0  0  0  0  0
  -24.8512  -21.0598   23.3707 H   0  0  0  0  0  0
  -23.4805  -20.0532   23.8813 H   0  0  0  0  0  0
  -26.1655  -17.5466   24.3832 H   0  0  0  0  0  0
  -27.4862  -18.7062   24.5059 H   0  0  0  0  0  0
  -24.6933  -19.5499   21.5290 H   0  0  0  0  0  0
  -24.3328  -18.1730   22.5953 H   0  0  0  0  0  0
  -31.2471  -17.0335   20.6710 H   0  0  0  0  0  0
  -29.8568  -16.9835   19.6411 H   0  0  0  0  0  0
  -26.3619  -17.5169   20.9711 H   0  0  0  0  0  0
  -27.2949  -16.9341   22.3669 H   0  0  0  0  0  0
  -28.2237  -22.8388   21.7590 H   0  0  0  0  0  0
  -27.6323  -22.4102   20.1673 H   0  0  0  0  0  0
  -29.6775  -24.8387   21.4425 H   0  0  0  0  0  0
  -30.5784  -24.9915   19.9841 H   0  0  0  0  0  0
  -27.5287  -24.8527   20.0741 H   0  0  0  0  0  0
  -28.4985  -25.2706   18.6561 H   0  0  0  0  0  0
  -28.9227  -15.2559   21.2704 H   0  0  0  0  0  0
  -26.8440  -19.6546   22.5582 H   0  0  0  0  0  0
  -29.6249  -22.8641   19.2007 H   0  0  0  0  0  0
  -30.4402  -22.7396   20.5962 H   0  0  0  0  0  0
  1 25  1  0  0  0
  1 30  2  0  0  0
  1 86  1  0  0  0
  2  3  1  0  0  0
  2 25  1  0  0  0
  2 89  1  0  0  0
  2 90  1  0  0  0
  3  4  1  0  0  0
  3 91  1  0  0  0
  3 92  1  0  0  0
  4  5  1  0  0  0
  4 93  1  0  0  0
  4 94  1  0  0  0
  5  6  1  0  0  0
  5 26  1  0  0  0
  5 95  1  0  0  0
  6 25  1  0  0  0
  6 96  1  0  0  0
  6 97  1  0  0  0
  7  8  2  0  0  0
  7 26  1  0  0  0
  7 29  1  0  0  0
  8  9  1  0  0  0
  8 22  1  0  0  0
  9 10  1  0  0  0
  9 27  2  0  0  0
 10 11  2  0  0  0
 10 15  1  0  0  0
 11 12  1  0  0  0
 11 98  1  0  0  0
 12 13  2  0  0  0
 12 99  1  0  0  0
 13 14  1  0  0  0
 13 31  1  0  0  0
 14 15  2  0  0  0
 14100  1  0  0  0
 15101  1  0  0  0
 16 17  2  0  0  0
 16 21  1  0  0  0
 16 31  1  0  0  0
 17 18  1  0  0  0
 17102  1  0  0  0
 18 19  2  0  0  0
 18103  1  0  0  0
 19 20  1  0  0  0
 19 24  1  0  0  0
 20 21  2  0  0  0
 20104  1  0  0  0
 21 23  1  0  0  0
 22 28  1  0  0  0
 22 32  2  0  0  0
 26 27  1  0  0  0
 28105  1  0  0  0
 28106  1  0  0  0
 29107  1  0  0  0
 29108  1  0  0  0
 33 34  1  0  0  0
 33 66  1  0  0  0
 33 70  2  0  0  0
 34 36  1  0  0  0
 34 59  1  0  0  0
 34109  1  0  0  0
 35 44  2  0  0  0
 35 45  1  0  0  0
 35 68  1  0  0  0
 36 56  1  0  0  0
 36110  1  0  0  0
 37 39  1  0  0  0
 37 47  1  0  0  0
 37 66  1  0  0  0
 37111  1  0  0  0
 38 43  2  0  0  0
 38 46  1  0  0  0
 38 47  1  0  0  0
 39 64  1  0  0  0
 39 67  2  0  0  0
 40 52  1  0  0  0
 40 53  2  0  0  0
 40 58  1  0  0  0
 41112  1  0  0  0
 41113  1  0  0  0
 41114  1  0  0  0
 41 48  1  0  0  0
 42 43  1  0  0  0
 42 66  1  0  0  0
 42115  1  0  0  0
 42116  1  0  0  0
 43 44  1  0  0  0
 44117  1  0  0  0
 45 46  2  0  0  0
 45118  1  0  0  0
 46119  1  0  0  0
 47120  1  0  0  0
 47121  1  0  0  0
 48 56  1  0  0  0
 48 65  1  0  0  0
 48122  1  0  0  0
 49 50  1  0  0  0
 49 53  1  0  0  0
 49 64  1  0  0  0
 49123  1  0  0  0
 50 51  1  0  0  0
 50124  1  0  0  0
 50125  1  0  0  0
 51 52  1  0  0  0
 51126  1  0  0  0
 51127  1  0  0  0
 52128  1  0  0  0
 52129  1  0  0  0
 53 54  1  0  0  0
 54 55  2  0  0  0
 54130  1  0  0  0
 55 57  1  0  0  0
 55131  1  0  0  0
 56 69  2  0  0  0
 57 58  2  0  0  0
 57132  1  0  0  0
 58133  1  0  0  0
 59 60  1  0  0  0
 59 61  1  0  0  0
 59 62  1  0  0  0
 60134  1  0  0  0
 60135  1  0  0  0
 60136  1  0  0  0
 61137  1  0  0  0
 61138  1  0  0  0
 61139  1  0  0  0
 62140  1  0  0  0
 62141  1  0  0  0
 62142  1  0  0  0
 63 65  1  0  0  0
 63143  1  0  0  0
 63144  1  0  0  0
 63145  1  0  0  0
 64146  1  0  0  0
 65147  1  0  0  0
 68 85  1  0  0  0
 71 72  2  0  0  0
 71 74  1  0  0  0
 71148  1  0  0  0
 72 75  1  0  0  0
 72149  1  0  0  0
 73 74  2  0  0  0
 73 76  1  0  0  0
 73150  1  0  0  0
 74 83  1  0  0  0
 75 76  2  0  0  0
 75 81  1  0  0  0
 76 82  1  0  0  0
 77 78  1  0  0  0
 77 79  1  0  0  0
 77151  1  0  0  0
 77152  1  0  0  0
 78 80  1  0  0  0
 78153  1  0  0  0
 78154  1  0  0  0
 79 87  1  0  0  0
 79155  1  0  0  0
 79156  1  0  0  0
 80 87  1  0  0  0
 80157  1  0  0  0
 80158  1  0  0  0
 81 86  1  0  0  0
 81159  1  0  0  0
 81160  1  0  0  0
 82161  1  0  0  0
 82162  1  0  0  0
 82 87  1  0  0  0
 83 88  1  0  0  0
 83163  1  0  0  0
 83164  1  0  0  0
 84 85  1  0  0  0
 84 88  1  0  0  0
 84165  1  0  0  0
 84166  1  0  0  0
 85167  1  0  0  0
 85168  1  0  0  0
 86169  1  0  0  0
 87170  1  0  0  0
 88171  1  0  0  0
 88172  1  0  0  0
M  CHG  2  87   1  88   1
M  ISO  4   1 100  68 101  85 101  86 100
M  END
> <chiral flag>
0

> <version>
0

> <s_m_source_file>
/data/baiqing/PycharmProjects/Reinvent-master-3.2/result/LINK_invent/BTK/process_docking_weight1_custom_sum_contain_oxygen_bond_distance_aromatic_linkinvent_7_9_3/rearranged_h_0126.sdf

> <i_m_source_file_index>
90

> <r_mmod_Potential_Energy-OPLS-2005>
-116.272392272949

> <r_mmod_Stretch_Energy-OPLS-2005>
45.5727424621582

> <r_mmod_Bend_Energy-OPLS-2005>
165.881439208984

> <r_mmod_Torsional_Energy-OPLS-2005>
386.016662597656

> <r_mmod_Improper_Torsional_Energy-OPLS-2005>
22.492712020874

> <r_mmod_Van_der_Waal_Energy-OPLS-2005>
161.039962768555

> <r_mmod_Electrostatic_Energy-OPLS-2005>
-11.9953870773315

> <r_mmod_Solvation_Energy-OPLS-2005>
-906.046875

> <b_mmod_Minimization_Converged-OPLS-2005>
0

> <r_mmod_RMS_Derivative-OPLS-2005>
21.166898727417

$$$$
90
                    3D
 Structure written by MMmdl.
168177  0  0  1  0            999 V2000
  -30.7846  -14.3431   20.6910 C   0  0  0  0  0  0
  -30.4142  -12.2802   19.3981 C   0  0  0  0  0  0
  -29.4853  -12.5293   18.1960 C   0  0  0  0  0  0
  -28.0101  -12.3837   18.6109 C   0  0  0  0  0  0
  -27.6692  -13.2026   19.8829 C   0  0  2  0  0  0
  -28.7057  -12.9491   21.0014 C   0  0  0  0  0  0
  -25.2615  -13.8153   20.5663 C   0  0  0  0  0  0
  -24.1862  -13.0440   20.9174 C   0  0  0  0  0  0
  -24.6409  -11.6906   20.8738 C   0  0  0  0  0  0
  -23.9073  -10.4295   21.0412 C   0  0  0  0  0  0
  -24.3623   -9.4209   21.9188 C   0  0  0  0  0  0
  -23.6294   -8.2244   22.0757 C   0  0  0  0  0  0
  -22.4277   -8.0287   21.3546 C   0  0  0  0  0  0
  -21.9917   -9.0262   20.4648 C   0  0  0  0  0  0
  -22.7247  -10.2139   20.3058 C   0  0  0  0  0  0
  -21.6852   -6.0741   22.5279 C   0  0  0  0  0  0
  -21.4015   -6.5642   23.8213 C   0  0  0  0  0  0
  -21.3659   -5.6793   24.9174 C   0  0  0  0  0  0
  -21.6040   -4.3057   24.7224 C   0  0  0  0  0  0
  -21.8823   -3.8151   23.4345 C   0  0  0  0  0  0
  -21.9193   -4.6969   22.3400 C   0  0  0  0  0  0
  -22.7883  -13.5243   21.1829 C   0  0  0  0  0  0
  -22.1664   -4.2155   21.0978 F   0  0  0  0  0  0
  -21.5626   -3.4540   25.7738 F   0  0  0  0  0  0
  -30.0541  -13.2221   20.4684 N   0  0  0  0  0  0
  -26.3064  -12.9323   20.3389 N   0  0  0  0  0  0
  -25.9334  -11.6484   20.5770 N   0  0  0  0  0  0
  -22.0518  -12.8235   22.0380 N   0  0  0  0  0  0
  -25.4336  -15.1866   20.4027 N   0  0  0  0  0  0
  -31.7760  -14.6538   20.0247 O   0  0  0  0  0  0
  -21.6640   -6.8883   21.4242 O   0  0  0  0  0  0
  -22.3579  -14.5555   20.6680 O   0  0  0  0  0  0
  -24.6107  -31.8698   23.2124 C   0  0  0  0  0  0
  -25.9019  -32.4832   23.8402 C   0  0  1  0  0  0
  -27.2410  -27.4714   20.0850 C   0  0  0  0  0  0
  -25.5896  -33.8631   24.2335 N   0  0  0  0  0  0
  -23.3970  -30.4926   21.5523 C   0  0  2  0  0  0
  -24.8435  -28.9617   20.1143 C   0  0  0  0  0  0
  -22.7386  -29.4660   22.5007 C   0  0  0  0  0  0
  -18.0270  -28.1378   22.8479 C   0  0  0  0  0  0
  -24.1482  -36.7320   23.2634 C   0  0  0  0  0  0
  -25.9217  -30.8455   21.3608 C   0  0  0  0  0  0
  -26.0011  -29.4842   20.7037 C   0  0  0  0  0  0
  -27.2029  -28.7479   20.6813 C   0  0  0  0  0  0
  -26.0674  -26.9512   19.4935 C   0  0  0  0  0  0
  -24.8695  -27.6929   19.5077 C   0  0  0  0  0  0
  -23.6026  -29.8231   20.1668 C   0  0  0  0  0  0
  -25.4107  -36.3114   24.0330 C   0  0  1  0  0  0
  -20.5855  -28.3655   23.1330 C   0  0  2  0  0  0
  -20.6758  -26.9392   22.5436 C   0  0  0  0  0  0
  -19.5758  -26.6386   21.5206 C   0  0  0  0  0  0
  -18.1921  -26.7933   22.1587 C   0  0  0  0  0  0
  -19.1518  -28.8832   23.2901 C   0  0  0  0  0  0
  -18.9449  -30.1438   23.8912 C   0  0  0  0  0  0
  -17.6456  -30.6580   24.0571 C   0  0  0  0  0  0
  -25.9033  -34.9482   23.5129 C   0  0  0  0  0  0
  -16.5346  -29.9087   23.6327 C   0  0  0  0  0  0
  -16.7261  -28.6512   23.0333 C   0  0  0  0  0  0
  -26.4454  -31.6615   25.0727 C   0  0  0  0  0  0
  -25.3714  -31.3767   26.1481 C   0  0  0  0  0  0
  -27.0269  -30.3039   24.6122 C   0  0  0  0  0  0
  -27.6044  -32.4336   25.7467 C   0  0  0  0  0  0
  -27.5591  -37.1802   24.8455 C   0  0  0  0  0  0
  -21.4122  -29.3020   22.3732 N   0  0  0  0  0  0
  -26.4299  -37.3795   23.9407 N   0  0  0  0  0  0
  -24.6609  -31.0821   22.1010 N   0  0  0  0  0  0
  -23.4167  -28.8214   23.3050 O   0  0  0  0  0  0
  -28.4288  -26.7765   20.1007 O   0  0  0  0  0  0
  -26.5589  -34.8925   22.4683 O   0  0  0  0  0  0
  -23.5309  -32.1446   23.7533 O   0  0  0  0  0  0
  -29.9224  -23.3864   20.9117 C   0  0  0  0  0  0
  -28.1248  -23.9476   22.5956 C   0  0  0  0  0  0
  -29.8327  -24.8881   20.5518 C   0  0  0  0  0  0
  -27.6728  -25.2021   21.8260 C   0  0  0  0  0  0
  -28.1608  -19.5688   23.2912 C   0  0  0  0  0  0
  -27.7321  -20.9778   22.8908 C   0  0  0  0  0  0
  -29.6627  -20.5873   21.6932 C   0  0  0  0  0  0
  -28.6729  -22.8491   21.6600 C   0  0  2  0  0  0
  -29.4553  -19.3050   22.5195 C   0  0  2  0  0  0
  -28.3830  -25.3958   20.4636 C   0  0  1  0  0  0
  -31.0709  -16.3213   22.1547 C   0  0  0  0  0  0
  -30.6829  -17.5332   21.2818 C   0  0  0  0  0  0
  -28.9602  -21.6340   22.4378 N   0  0  0  0  0  0
  -30.3922  -15.0949   21.7290 N   0  0  0  0  0  0
  -29.3718  -18.0904   21.6757 N   0  3  0  0  0  0
  -31.4585  -12.3736   19.0932 H   0  0  0  0  0  0
  -30.3056  -11.2562   19.7590 H   0  0  0  0  0  0
  -29.7176  -11.8336   17.3885 H   0  0  0  0  0  0
  -29.6589  -13.5307   17.7981 H   0  0  0  0  0  0
  -27.8134  -11.3255   18.7858 H   0  0  0  0  0  0
  -27.3590  -12.6815   17.7882 H   0  0  0  0  0  0
  -27.7275  -14.2565   19.6103 H   0  0  0  0  0  0
  -28.6585  -11.9111   21.3344 H   0  0  0  0  0  0
  -28.4550  -13.5435   21.8799 H   0  0  0  0  0  0
  -25.2770   -9.5680   22.4762 H   0  0  0  0  0  0
  -24.0005   -7.4637   22.7478 H   0  0  0  0  0  0
  -21.0847   -8.8782   19.8956 H   0  0  0  0  0  0
  -22.3710  -10.9679   19.6167 H   0  0  0  0  0  0
  -21.2013   -7.6151   23.9717 H   0  0  0  0  0  0
  -21.1474   -6.0525   25.9075 H   0  0  0  0  0  0
  -22.0604   -2.7616   23.2844 H   0  0  0  0  0  0
  -22.4116  -11.9880   22.4751 H   0  0  0  0  0  0
  -21.1140  -13.1272   22.2581 H   0  0  0  0  0  0
  -24.6585  -15.8367   20.4804 H   0  0  0  0  0  0
  -26.2712  -15.6125   20.0269 H   0  0  0  0  0  0
  -26.7092  -32.5551   23.1176 H   0  0  0  0  0  0
  -25.0051  -33.9805   25.0482 H   0  0  0  0  0  0
  -22.6838  -31.3078   21.4151 H   0  0  0  0  0  0
  -23.3737  -35.9661   23.3309 H   0  0  0  0  0  0
  -24.3570  -36.8931   22.2047 H   0  0  0  0  0  0
  -23.7252  -37.6530   23.6650 H   0  0  0  0  0  0
  -26.0322  -31.6160   20.5967 H   0  0  0  0  0  0
  -26.8087  -30.8942   21.9807 H   0  0  0  0  0  0
  -28.0996  -29.1485   21.1340 H   0  0  0  0  0  0
  -26.0715  -25.9819   19.0171 H   0  0  0  0  0  0
  -23.9788  -27.2858   19.0499 H   0  0  0  0  0  0
  -23.7054  -30.5986   19.4072 H   0  0  0  0  0  0
  -22.7272  -29.2403   19.8744 H   0  0  0  0  0  0
  -25.1281  -36.1976   25.0825 H   0  0  0  0  0  0
  -20.9938  -28.3234   24.1452 H   0  0  0  0  0  0
  -20.5644  -26.2261   23.3620 H   0  0  0  0  0  0
  -21.6637  -26.7435   22.1254 H   0  0  0  0  0  0
  -19.6924  -25.6300   21.1230 H   0  0  0  0  0  0
  -19.6729  -27.3194   20.6740 H   0  0  0  0  0  0
  -17.4212  -26.6706   21.3960 H   0  0  0  0  0  0
  -18.0295  -26.0058   22.8961 H   0  0  0  0  0  0
  -19.7931  -30.7244   24.2284 H   0  0  0  0  0  0
  -17.5019  -31.6256   24.5177 H   0  0  0  0  0  0
  -15.5349  -30.2997   23.7650 H   0  0  0  0  0  0
  -15.8659  -28.0851   22.7020 H   0  0  0  0  0  0
  -24.5981  -30.6969   25.7892 H   0  0  0  0  0  0
  -24.8770  -32.2918   26.4745 H   0  0  0  0  0  0
  -25.8069  -30.9151   27.0348 H   0  0  0  0  0  0
  -26.2819  -29.6821   24.1139 H   0  0  0  0  0  0
  -27.3974  -29.7263   25.4600 H   0  0  0  0  0  0
  -27.8682  -30.4332   23.9311 H   0  0  0  0  0  0
  -27.2687  -33.3646   26.2047 H   0  0  0  0  0  0
  -28.3835  -32.6882   25.0271 H   0  0  0  0  0  0
  -28.0732  -31.8463   26.5374 H   0  0  0  0  0  0
  -28.2615  -38.0089   24.7487 H   0  0  0  0  0  0
  -28.1077  -36.2620   24.6285 H   0  0  0  0  0  0
  -27.2317  -37.1479   25.8861 H   0  0  0  0  0  0
  -20.9274  -29.8731   21.6951 H   0  0  0  0  0  0
  -26.0187  -38.2871   24.1414 H   0  0  0  0  0  0
  -30.8243  -23.2382   21.5077 H   0  0  0  0  0  0
  -30.0677  -22.8123   19.9964 H   0  0  0  0  0  0
  -27.2863  -23.6041   23.1997 H   0  0  0  0  0  0
  -28.9063  -24.2267   23.3047 H   0  0  0  0  0  0
  -30.3607  -25.0754   19.6165 H   0  0  0  0  0  0
  -30.3575  -25.4682   21.3127 H   0  0  0  0  0  0
  -27.8441  -26.0682   22.4659 H   0  0  0  0  0  0
  -26.5955  -25.1592   21.6611 H   0  0  0  0  0  0
  -27.3672  -18.8501   23.0827 H   0  0  0  0  0  0
  -28.3522  -19.5294   24.3646 H   0  0  0  0  0  0
  -27.2574  -21.4970   23.7242 H   0  0  0  0  0  0
  -27.0073  -20.9209   22.0756 H   0  0  0  0  0  0
  -29.2170  -20.4846   20.7017 H   0  0  0  0  0  0
  -30.7217  -20.8153   21.5608 H   0  0  0  0  0  0
  -27.9120  -22.6162   20.9113 H   0  0  0  0  0  0
  -30.2632  -19.1965   23.2463 H   0  0  0  0  0  0
  -27.8712  -24.8243   19.6875 H   0  0  0  0  0  0
  -30.8614  -16.5123   23.2082 H   0  0  0  0  0  0
  -32.1511  -16.1710   22.0987 H   0  0  0  0  0  0
  -30.6450  -17.2495   20.2289 H   0  0  0  0  0  0
  -31.4552  -18.3013   21.3458 H   0  0  0  0  0  0
  -29.6288  -14.7420   22.2879 H   0  0  0  0  0  0
  -28.8408  -18.3039   20.8469 H   0  0  0  0  0  0
  -28.8763  -17.3721   22.1773 H   0  0  0  0  0  0
  1 25  1  0  0  0
  1 30  2  0  0  0
  1 84  1  0  0  0
  2  3  1  0  0  0
  2 25  1  0  0  0
  2 86  1  0  0  0
  2 87  1  0  0  0
  3  4  1  0  0  0
  3 88  1  0  0  0
  3 89  1  0  0  0
  4  5  1  0  0  0
  4 90  1  0  0  0
  4 91  1  0  0  0
  5  6  1  0  0  0
  5 26  1  0  0  0
  5 92  1  0  0  0
  6 25  1  0  0  0
  6 93  1  0  0  0
  6 94  1  0  0  0
  7  8  2  0  0  0
  7 26  1  0  0  0
  7 29  1  0  0  0
  8  9  1  0  0  0
  8 22  1  0  0  0
  9 10  1  0  0  0
  9 27  2  0  0  0
 10 11  2  0  0  0
 10 15  1  0  0  0
 11 12  1  0  0  0
 11 95  1  0  0  0
 12 13  2  0  0  0
 12 96  1  0  0  0
 13 14  1  0  0  0
 13 31  1  0  0  0
 14 15  2  0  0  0
 14 97  1  0  0  0
 15 98  1  0  0  0
 16 17  2  0  0  0
 16 21  1  0  0  0
 16 31  1  0  0  0
 17 18  1  0  0  0
 17 99  1  0  0  0
 18 19  2  0  0  0
 18100  1  0  0  0
 19 20  1  0  0  0
 19 24  1  0  0  0
 20 21  2  0  0  0
 20101  1  0  0  0
 21 23  1  0  0  0
 22 28  1  0  0  0
 22 32  2  0  0  0
 26 27  1  0  0  0
 28102  1  0  0  0
 28103  1  0  0  0
 29104  1  0  0  0
 29105  1  0  0  0
 33 34  1  0  0  0
 33 66  1  0  0  0
 33 70  2  0  0  0
 34 36  1  0  0  0
 34 59  1  0  0  0
 34106  1  0  0  0
 35 44  2  0  0  0
 35 45  1  0  0  0
 35 68  1  0  0  0
 36 56  1  0  0  0
 36107  1  0  0  0
 37 39  1  0  0  0
 37 47  1  0  0  0
 37 66  1  0  0  0
 37108  1  0  0  0
 38 43  2  0  0  0
 38 46  1  0  0  0
 38 47  1  0  0  0
 39 64  1  0  0  0
 39 67  2  0  0  0
 40 52  1  0  0  0
 40 53  2  0  0  0
 40 58  1  0  0  0
 41109  1  0  0  0
 41110  1  0  0  0
 41111  1  0  0  0
 41 48  1  0  0  0
 42 43  1  0  0  0
 42 66  1  0  0  0
 42112  1  0  0  0
 42113  1  0  0  0
 43 44  1  0  0  0
 44114  1  0  0  0
 45 46  2  0  0  0
 45115  1  0  0  0
 46116  1  0  0  0
 47117  1  0  0  0
 47118  1  0  0  0
 48 56  1  0  0  0
 48 65  1  0  0  0
 48119  1  0  0  0
 49 50  1  0  0  0
 49 53  1  0  0  0
 49 64  1  0  0  0
 49120  1  0  0  0
 50 51  1  0  0  0
 50121  1  0  0  0
 50122  1  0  0  0
 51 52  1  0  0  0
 51123  1  0  0  0
 51124  1  0  0  0
 52125  1  0  0  0
 52126  1  0  0  0
 53 54  1  0  0  0
 54 55  2  0  0  0
 54127  1  0  0  0
 55 57  1  0  0  0
 55128  1  0  0  0
 56 69  2  0  0  0
 57 58  2  0  0  0
 57129  1  0  0  0
 58130  1  0  0  0
 59 60  1  0  0  0
 59 61  1  0  0  0
 59 62  1  0  0  0
 60131  1  0  0  0
 60132  1  0  0  0
 60133  1  0  0  0
 61134  1  0  0  0
 61135  1  0  0  0
 61136  1  0  0  0
 62137  1  0  0  0
 62138  1  0  0  0
 62139  1  0  0  0
 63 65  1  0  0  0
 63140  1  0  0  0
 63141  1  0  0  0
 63142  1  0  0  0
 64143  1  0  0  0
 65144  1  0  0  0
 68 80  1  0  0  0
 71 73  1  0  0  0
 71 78  1  0  0  0
 71145  1  0  0  0
 71146  1  0  0  0
 72 74  1  0  0  0
 72 78  1  0  0  0
 72147  1  0  0  0
 72148  1  0  0  0
 73 80  1  0  0  0
 73149  1  0  0  0
 73150  1  0  0  0
 74 80  1  0  0  0
 74151  1  0  0  0
 74152  1  0  0  0
 75 76  1  0  0  0
 75 79  1  0  0  0
 75153  1  0  0  0
 75154  1  0  0  0
 76155  1  0  0  0
 76156  1  0  0  0
 76 83  1  0  0  0
 77 79  1  0  0  0
 77 83  1  0  0  0
 77157  1  0  0  0
 77158  1  0  0  0
 78 83  1  0  0  0
 78159  1  0  0  0
 79 85  1  0  0  0
 79160  1  0  0  0
 80161  1  0  0  0
 81 82  1  0  0  0
 81 84  1  0  0  0
 81162  1  0  0  0
 81163  1  0  0  0
 82 85  1  0  0  0
 82164  1  0  0  0
 82165  1  0  0  0
 84166  1  0  0  0
 85167  1  0  0  0
 85168  1  0  0  0
M  CHG  1  85   1
M  ISO  4   1 100  68 101  80 101  84 100
M  END
> <chiral flag>
0

> <version>
0

> <s_m_source_file>
/data/baiqing/PycharmProjects/Reinvent-master-3.2/result/LINK_invent/BTK/process_docking_weight1_custom_sum_contain_oxygen_bond_distance_aromatic_linkinvent_7_9_3/rearranged_h_0126.sdf

> <i_m_source_file_index>
91

> <r_mmod_Potential_Energy-OPLS-2005>
-171.910369873047

> <r_mmod_Stretch_Energy-OPLS-2005>
33.4086685180664

> <r_mmod_Bend_Energy-OPLS-2005>
109.267692565918

> <r_mmod_Torsional_Energy-OPLS-2005>
355.682312011719

> <r_mmod_Improper_Torsional_Energy-OPLS-2005>
2.21258449554443

> <r_mmod_Van_der_Waal_Energy-OPLS-2005>
149.971313476562

> <r_mmod_Electrostatic_Energy-OPLS-2005>
-350.424896240234

> <r_mmod_Solvation_Energy-OPLS-2005>
-479.660461425781

> <b_mmod_Minimization_Converged-OPLS-2005>
0

> <r_mmod_RMS_Derivative-OPLS-2005>
1.20705235004425

$$$$
91
                    3D
 Structure written by MMmdl.
176185  0  0  1  0            999 V2000
  -29.0119  -16.1446   20.7271 C   0  0  0  0  0  0
  -30.1112  -13.6731   19.7216 C   0  0  0  0  0  0
  -29.4896  -12.8872   18.4930 C   0  0  0  0  0  0
  -28.1208  -12.2916   18.8423 C   0  0  0  0  0  0
  -27.4416  -13.2572   19.8226 C   0  0  2  0  0  0
  -28.2573  -13.6159   21.0574 C   0  0  0  0  0  0
  -25.1544  -13.8062   20.5641 C   0  0  0  0  0  0
  -24.1058  -13.0268   20.9289 C   0  0  0  0  0  0
  -24.5776  -11.6774   20.8768 C   0  0  0  0  0  0
  -23.8693  -10.4189   21.0492 C   0  0  0  0  0  0
  -24.3434   -9.4162   21.9209 C   0  0  0  0  0  0
  -23.6205   -8.2145   22.0756 C   0  0  0  0  0  0
  -22.4162   -8.0174   21.3562 C   0  0  0  0  0  0
  -21.9733   -9.0088   20.4634 C   0  0  0  0  0  0
  -22.6964  -10.1998   20.3074 C   0  0  0  0  0  0
  -21.6819   -6.0672   22.5293 C   0  0  0  0  0  0
  -21.3978   -6.5605   23.8218 C   0  0  0  0  0  0
  -21.3637   -5.6769   24.9189 C   0  0  0  0  0  0
  -21.6054   -4.3035   24.7247 C   0  0  0  0  0  0
  -21.8824   -3.8111   23.4373 C   0  0  0  0  0  0
  -21.9190   -4.6913   22.3426 C   0  0  0  0  0  0
  -22.7202  -13.5104   21.2017 C   0  0  0  0  0  0
  -22.1664   -4.2120   21.1001 F   0  0  0  0  0  0
  -21.5634   -3.4520   25.7760 F   0  0  0  0  0  0
  -29.1120  -14.6382   20.5149 N   0  0  0  0  0  0
  -26.1566  -12.9109   20.2726 N   0  0  0  0  0  0
  -25.8572  -11.6286   20.5487 N   0  0  0  0  0  0
  -21.9957  -12.8117   22.0644 N   0  0  0  0  0  0
  -25.3345  -15.1831   20.4365 N   0  0  0  0  0  0
  -30.2726  -16.3231   20.5150 O   0  0  0  0  0  0
  -21.6572   -6.8763   21.4235 O   0  0  0  0  0  0
  -22.3007  -14.5489   20.6932 O   0  0  0  0  0  0
  -24.6362  -31.9145   23.2220 C   0  0  0  0  0  0
  -25.9189  -32.5083   23.8578 C   0  0  1  0  0  0
  -27.1883  -27.4406   20.0375 C   0  0  0  0  0  0
  -25.5997  -33.8841   24.2562 N   0  0  0  0  0  0
  -23.4528  -30.5317   21.5989 C   0  0  2  0  0  0
  -24.8531  -29.0390   20.0898 C   0  0  0  0  0  0
  -22.9775  -29.4381   22.5667 C   0  0  0  0  0  0
  -18.3861  -27.2864   23.1116 C   0  0  0  0  0  0
  -24.1476  -36.7337   23.2632 C   0  0  0  0  0  0
  -25.9640  -30.8407   21.4039 C   0  0  0  0  0  0
  -26.0071  -29.4684   20.7554 C   0  0  0  0  0  0
  -27.1587  -28.6463   20.7829 C   0  0  0  0  0  0
  -26.0888  -27.1730   19.2050 C   0  0  0  0  0  0
  -24.8826  -27.8753   19.3149 C   0  0  0  0  0  0
  -23.6276  -29.9208   20.1846 C   0  0  0  0  0  0
  -25.4092  -36.3241   24.0376 C   0  0  1  0  0  0
  -21.2240  -27.7930   22.8494 C   0  0  2  0  0  0
  -21.7011  -26.7159   21.2172 C   0  0  0  0  0  0
  -19.9675  -25.4344   20.6935 C   0  0  0  0  0  0
  -18.5395  -25.7910   22.1065 C   0  0  0  0  0  0
  -19.5965  -28.1282   23.4837 C   0  0  0  0  0  0
  -19.3012  -29.4978   23.9479 C   0  0  0  0  0  0
  -18.0114  -30.1199   23.9936 C   0  0  0  0  0  0
  -25.9031  -34.9606   23.5224 C   0  0  0  0  0  0
  -16.9028  -29.3676   23.5908 C   0  0  0  0  0  0
  -17.0991  -28.0050   23.1953 C   0  0  0  0  0  0
  -26.4498  -31.6697   25.0853 C   0  0  0  0  0  0
  -25.3703  -31.3779   26.1538 C   0  0  0  0  0  0
  -27.0327  -30.3115   24.6258 C   0  0  0  0  0  0
  -27.6084  -32.4340   25.7637 C   0  0  0  0  0  0
  -27.5585  -37.1839   24.8469 C   0  0  0  0  0  0
  -21.7216  -29.1098   22.5032 N   0  0  0  0  0  0
  -26.4289  -37.3895   23.9437 N   0  0  0  0  0  0
  -24.7014  -31.1342   22.1119 N   0  0  0  0  0  0
  -23.7305  -28.8375   23.3249 O   0  0  0  0  0  0
  -28.2589  -26.5705   20.1300 O   0  0  0  0  0  0
  -26.5537  -34.8985   22.4771 O   0  0  0  0  0  0
  -23.5450  -32.1810   23.7540 O   0  0  0  0  0  0
  -25.1119  -23.1155   19.3172 C   0  0  0  0  0  0
  -27.0658  -21.7121   19.1629 C   0  0  0  0  0  0
  -25.9346  -24.2213   19.5661 C   0  0  0  0  0  0
  -27.8916  -22.8487   19.3279 C   0  0  0  0  0  0
  -25.6579  -21.8361   19.1843 C   0  0  0  0  0  0
  -27.3526  -24.1462   19.4930 C   0  0  0  0  0  0
  -21.9516  -23.5617   21.8457 C   0  0  0  0  0  0
  -23.2462  -23.4870   23.4104 C   0  0  0  0  0  0
  -23.6579  -22.4733   22.0840 C   0  0  1  0  0  0
  -20.9726  -25.2056   22.6843 C   0  0  1  0  0  0
  -18.2651  -27.6494   20.2044 C   0  0  0  0  0  0
  -24.7196  -20.6394   19.0643 C   0  0  0  0  0  0
  -28.3267  -25.3626   19.3248 C   0  0  0  0  0  0
  -26.6909  -19.0780   21.5264 C   0  0  0  0  0  0
  -24.8364  -20.4832   21.6241 C   0  0  2  0  0  0
  -19.6515  -27.5946   21.0625 C   0  0  1  0  0  0
  -27.7279  -17.3308   21.0188 N   0  0  0  0  0  0
  -22.4499  -24.9573   23.2984 N   0  3  0  0  0  0
  -24.2329  -20.0575   20.3457 N   0  3  0  0  0  0
  -19.6539  -29.0580   21.0391 O   0  0  0  0  0  0
  -30.9289  -14.2763   19.3266 H   0  0  0  0  0  0
  -30.6029  -12.9818   20.4100 H   0  0  0  0  0  0
  -30.1709  -12.1162   18.1370 H   0  0  0  0  0  0
  -29.3570  -13.5863   17.6680 H   0  0  0  0  0  0
  -28.2534  -11.3151   19.3115 H   0  0  0  0  0  0
  -27.5102  -12.1369   17.9504 H   0  0  0  0  0  0
  -27.2703  -14.1442   19.2071 H   0  0  0  0  0  0
  -28.7571  -12.7642   21.5229 H   0  0  0  0  0  0
  -27.6495  -14.0784   21.8375 H   0  0  0  0  0  0
  -25.2594   -9.5699   22.4752 H   0  0  0  0  0  0
  -23.9961   -7.4540   22.7464 H   0  0  0  0  0  0
  -21.0678   -8.8547   19.8950 H   0  0  0  0  0  0
  -22.3409  -10.9521   19.6181 H   0  0  0  0  0  0
  -21.1944   -7.6113   23.9712 H   0  0  0  0  0  0
  -21.1453   -6.0500   25.9091 H   0  0  0  0  0  0
  -22.0627   -2.7581   23.2877 H   0  0  0  0  0  0
  -22.3621  -11.9759   22.4934 H   0  0  0  0  0  0
  -21.0616  -13.1140   22.2985 H   0  0  0  0  0  0
  -24.5884  -15.8343   20.6518 H   0  0  0  0  0  0
  -26.2119  -15.6459   20.2282 H   0  0  0  0  0  0
  -26.7315  -32.5818   23.1375 H   0  0  0  0  0  0
  -25.0106  -34.0089   25.0666 H   0  0  0  0  0  0
  -22.6791  -31.2976   21.5364 H   0  0  0  0  0  0
  -23.3790  -35.9612   23.3306 H   0  0  0  0  0  0
  -24.3574  -36.8913   22.2042 H   0  0  0  0  0  0
  -23.7167  -37.6520   23.6610 H   0  0  0  0  0  0
  -26.0900  -31.6166   20.6481 H   0  0  0  0  0  0
  -26.8437  -30.8835   22.0286 H   0  0  0  0  0  0
  -28.0213  -28.9336   21.3645 H   0  0  0  0  0  0
  -26.1510  -26.4047   18.4516 H   0  0  0  0  0  0
  -24.0298  -27.5990   18.7112 H   0  0  0  0  0  0
  -23.6934  -30.7214   19.4448 H   0  0  0  0  0  0
  -22.7441  -29.3536   19.9114 H   0  0  0  0  0  0
  -25.1264  -36.2115   25.0862 H   0  0  0  0  0  0
  -21.7802  -27.4350   23.7167 H   0  0  0  0  0  0
  -22.6641  -26.2080   21.2497 H   0  0  0  0  0  0
  -22.0076  -27.3565   20.3842 H   0  0  0  0  0  0
  -20.0804  -24.3646   20.5556 H   0  0  0  0  0  0
  -19.6547  -25.6132   19.6582 H   0  0  0  0  0  0
  -17.5669  -25.6510   21.6285 H   0  0  0  0  0  0
  -18.4611  -24.9618   22.8033 H   0  0  0  0  0  0
  -20.1438  -30.1239   24.2023 H   0  0  0  0  0  0
  -17.9120  -31.1533   24.3065 H   0  0  0  0  0  0
  -15.9156  -29.8159   23.5699 H   0  0  0  0  0  0
  -16.2180  -27.4786   22.8480 H   0  0  0  0  0  0
  -24.5904  -30.7147   25.7807 H   0  0  0  0  0  0
  -24.8847  -32.2912   26.4951 H   0  0  0  0  0  0
  -25.7962  -30.8932   27.0325 H   0  0  0  0  0  0
  -26.2902  -29.6910   24.1245 H   0  0  0  0  0  0
  -27.4001  -29.7326   25.4743 H   0  0  0  0  0  0
  -27.8787  -30.4428   23.9526 H   0  0  0  0  0  0
  -27.2757  -33.3637   26.2246 H   0  0  0  0  0  0
  -28.3854  -32.6900   25.0438 H   0  0  0  0  0  0
  -28.0768  -31.8415   26.5496 H   0  0  0  0  0  0
  -28.2623  -38.0126   24.7572 H   0  0  0  0  0  0
  -28.1074  -36.2672   24.6226 H   0  0  0  0  0  0
  -27.2311  -37.1395   25.8874 H   0  0  0  0  0  0
  -21.1135  -29.6015   21.8502 H   0  0  0  0  0  0
  -26.0198  -38.2974   24.1451 H   0  0  0  0  0  0
  -24.0385  -23.2489   19.2924 H   0  0  0  0  0  0
  -27.5211  -20.7534   18.9917 H   0  0  0  0  0  0
  -25.3573  -25.0911   19.7803 H   0  0  0  0  0  0
  -28.9618  -22.7171   19.2946 H   0  0  0  0  0  0
  -21.1636  -22.8108   21.7841 H   0  0  0  0  0  0
  -22.1065  -23.8526   20.8049 H   0  0  0  0  0  0
  -24.1732  -23.7150   23.9339 H   0  0  0  0  0  0
  -22.6773  -22.8799   24.1159 H   0  0  0  0  0  0
  -24.4128  -23.1288   21.6694 H   0  0  0  0  0  0
  -20.3710  -24.9102   23.5438 H   0  0  0  0  0  0
  -17.9042  -26.7117   19.7829 H   0  0  0  0  0  0
  -18.3426  -28.2874   19.3164 H   0  0  0  0  0  0
  -17.4187  -28.0775   20.7378 H   0  0  0  0  0  0
  -25.1961  -19.8602   18.4675 H   0  0  0  0  0  0
  -23.8492  -20.9504   18.4902 H   0  0  0  0  0  0
  -28.3455  -25.6115   18.2631 H   0  0  0  0  0  0
  -29.3356  -24.9983   19.5272 H   0  0  0  0  0  0
  -26.9038  -19.0310   22.5949 H   0  0  0  0  0  0
  -27.4320  -19.7852   21.1526 H   0  0  0  0  0  0
  -24.3010  -19.8909   22.3702 H   0  0  0  0  0  0
  -20.0999  -27.6795   20.0513 H   0  0  0  0  0  0
  -28.4517  -17.9553   20.6781 H   0  0  0  0  0  0
  -23.0682  -25.5595   22.7858 H   0  0  0  0  0  0
  -22.4146  -25.3161   24.2443 H   0  0  0  0  0  0
  -24.3962  -19.0675   20.2708 H   0  0  0  0  0  0
  -23.2319  -20.1646   20.4063 H   0  0  0  0  0  0
  -19.1140  -29.3242   21.7820 H   0  0  0  0  0  0
  1 25  1  0  0  0
  1 30  2  0  0  0
  1 87  1  0  0  0
  2  3  1  0  0  0
  2 25  1  0  0  0
  2 91  1  0  0  0
  2 92  1  0  0  0
  3  4  1  0  0  0
  3 93  1  0  0  0
  3 94  1  0  0  0
  4  5  1  0  0  0
  4 95  1  0  0  0
  4 96  1  0  0  0
  5  6  1  0  0  0
  5 26  1  0  0  0
  5 97  1  0  0  0
  6 25  1  0  0  0
  6 98  1  0  0  0
  6 99  1  0  0  0
  7  8  2  0  0  0
  7 26  1  0  0  0
  7 29  1  0  0  0
  8  9  1  0  0  0
  8 22  1  0  0  0
  9 10  1  0  0  0
  9 27  2  0  0  0
 10 11  2  0  0  0
 10 15  1  0  0  0
 11 12  1  0  0  0
 11100  1  0  0  0
 12 13  2  0  0  0
 12101  1  0  0  0
 13 14  1  0  0  0
 13 31  1  0  0  0
 14 15  2  0  0  0
 14102  1  0  0  0
 15103  1  0  0  0
 16 17  2  0  0  0
 16 21  1  0  0  0
 16 31  1  0  0  0
 17 18  1  0  0  0
 17104  1  0  0  0
 18 19  2  0  0  0
 18105  1  0  0  0
 19 20  1  0  0  0
 19 24  1  0  0  0
 20 21  2  0  0  0
 20106  1  0  0  0
 21 23  1  0  0  0
 22 28  1  0  0  0
 22 32  2  0  0  0
 26 27  1  0  0  0
 28107  1  0  0  0
 28108  1  0  0  0
 29109  1  0  0  0
 29110  1  0  0  0
 33 34  1  0  0  0
 33 66  1  0  0  0
 33 70  2  0  0  0
 34 36  1  0  0  0
 34 59  1  0  0  0
 34111  1  0  0  0
 35 44  2  0  0  0
 35 45  1  0  0  0
 35 68  1  0  0  0
 36 56  1  0  0  0
 36112  1  0  0  0
 37 39  1  0  0  0
 37 47  1  0  0  0
 37 66  1  0  0  0
 37113  1  0  0  0
 38 43  2  0  0  0
 38 46  1  0  0  0
 38 47  1  0  0  0
 39 64  1  0  0  0
 39 67  2  0  0  0
 40 52  1  0  0  0
 40 53  2  0  0  0
 40 58  1  0  0  0
 41114  1  0  0  0
 41115  1  0  0  0
 41116  1  0  0  0
 41 48  1  0  0  0
 42 43  1  0  0  0
 42 66  1  0  0  0
 42117  1  0  0  0
 42118  1  0  0  0
 43 44  1  0  0  0
 44119  1  0  0  0
 45 46  2  0  0  0
 45120  1  0  0  0
 46121  1  0  0  0
 47122  1  0  0  0
 47123  1  0  0  0
 48 56  1  0  0  0
 48 65  1  0  0  0
 48124  1  0  0  0
 49 50  1  0  0  0
 49 53  1  0  0  0
 49 64  1  0  0  0
 49125  1  0  0  0
 50 51  1  0  0  0
 50126  1  0  0  0
 50127  1  0  0  0
 51 52  1  0  0  0
 51128  1  0  0  0
 51129  1  0  0  0
 52130  1  0  0  0
 52131  1  0  0  0
 53 54  1  0  0  0
 54 55  2  0  0  0
 54132  1  0  0  0
 55 57  1  0  0  0
 55133  1  0  0  0
 56 69  2  0  0  0
 57 58  2  0  0  0
 57134  1  0  0  0
 58135  1  0  0  0
 59 60  1  0  0  0
 59 61  1  0  0  0
 59 62  1  0  0  0
 60136  1  0  0  0
 60137  1  0  0  0
 60138  1  0  0  0
 61139  1  0  0  0
 61140  1  0  0  0
 61141  1  0  0  0
 62142  1  0  0  0
 62143  1  0  0  0
 62144  1  0  0  0
 63 65  1  0  0  0
 63145  1  0  0  0
 63146  1  0  0  0
 63147  1  0  0  0
 64148  1  0  0  0
 65149  1  0  0  0
 68 83  1  0  0  0
 71 73  2  0  0  0
 71 75  1  0  0  0
 71150  1  0  0  0
 72 74  1  0  0  0
 72 75  2  0  0  0
 72151  1  0  0  0
 73 76  1  0  0  0
 73152  1  0  0  0
 74 76  2  0  0  0
 74153  1  0  0  0
 75 82  1  0  0  0
 76 83  1  0  0  0
 77154  1  0  0  0
 77155  1  0  0  0
 77 79  1  0  0  0
 77 80  1  0  0  0
 78 79  1  0  0  0
 78 88  1  0  0  0
 78156  1  0  0  0
 78157  1  0  0  0
 79 85  1  0  0  0
 79158  1  0  0  0
 80 86  1  0  0  0
 80 88  1  0  0  0
 80159  1  0  0  0
 81160  1  0  0  0
 81161  1  0  0  0
 81162  1  0  0  0
 81 86  1  0  0  0
 82 89  1  0  0  0
 82163  1  0  0  0
 82164  1  0  0  0
 83165  1  0  0  0
 83166  1  0  0  0
 84 87  1  0  0  0
 84167  1  0  0  0
 84168  1  0  0  0
 84 85  1  0  0  0
 85 89  1  0  0  0
 85169  1  0  0  0
 86 90  1  0  0  0
 86170  1  0  0  0
 87171  1  0  0  0
 88172  1  0  0  0
 88173  1  0  0  0
 89174  1  0  0  0
 89175  1  0  0  0
 90176  1  0  0  0
M  CHG  2  88   1  89   1
M  ISO  4   1 100  68 101  83 101  87 100
M  END
> <chiral flag>
0

> <version>
0

> <s_m_source_file>
/data/baiqing/PycharmProjects/Reinvent-master-3.2/result/LINK_invent/BTK/process_docking_weight1_custom_sum_contain_oxygen_bond_distance_aromatic_linkinvent_7_9_3/rearranged_h_0126.sdf

> <i_m_source_file_index>
92

> <r_mmod_Potential_Energy-OPLS-2005>
13884.7958984375

> <r_mmod_Stretch_Energy-OPLS-2005>
7812.33251953125

> <r_mmod_Bend_Energy-OPLS-2005>
2003.90319824219

> <r_mmod_Torsional_Energy-OPLS-2005>
428.722930908203

> <r_mmod_Improper_Torsional_Energy-OPLS-2005>
18.1225471496582

> <r_mmod_Van_der_Waal_Energy-OPLS-2005>
1777.2255859375

> <r_mmod_Electrostatic_Energy-OPLS-2005>
-118.700798034668

> <r_mmod_Solvation_Energy-OPLS-2005>
-961.8857421875

> <b_mmod_Minimization_Converged-OPLS-2005>
0

> <r_mmod_RMS_Derivative-OPLS-2005>
12.1839828491211

$$$$
92
                    3D
 Structure written by MMmdl.
154162  0  0  1  0            999 V2000
  -30.5092  -14.9229   20.4493 C   0  0  0  0  0  0
  -30.4565  -12.5722   19.4947 C   0  0  0  0  0  0
  -29.5284  -12.5418   18.2555 C   0  0  0  0  0  0
  -28.0587  -12.3266   18.6685 C   0  0  0  0  0  0
  -27.6400  -13.2396   19.8496 C   0  0  2  0  0  0
  -28.6834  -13.2136   20.9886 C   0  0  0  0  0  0
  -25.2473  -13.8181   20.5637 C   0  0  0  0  0  0
  -24.1794  -13.0429   20.9222 C   0  0  0  0  0  0
  -24.6404  -11.6916   20.8763 C   0  0  0  0  0  0
  -23.9080  -10.4293   21.0416 C   0  0  0  0  0  0
  -24.3623   -9.4206   21.9191 C   0  0  0  0  0  0
  -23.6293   -8.2247   22.0760 C   0  0  0  0  0  0
  -22.4275   -8.0288   21.3551 C   0  0  0  0  0  0
  -21.9914   -9.0263   20.4653 C   0  0  0  0  0  0
  -22.7252  -10.2137   20.3064 C   0  0  0  0  0  0
  -21.6854   -6.0736   22.5277 C   0  0  0  0  0  0
  -21.4015   -6.5637   23.8212 C   0  0  0  0  0  0
  -21.3660   -5.6791   24.9174 C   0  0  0  0  0  0
  -21.6047   -4.3055   24.7223 C   0  0  0  0  0  0
  -21.8818   -3.8146   23.4344 C   0  0  0  0  0  0
  -21.9192   -4.6962   22.3400 C   0  0  0  0  0  0
  -22.7818  -13.5218   21.1873 C   0  0  0  0  0  0
  -22.1662   -4.2150   21.0977 F   0  0  0  0  0  0
  -21.5630   -3.4538   25.7735 F   0  0  0  0  0  0
  -29.9694  -13.6390   20.4122 N   0  0  0  0  0  0
  -26.2925  -12.9412   20.3259 N   0  0  0  0  0  0
  -25.9340  -11.6553   20.5763 N   0  0  0  0  0  0
  -22.0456  -12.8220   22.0429 N   0  0  0  0  0  0
  -25.4074  -15.1885   20.3899 N   0  0  0  0  0  0
  -31.6825  -15.0779   20.0951 O   0  0  0  0  0  0
  -21.6645   -6.8879   21.4241 O   0  0  0  0  0  0
  -22.3509  -14.5524   20.6711 O   0  0  0  0  0  0
  -24.6436  -31.8449   23.1893 C   0  0  0  0  0  0
  -25.9214  -32.4698   23.8278 C   0  0  1  0  0  0
  -27.2209  -27.1439   20.1491 C   0  0  0  0  0  0
  -25.5966  -33.8502   24.2204 N   0  0  0  0  0  0
  -23.4463  -30.4655   21.5348 C   0  0  2  0  0  0
  -24.8962  -28.8944   20.1110 C   0  0  0  0  0  0
  -22.7567  -29.4553   22.4858 C   0  0  0  0  0  0
  -18.0309  -28.1389   22.8479 C   0  0  0  0  0  0
  -24.1495  -36.7256   23.2640 C   0  0  0  0  0  0
  -26.0026  -30.7215   21.3869 C   0  0  0  0  0  0
  -26.0743  -29.3338   20.7277 C   0  0  0  0  0  0
  -27.2377  -28.4760   20.7280 C   0  0  0  0  0  0
  -26.0133  -26.8045   19.4971 C   0  0  0  0  0  0
  -24.8786  -27.6426   19.4801 C   0  0  0  0  0  0
  -23.6727  -29.7963   20.1536 C   0  0  0  0  0  0
  -25.4124  -36.3032   24.0317 C   0  0  1  0  0  0
  -20.5922  -28.3719   23.1235 C   0  0  2  0  0  0
  -20.6794  -26.9422   22.5401 C   0  0  0  0  0  0
  -19.5767  -26.6378   21.5209 C   0  0  0  0  0  0
  -18.1947  -26.7930   22.1620 C   0  0  0  0  0  0
  -19.1566  -28.8871   23.2850 C   0  0  0  0  0  0
  -18.9479  -30.1466   23.8878 C   0  0  0  0  0  0
  -17.6474  -30.6585   24.0557 C   0  0  0  0  0  0
  -25.9073  -34.9406   23.5066 C   0  0  0  0  0  0
  -16.5367  -29.9076   23.6332 C   0  0  0  0  0  0
  -16.7293  -28.6493   23.0359 C   0  0  0  0  0  0
  -26.4539  -31.6556   25.0712 C   0  0  0  0  0  0
  -25.3727  -31.3739   26.1408 C   0  0  0  0  0  0
  -27.0409  -30.2954   24.6284 C   0  0  0  0  0  0
  -27.6072  -32.4315   25.7501 C   0  0  0  0  0  0
  -27.5577  -37.1786   24.8466 C   0  0  0  0  0  0
  -21.4260  -29.3049   22.3609 N   0  0  0  0  0  0
  -26.4291  -37.3741   23.9404 N   0  0  0  0  0  0
  -24.7171  -31.0315   22.0920 N   0  0  0  0  0  0
  -23.4213  -28.8094   23.3000 O   0  0  0  0  0  0
  -28.2814  -26.1662   20.2093 O   0  0  0  0  0  0
  -26.5649  -34.8904   22.4637 O   0  0  0  0  0  0
  -23.5559  -32.1325   23.7118 O   0  0  0  0  0  0
  -28.1790  -19.5710   21.3322 C   0  0  0  0  0  0
  -30.2781  -18.5195   19.9865 C   0  0  0  0  0  0
  -28.4425  -18.1543   21.4261 C   0  0  0  0  0  0
  -29.5205  -17.5248   20.7144 C   0  0  0  0  0  0
  -28.9436  -20.4830   20.5611 C   0  0  0  0  0  0
  -26.1820  -17.8838   22.7002 C   0  0  0  0  0  0
  -27.5518  -17.2915   22.3276 C   0  0  0  0  0  0
  -29.0303  -23.3194   20.3044 C   0  0  0  0  0  0
  -27.9849  -24.6385   20.1608 C   0  0  0  0  0  0
  -30.0135  -19.9049   19.9150 N   0  0  0  0  0  0
  -29.6421  -15.9912   20.7709 N   0  0  0  0  0  0
  -28.4582  -21.8813   20.4455 N   0  0  0  0  0  0
  -31.4882  -12.7477   19.1855 H   0  0  0  0  0  0
  -30.4580  -11.6055   20.0005 H   0  0  0  0  0  0
  -29.8425  -11.7574   17.5653 H   0  0  0  0  0  0
  -29.6185  -13.4827   17.7105 H   0  0  0  0  0  0
  -27.9472  -11.2808   18.9570 H   0  0  0  0  0  0
  -27.3981  -12.4806   17.8146 H   0  0  0  0  0  0
  -27.6187  -14.2529   19.4476 H   0  0  0  0  0  0
  -28.7620  -12.2153   21.4213 H   0  0  0  0  0  0
  -28.3818  -13.8713   21.8050 H   0  0  0  0  0  0
  -25.2764   -9.5683   22.4772 H   0  0  0  0  0  0
  -24.0004   -7.4637   22.7474 H   0  0  0  0  0  0
  -21.0850   -8.8784   19.8950 H   0  0  0  0  0  0
  -22.3714  -10.9679   19.6175 H   0  0  0  0  0  0
  -21.2010   -7.6144   23.9715 H   0  0  0  0  0  0
  -21.1482   -6.0520   25.9078 H   0  0  0  0  0  0
  -22.0594   -2.7607   23.2842 H   0  0  0  0  0  0
  -22.4061  -11.9885   22.4834 H   0  0  0  0  0  0
  -21.1069  -13.1249   22.2607 H   0  0  0  0  0  0
  -24.6255  -15.8272   20.4817 H   0  0  0  0  0  0
  -26.2201  -15.6193   19.9707 H   0  0  0  0  0  0
  -26.7279  -32.5313   23.1008 H   0  0  0  0  0  0
  -25.0118  -33.9617   25.0356 H   0  0  0  0  0  0
  -22.7480  -31.2908   21.3814 H   0  0  0  0  0  0
  -23.3759  -35.9586   23.3293 H   0  0  0  0  0  0
  -24.3581  -36.8894   22.2056 H   0  0  0  0  0  0
  -23.7251  -37.6452   23.6681 H   0  0  0  0  0  0
  -26.1577  -31.4764   20.6150 H   0  0  0  0  0  0
  -26.8733  -30.7709   22.0288 H   0  0  0  0  0  0
  -28.1352  -28.8094   21.2293 H   0  0  0  0  0  0
  -25.9069  -25.8518   19.0030 H   0  0  0  0  0  0
  -23.9796  -27.3021   18.9846 H   0  0  0  0  0  0
  -23.8096  -30.5721   19.3996 H   0  0  0  0  0  0
  -22.7876  -29.2389   19.8416 H   0  0  0  0  0  0
  -25.1311  -36.1860   25.0809 H   0  0  0  0  0  0
  -21.0016  -28.3307   24.1355 H   0  0  0  0  0  0
  -20.5689  -26.2328   23.3617 H   0  0  0  0  0  0
  -21.6659  -26.7426   22.1197 H   0  0  0  0  0  0
  -19.6925  -25.6282   21.1252 H   0  0  0  0  0  0
  -19.6702  -27.3177   20.6730 H   0  0  0  0  0  0
  -17.4217  -26.6680   21.4023 H   0  0  0  0  0  0
  -18.0343  -26.0073   22.9016 H   0  0  0  0  0  0
  -19.7953  -30.7288   24.2240 H   0  0  0  0  0  0
  -17.5025  -31.6265   24.5156 H   0  0  0  0  0  0
  -15.5365  -30.2968   23.7662 H   0  0  0  0  0  0
  -15.8696  -28.0795   22.7093 H   0  0  0  0  0  0
  -24.5913  -30.7079   25.7731 H   0  0  0  0  0  0
  -24.8913  -32.2919   26.4785 H   0  0  0  0  0  0
  -25.8014  -30.8945   27.0217 H   0  0  0  0  0  0
  -26.3027  -29.6666   24.1296 H   0  0  0  0  0  0
  -27.4040  -29.7257   25.4850 H   0  0  0  0  0  0
  -27.8926  -30.4199   23.9592 H   0  0  0  0  0  0
  -27.2671  -33.3634   26.2028 H   0  0  0  0  0  0
  -28.3916  -32.6838   25.0353 H   0  0  0  0  0  0
  -28.0704  -31.8469   26.5462 H   0  0  0  0  0  0
  -28.2588  -38.0088   24.7504 H   0  0  0  0  0  0
  -28.1078  -36.2616   24.6302 H   0  0  0  0  0  0
  -27.2292  -37.1445   25.8868 H   0  0  0  0  0  0
  -20.9463  -29.8763   21.6793 H   0  0  0  0  0  0
  -26.0158  -38.2812   24.1394 H   0  0  0  0  0  0
  -27.3397  -19.9823   21.8709 H   0  0  0  0  0  0
  -31.1238  -18.1953   19.3980 H   0  0  0  0  0  0
  -25.5881  -17.1546   23.2508 H   0  0  0  0  0  0
  -25.6163  -18.1596   21.8096 H   0  0  0  0  0  0
  -26.2770  -18.7617   23.3390 H   0  0  0  0  0  0
  -28.1084  -17.0700   23.2391 H   0  0  0  0  0  0
  -27.3664  -16.3336   21.8479 H   0  0  0  0  0  0
  -29.6553  -23.4864   21.1819 H   0  0  0  0  0  0
  -29.7153  -23.3242   19.4563 H   0  0  0  0  0  0
  -27.2167  -24.4899   20.9207 H   0  0  0  0  0  0
  -27.4830  -24.4625   19.2109 H   0  0  0  0  0  0
  -28.7920  -15.5790   21.1229 H   0  0  0  0  0  0
  -27.5184  -21.9475   20.8216 H   0  0  0  0  0  0
  1 25  1  0  0  0
  1 30  2  0  0  0
  1 81  1  0  0  0
  2  3  1  0  0  0
  2 25  1  0  0  0
  2 83  1  0  0  0
  2 84  1  0  0  0
  3  4  1  0  0  0
  3 85  1  0  0  0
  3 86  1  0  0  0
  4  5  1  0  0  0
  4 87  1  0  0  0
  4 88  1  0  0  0
  5  6  1  0  0  0
  5 26  1  0  0  0
  5 89  1  0  0  0
  6 25  1  0  0  0
  6 90  1  0  0  0
  6 91  1  0  0  0
  7  8  2  0  0  0
  7 26  1  0  0  0
  7 29  1  0  0  0
  8  9  1  0  0  0
  8 22  1  0  0  0
  9 10  1  0  0  0
  9 27  2  0  0  0
 10 11  2  0  0  0
 10 15  1  0  0  0
 11 12  1  0  0  0
 11 92  1  0  0  0
 12 13  2  0  0  0
 12 93  1  0  0  0
 13 14  1  0  0  0
 13 31  1  0  0  0
 14 15  2  0  0  0
 14 94  1  0  0  0
 15 95  1  0  0  0
 16 17  2  0  0  0
 16 21  1  0  0  0
 16 31  1  0  0  0
 17 18  1  0  0  0
 17 96  1  0  0  0
 18 19  2  0  0  0
 18 97  1  0  0  0
 19 20  1  0  0  0
 19 24  1  0  0  0
 20 21  2  0  0  0
 20 98  1  0  0  0
 21 23  1  0  0  0
 22 28  1  0  0  0
 22 32  2  0  0  0
 26 27  1  0  0  0
 28 99  1  0  0  0
 28100  1  0  0  0
 29101  1  0  0  0
 29102  1  0  0  0
 33 34  1  0  0  0
 33 66  1  0  0  0
 33 70  2  0  0  0
 34 36  1  0  0  0
 34 59  1  0  0  0
 34103  1  0  0  0
 35 44  2  0  0  0
 35 45  1  0  0  0
 35 68  1  0  0  0
 36 56  1  0  0  0
 36104  1  0  0  0
 37 39  1  0  0  0
 37 47  1  0  0  0
 37 66  1  0  0  0
 37105  1  0  0  0
 38 43  2  0  0  0
 38 46  1  0  0  0
 38 47  1  0  0  0
 39 64  1  0  0  0
 39 67  2  0  0  0
 40 52  1  0  0  0
 40 53  2  0  0  0
 40 58  1  0  0  0
 41106  1  0  0  0
 41107  1  0  0  0
 41108  1  0  0  0
 41 48  1  0  0  0
 42 43  1  0  0  0
 42 66  1  0  0  0
 42109  1  0  0  0
 42110  1  0  0  0
 43 44  1  0  0  0
 44111  1  0  0  0
 45 46  2  0  0  0
 45112  1  0  0  0
 46113  1  0  0  0
 47114  1  0  0  0
 47115  1  0  0  0
 48 56  1  0  0  0
 48 65  1  0  0  0
 48116  1  0  0  0
 49 50  1  0  0  0
 49 53  1  0  0  0
 49 64  1  0  0  0
 49117  1  0  0  0
 50 51  1  0  0  0
 50118  1  0  0  0
 50119  1  0  0  0
 51 52  1  0  0  0
 51120  1  0  0  0
 51121  1  0  0  0
 52122  1  0  0  0
 52123  1  0  0  0
 53 54  1  0  0  0
 54 55  2  0  0  0
 54124  1  0  0  0
 55 57  1  0  0  0
 55125  1  0  0  0
 56 69  2  0  0  0
 57 58  2  0  0  0
 57126  1  0  0  0
 58127  1  0  0  0
 59 60  1  0  0  0
 59 61  1  0  0  0
 59 62  1  0  0  0
 60128  1  0  0  0
 60129  1  0  0  0
 60130  1  0  0  0
 61131  1  0  0  0
 61132  1  0  0  0
 61133  1  0  0  0
 62134  1  0  0  0
 62135  1  0  0  0
 62136  1  0  0  0
 63 65  1  0  0  0
 63137  1  0  0  0
 63138  1  0  0  0
 63139  1  0  0  0
 64140  1  0  0  0
 65141  1  0  0  0
 68 79  1  0  0  0
 71 73  2  0  0  0
 71 75  1  0  0  0
 71142  1  0  0  0
 72 74  2  0  0  0
 72 80  1  0  0  0
 72143  1  0  0  0
 73 74  1  0  0  0
 73 77  1  0  0  0
 74 81  1  0  0  0
 75 80  2  0  0  0
 75 82  1  0  0  0
 76 77  1  0  0  0
 76144  1  0  0  0
 76145  1  0  0  0
 76146  1  0  0  0
 77147  1  0  0  0
 77148  1  0  0  0
 78 79  1  0  0  0
 78 82  1  0  0  0
 78149  1  0  0  0
 78150  1  0  0  0
 79151  1  0  0  0
 79152  1  0  0  0
 81153  1  0  0  0
 82154  1  0  0  0
M  ISO  4   1 100  68 101  79 101  81 100
M  END
> <chiral flag>
0

> <version>
0

> <s_m_source_file>
/data/baiqing/PycharmProjects/Reinvent-master-3.2/result/LINK_invent/BTK/process_docking_weight1_custom_sum_contain_oxygen_bond_distance_aromatic_linkinvent_7_9_3/rearranged_h_0126.sdf

> <i_m_source_file_index>
93

> <r_mmod_Potential_Energy-OPLS-2005>
202.368591308594

> <r_mmod_Stretch_Energy-OPLS-2005>
220.084091186523

> <r_mmod_Bend_Energy-OPLS-2005>
300.125152587891

> <r_mmod_Torsional_Energy-OPLS-2005>
214.066009521484

> <r_mmod_Improper_Torsional_Energy-OPLS-2005>
5.08498048782349

> <r_mmod_Van_der_Waal_Energy-OPLS-2005>
136.638732910156

> <r_mmod_Electrostatic_Energy-OPLS-2005>
-608.996215820312

> <r_mmod_Solvation_Energy-OPLS-2005>
-244.890289306641

> <b_mmod_Minimization_Converged-OPLS-2005>
0

> <r_mmod_RMS_Derivative-OPLS-2005>
0.824323952198029

$$$$
93
                    3D
 Structure written by MMmdl.
195204  0  0  1  0            999 V2000
  -30.6831  -14.4991   20.5483 C   0  0  0  0  0  0
  -30.4249  -12.3157   19.4331 C   0  0  0  0  0  0
  -29.4935  -12.5045   18.2160 C   0  0  0  0  0  0
  -28.0185  -12.3519   18.6344 C   0  0  0  0  0  0
  -27.6622  -13.2031   19.8818 C   0  0  2  0  0  0
  -28.7049  -12.9995   21.0065 C   0  0  0  0  0  0
  -25.2599  -13.8153   20.5693 C   0  0  0  0  0  0
  -24.1840  -13.0431   20.9190 C   0  0  0  0  0  0
  -24.6398  -11.6897   20.8749 C   0  0  0  0  0  0
  -23.9059  -10.4279   21.0410 C   0  0  0  0  0  0
  -24.3610   -9.4194   21.9193 C   0  0  0  0  0  0
  -23.6282   -8.2232   22.0760 C   0  0  0  0  0  0
  -22.4263   -8.0276   21.3543 C   0  0  0  0  0  0
  -21.9901   -9.0248   20.4645 C   0  0  0  0  0  0
  -22.7230  -10.2127   20.3058 C   0  0  0  0  0  0
  -21.6851   -6.0729   22.5278 C   0  0  0  0  0  0
  -21.4006   -6.5635   23.8215 C   0  0  0  0  0  0
  -21.3665   -5.6791   24.9178 C   0  0  0  0  0  0
  -21.6041   -4.3055   24.7232 C   0  0  0  0  0  0
  -21.8824   -3.8140   23.4352 C   0  0  0  0  0  0
  -21.9183   -4.6955   22.3405 C   0  0  0  0  0  0
  -22.7860  -13.5224   21.1839 C   0  0  0  0  0  0
  -22.1658   -4.2133   21.0984 F   0  0  0  0  0  0
  -21.5635   -3.4546   25.7751 F   0  0  0  0  0  0
  -30.0353  -13.3048   20.4517 N   0  0  0  0  0  0
  -26.3031  -12.9314   20.3421 N   0  0  0  0  0  0
  -25.9333  -11.6478   20.5845 N   0  0  0  0  0  0
  -22.0496  -12.8185   22.0382 N   0  0  0  0  0  0
  -25.4374  -15.1865   20.4102 N   0  0  0  0  0  0
  -31.8046  -14.6956   20.0761 O   0  0  0  0  0  0
  -21.6631   -6.8875   21.4246 O   0  0  0  0  0  0
  -22.3565  -14.5553   20.6725 O   0  0  0  0  0  0
  -24.6117  -31.8714   23.2094 C   0  0  0  0  0  0
  -25.9005  -32.4847   23.8410 C   0  0  1  0  0  0
  -27.2405  -27.4310   20.0787 C   0  0  0  0  0  0
  -25.5861  -33.8652   24.2325 N   0  0  0  0  0  0
  -23.4011  -30.4901   21.5504 C   0  0  2  0  0  0
  -24.8463  -28.9501   20.1204 C   0  0  0  0  0  0
  -22.7373  -29.4688   22.5013 C   0  0  0  0  0  0
  -18.0272  -28.1357   22.8512 C   0  0  0  0  0  0
  -24.1482  -36.7326   23.2635 C   0  0  0  0  0  0
  -25.9315  -30.8277   21.3674 C   0  0  0  0  0  0
  -26.0066  -29.4605   20.7159 C   0  0  0  0  0  0
  -27.2012  -28.7034   20.6980 C   0  0  0  0  0  0
  -26.0540  -26.9303   19.4942 C   0  0  0  0  0  0
  -24.8644  -27.6833   19.5134 C   0  0  0  0  0  0
  -23.6081  -29.8156   20.1685 C   0  0  0  0  0  0
  -25.4106  -36.3129   24.0337 C   0  0  1  0  0  0
  -20.5844  -28.3665   23.1330 C   0  0  2  0  0  0
  -20.6757  -26.9415   22.5409 C   0  0  0  0  0  0
  -19.5744  -26.6394   21.5196 C   0  0  0  0  0  0
  -18.1921  -26.7913   22.1616 C   0  0  0  0  0  0
  -19.1516  -28.8827   23.2908 C   0  0  0  0  0  0
  -18.9443  -30.1415   23.8952 C   0  0  0  0  0  0
  -17.6457  -30.6587   24.0547 C   0  0  0  0  0  0
  -25.9041  -34.9495   23.5138 C   0  0  0  0  0  0
  -16.5346  -29.9096   23.6299 C   0  0  0  0  0  0
  -16.7260  -28.6472   23.0393 C   0  0  0  0  0  0
  -26.4423  -31.6636   25.0744 C   0  0  0  0  0  0
  -25.3676  -31.3723   26.1480 C   0  0  0  0  0  0
  -27.0254  -30.3085   24.6123 C   0  0  0  0  0  0
  -27.6012  -32.4347   25.7499 C   0  0  0  0  0  0
  -27.5589  -37.1812   24.8459 C   0  0  0  0  0  0
  -21.4098  -29.3051   22.3745 N   0  0  0  0  0  0
  -26.4309  -37.3813   23.9398 N   0  0  0  0  0  0
  -24.6663  -31.0788   22.1003 N   0  0  0  0  0  0
  -23.4147  -28.8249   23.3067 O   0  0  0  0  0  0
  -28.4315  -26.7261   20.0849 O   0  0  0  0  0  0
  -26.5623  -34.8943   22.4714 O   0  0  0  0  0  0
  -23.5300  -32.1480   23.7451 O   0  0  0  0  0  0
  -27.8464  -21.0278   19.8807 C   0  0  0  0  0  0
  -30.2709  -21.4864   20.2607 C   0  0  0  0  0  0
  -30.7949  -16.9911   25.0981 C   0  0  0  0  0  0
  -28.6091  -16.4304   24.3211 C   0  0  0  0  0  0
  -28.0855  -19.5374   20.2338 C   0  0  0  0  0  0
  -30.4917  -19.9863   20.6013 C   0  0  0  0  0  0
  -30.8314  -15.7329   25.9891 C   0  0  0  0  0  0
  -29.1060  -21.6702   19.2681 C   0  0  2  0  0  0
  -28.6192  -15.1237   25.1594 C   0  0  2  0  0  0
  -27.9850  -23.0980   17.4763 C   0  0  0  0  0  0
  -25.5466  -11.2611   26.3108 C   0  0  0  0  0  0
  -27.1850  -14.6528   25.5057 C   0  0  0  0  0  0
  -28.5127  -24.2360   19.7068 C   0  0  0  0  0  0
  -30.0491  -17.9892   23.0728 C   0  0  0  0  0  0
  -30.1391  -16.9531   20.6893 C   0  0  0  0  0  0
  -27.0877  -13.1603   25.8969 C   0  0  0  0  0  0
  -28.6551  -25.6739   19.1313 C   0  0  0  0  0  0
  -28.9260  -23.1195   18.6988 C   0  0  1  0  0  0
  -29.3983  -17.9338   21.6586 C   0  0  2  0  0  0
  -29.9773  -16.7675   23.8928 N   0  0  0  0  0  0
  -29.9304  -15.5214   20.9986 N   0  0  0  0  0  0
  -29.4614  -15.3290   26.3625 N   0  3  0  0  0  0
  -29.2555  -19.3426   21.1390 N   0  3  2  0  0  0
  -25.6878  -12.7101   26.0654 N   0  3  0  0  0  0
  -31.4687  -12.4161   19.1299 H   0  0  0  0  0  0
  -30.3291  -11.3070   19.8393 H   0  0  0  0  0  0
  -29.7370  -11.7802   17.4382 H   0  0  0  0  0  0
  -29.6505  -13.4909   17.7765 H   0  0  0  0  0  0
  -27.8454  -11.2966   18.8486 H   0  0  0  0  0  0
  -27.3585  -12.6014   17.8034 H   0  0  0  0  0  0
  -27.7027  -14.2478   19.5748 H   0  0  0  0  0  0
  -28.6845  -11.9672   21.3596 H   0  0  0  0  0  0
  -28.4664  -13.6099   21.8791 H   0  0  0  0  0  0
  -25.2774   -9.5643   22.4749 H   0  0  0  0  0  0
  -23.9987   -7.4610   22.7469 H   0  0  0  0  0  0
  -21.0834   -8.8760   19.8941 H   0  0  0  0  0  0
  -22.3692  -10.9659   19.6156 H   0  0  0  0  0  0
  -21.2005   -7.6145   23.9702 H   0  0  0  0  0  0
  -21.1482   -6.0532   25.9081 H   0  0  0  0  0  0
  -22.0595   -2.7601   23.2858 H   0  0  0  0  0  0
  -22.4042  -11.9738   22.4605 H   0  0  0  0  0  0
  -21.1118  -13.1211   22.2605 H   0  0  0  0  0  0
  -24.6612  -15.8356   20.4744 H   0  0  0  0  0  0
  -26.2719  -15.6023   20.0186 H   0  0  0  0  0  0
  -26.7075  -32.5548   23.1176 H   0  0  0  0  0  0
  -24.9932  -33.9848   25.0405 H   0  0  0  0  0  0
  -22.6911  -31.3062   21.4062 H   0  0  0  0  0  0
  -23.3773  -35.9631   23.3291 H   0  0  0  0  0  0
  -24.3564  -36.8960   22.2050 H   0  0  0  0  0  0
  -23.7226  -37.6517   23.6675 H   0  0  0  0  0  0
  -26.0462  -31.5919   20.5966 H   0  0  0  0  0  0
  -26.8204  -30.8822   21.9853 H   0  0  0  0  0  0
  -28.1008  -29.0984   21.1482 H   0  0  0  0  0  0
  -26.0235  -25.9562   19.0287 H   0  0  0  0  0  0
  -23.9681  -27.2791   19.0645 H   0  0  0  0  0  0
  -23.7116  -30.5848   19.4029 H   0  0  0  0  0  0
  -22.7345  -29.2277   19.8778 H   0  0  0  0  0  0
  -25.1281  -36.2009   25.0837 H   0  0  0  0  0  0
  -20.9909  -28.3235   24.1456 H   0  0  0  0  0  0
  -20.5620  -26.2286   23.3586 H   0  0  0  0  0  0
  -21.6643  -26.7459   22.1234 H   0  0  0  0  0  0
  -19.6901  -25.6300   21.1240 H   0  0  0  0  0  0
  -19.6673  -27.3176   20.6702 H   0  0  0  0  0  0
  -17.4169  -26.6657   21.4029 H   0  0  0  0  0  0
  -18.0333  -26.0038   22.8995 H   0  0  0  0  0  0
  -19.7927  -30.7170   24.2400 H   0  0  0  0  0  0
  -17.5038  -31.6287   24.5108 H   0  0  0  0  0  0
  -15.5351  -30.3033   23.7590 H   0  0  0  0  0  0
  -15.8641  -28.0770   22.7188 H   0  0  0  0  0  0
  -24.5847  -30.7086   25.7795 H   0  0  0  0  0  0
  -24.8851  -32.2861   26.4958 H   0  0  0  0  0  0
  -25.8010  -30.8861   27.0229 H   0  0  0  0  0  0
  -26.2801  -29.6890   24.1125 H   0  0  0  0  0  0
  -27.3961  -29.7292   25.4590 H   0  0  0  0  0  0
  -27.8668  -30.4414   23.9319 H   0  0  0  0  0  0
  -27.2655  -33.3651   26.2090 H   0  0  0  0  0  0
  -28.3804  -32.6908   25.0308 H   0  0  0  0  0  0
  -28.0696  -31.8465   26.5393 H   0  0  0  0  0  0
  -28.2597  -38.0120   24.7545 H   0  0  0  0  0  0
  -28.1110  -36.2666   24.6260 H   0  0  0  0  0  0
  -27.2305  -37.1410   25.8859 H   0  0  0  0  0  0
  -20.9241  -29.8773   21.6971 H   0  0  0  0  0  0
  -26.0212  -38.2895   24.1417 H   0  0  0  0  0  0
  -27.5338  -21.5801   20.7679 H   0  0  0  0  0  0
  -27.0138  -21.0868   19.1787 H   0  0  0  0  0  0
  -31.1881  -21.8933   19.8331 H   0  0  0  0  0  0
  -30.0843  -22.0534   21.1741 H   0  0  0  0  0  0
  -31.8182  -17.2455   24.8149 H   0  0  0  0  0  0
  -30.4135  -17.8411   25.6684 H   0  0  0  0  0  0
  -28.1613  -17.2519   24.8857 H   0  0  0  0  0  0
  -27.9755  -16.2703   23.4490 H   0  0  0  0  0  0
  -28.2323  -18.9608   19.3204 H   0  0  0  0  0  0
  -27.1821  -19.1438   20.7015 H   0  0  0  0  0  0
  -31.3059  -19.9014   21.3218 H   0  0  0  0  0  0
  -30.8204  -19.4623   19.7028 H   0  0  0  0  0  0
  -31.4108  -15.9293   26.8924 H   0  0  0  0  0  0
  -31.3324  -14.9142   25.4696 H   0  0  0  0  0  0
  -29.3697  -21.0562   18.4040 H   0  0  0  0  0  0
  -29.0837  -14.3463   24.5482 H   0  0  0  0  0  0
  -28.2153  -22.2711   16.8034 H   0  0  0  0  0  0
  -28.0729  -24.0087   16.8844 H   0  0  0  0  0  0
  -26.9401  -22.9989   17.7721 H   0  0  0  0  0  0
  -24.4933  -10.9930   26.3942 H   0  0  0  0  0  0
  -26.0433  -10.9692   27.2366 H   0  0  0  0  0  0
  -25.9748  -10.6790   25.4938 H   0  0  0  0  0  0
  -26.5597  -14.8035   24.6242 H   0  0  0  0  0  0
  -26.7540  -15.2847   26.2837 H   0  0  0  0  0  0
  -27.4906  -24.0742   20.0475 H   0  0  0  0  0  0
  -29.1409  -24.1687   20.5945 H   0  0  0  0  0  0
  -29.6006  -18.8063   23.6419 H   0  0  0  0  0  0
  -31.0999  -18.2545   22.9426 H   0  0  0  0  0  0
  -31.2072  -17.1782   20.6838 H   0  0  0  0  0  0
  -29.7904  -17.1114   19.6681 H   0  0  0  0  0  0
  -27.6352  -12.9733   26.8220 H   0  0  0  0  0  0
  -27.5605  -12.5503   25.1253 H   0  0  0  0  0  0
  -28.0526  -25.8104   18.2342 H   0  0  0  0  0  0
  -29.6836  -25.8010   18.7930 H   0  0  0  0  0  0
  -29.9081  -23.4025   18.3139 H   0  0  0  0  0  0
  -28.3793  -17.5686   21.7784 H   0  0  0  0  0  0
  -29.0446  -15.2646   21.4041 H   0  0  0  0  0  0
  -29.0664  -16.0542   26.9390 H   0  0  0  0  0  0
  -29.5252  -14.4892   26.9130 H   0  0  0  0  0  0
  -29.0203  -19.8767   21.9626 H   0  0  0  0  0  0
  -25.2626  -13.2028   26.8350 H   0  0  0  0  0  0
  -25.1617  -12.9343   25.2367 H   0  0  0  0  0  0
  1 25  1  0  0  0
  1 30  2  0  0  0
  1 91  1  0  0  0
  2  3  1  0  0  0
  2 25  1  0  0  0
  2 95  1  0  0  0
  2 96  1  0  0  0
  3  4  1  0  0  0
  3 97  1  0  0  0
  3 98  1  0  0  0
  4  5  1  0  0  0
  4 99  1  0  0  0
  4100  1  0  0  0
  5  6  1  0  0  0
  5 26  1  0  0  0
  5101  1  0  0  0
  6 25  1  0  0  0
  6102  1  0  0  0
  6103  1  0  0  0
  7  8  2  0  0  0
  7 26  1  0  0  0
  7 29  1  0  0  0
  8  9  1  0  0  0
  8 22  1  0  0  0
  9 10  1  0  0  0
  9 27  2  0  0  0
 10 11  2  0  0  0
 10 15  1  0  0  0
 11 12  1  0  0  0
 11104  1  0  0  0
 12 13  2  0  0  0
 12105  1  0  0  0
 13 14  1  0  0  0
 13 31  1  0  0  0
 14 15  2  0  0  0
 14106  1  0  0  0
 15107  1  0  0  0
 16 17  2  0  0  0
 16 21  1  0  0  0
 16 31  1  0  0  0
 17 18  1  0  0  0
 17108  1  0  0  0
 18 19  2  0  0  0
 18109  1  0  0  0
 19 20  1  0  0  0
 19 24  1  0  0  0
 20 21  2  0  0  0
 20110  1  0  0  0
 21 23  1  0  0  0
 22 28  1  0  0  0
 22 32  2  0  0  0
 26 27  1  0  0  0
 28111  1  0  0  0
 28112  1  0  0  0
 29113  1  0  0  0
 29114  1  0  0  0
 33 34  1  0  0  0
 33 66  1  0  0  0
 33 70  2  0  0  0
 34 36  1  0  0  0
 34 59  1  0  0  0
 34115  1  0  0  0
 35 44  2  0  0  0
 35 45  1  0  0  0
 35 68  1  0  0  0
 36 56  1  0  0  0
 36116  1  0  0  0
 37 39  1  0  0  0
 37 47  1  0  0  0
 37 66  1  0  0  0
 37117  1  0  0  0
 38 43  2  0  0  0
 38 46  1  0  0  0
 38 47  1  0  0  0
 39 64  1  0  0  0
 39 67  2  0  0  0
 40 52  1  0  0  0
 40 53  2  0  0  0
 40 58  1  0  0  0
 41118  1  0  0  0
 41119  1  0  0  0
 41120  1  0  0  0
 41 48  1  0  0  0
 42 43  1  0  0  0
 42 66  1  0  0  0
 42121  1  0  0  0
 42122  1  0  0  0
 43 44  1  0  0  0
 44123  1  0  0  0
 45 46  2  0  0  0
 45124  1  0  0  0
 46125  1  0  0  0
 47126  1  0  0  0
 47127  1  0  0  0
 48 56  1  0  0  0
 48 65  1  0  0  0
 48128  1  0  0  0
 49 50  1  0  0  0
 49 53  1  0  0  0
 49 64  1  0  0  0
 49129  1  0  0  0
 50 51  1  0  0  0
 50130  1  0  0  0
 50131  1  0  0  0
 51 52  1  0  0  0
 51132  1  0  0  0
 51133  1  0  0  0
 52134  1  0  0  0
 52135  1  0  0  0
 53 54  1  0  0  0
 54 55  2  0  0  0
 54136  1  0  0  0
 55 57  1  0  0  0
 55137  1  0  0  0
 56 69  2  0  0  0
 57 58  2  0  0  0
 57138  1  0  0  0
 58139  1  0  0  0
 59 60  1  0  0  0
 59 61  1  0  0  0
 59 62  1  0  0  0
 60140  1  0  0  0
 60141  1  0  0  0
 60142  1  0  0  0
 61143  1  0  0  0
 61144  1  0  0  0
 61145  1  0  0  0
 62146  1  0  0  0
 62147  1  0  0  0
 62148  1  0  0  0
 63 65  1  0  0  0
 63149  1  0  0  0
 63150  1  0  0  0
 63151  1  0  0  0
 64152  1  0  0  0
 65153  1  0  0  0
 68 87  1  0  0  0
 71 75  1  0  0  0
 71154  1  0  0  0
 71155  1  0  0  0
 71 78  1  0  0  0
 72 76  1  0  0  0
 72 78  1  0  0  0
 72156  1  0  0  0
 72157  1  0  0  0
 73 77  1  0  0  0
 73 90  1  0  0  0
 73158  1  0  0  0
 73159  1  0  0  0
 74 79  1  0  0  0
 74 90  1  0  0  0
 74160  1  0  0  0
 74161  1  0  0  0
 75162  1  0  0  0
 75163  1  0  0  0
 75 93  1  0  0  0
 76 93  1  0  0  0
 76164  1  0  0  0
 76165  1  0  0  0
 77 92  1  0  0  0
 77166  1  0  0  0
 77167  1  0  0  0
 78 88  1  0  0  0
 78168  1  0  0  0
 79 82  1  0  0  0
 79 92  1  0  0  0
 79169  1  0  0  0
 80170  1  0  0  0
 80171  1  0  0  0
 80172  1  0  0  0
 80 88  1  0  0  0
 81 94  1  0  0  0
 81173  1  0  0  0
 81174  1  0  0  0
 81175  1  0  0  0
 82 86  1  0  0  0
 82176  1  0  0  0
 82177  1  0  0  0
 83 87  1  0  0  0
 83 88  1  0  0  0
 83178  1  0  0  0
 83179  1  0  0  0
 84 90  1  0  0  0
 84180  1  0  0  0
 84181  1  0  0  0
 84 89  1  0  0  0
 85 89  1  0  0  0
 85 91  1  0  0  0
 85182  1  0  0  0
 85183  1  0  0  0
 86 94  1  0  0  0
 86184  1  0  0  0
 86185  1  0  0  0
 87186  1  0  0  0
 87187  1  0  0  0
 88188  1  0  0  0
 89 93  1  0  0  0
 89189  1  0  0  0
 91190  1  0  0  0
 92191  1  0  0  0
 92192  1  0  0  0
 93193  1  0  0  0
 94194  1  0  0  0
 94195  1  0  0  0
M  CHG  3  92   1  93   1  94   1
M  ISO  4   1 100  68 101  87 101  91 100
M  END
> <chiral flag>
0

> <version>
0

> <s_m_source_file>
/data/baiqing/PycharmProjects/Reinvent-master-3.2/result/LINK_invent/BTK/process_docking_weight1_custom_sum_contain_oxygen_bond_distance_aromatic_linkinvent_7_9_3/rearranged_h_0126.sdf

> <i_m_source_file_index>
94

> <r_mmod_Potential_Energy-OPLS-2005>
-381.314788818359

> <r_mmod_Stretch_Energy-OPLS-2005>
49.5694274902344

> <r_mmod_Bend_Energy-OPLS-2005>
129.693756103516

> <r_mmod_Torsional_Energy-OPLS-2005>
279.446563720703

> <r_mmod_Improper_Torsional_Energy-OPLS-2005>
5.89551734924316

> <r_mmod_Van_der_Waal_Energy-OPLS-2005>
131.809951782227

> <r_mmod_Electrostatic_Energy-OPLS-2005>
649.555480957031

> <r_mmod_Solvation_Energy-OPLS-2005>
-1641.74279785156

> <b_mmod_Minimization_Converged-OPLS-2005>
0

> <r_mmod_RMS_Derivative-OPLS-2005>
2.28546524047852

$$$$
94
                    3D
 Structure written by MMmdl.
163172  0  0  1  0            999 V2000
  -30.5234  -14.9170   20.4057 C   0  0  0  0  0  0
  -30.4461  -12.5570   19.4951 C   0  0  0  0  0  0
  -29.5251  -12.5238   18.2521 C   0  0  0  0  0  0
  -28.0543  -12.3130   18.6638 C   0  0  0  0  0  0
  -27.6319  -13.2374   19.8338 C   0  0  2  0  0  0
  -28.6740  -13.2482   20.9709 C   0  0  0  0  0  0
  -25.2487  -13.8086   20.5696 C   0  0  0  0  0  0
  -24.1796  -13.0363   20.9233 C   0  0  0  0  0  0
  -24.6407  -11.6853   20.8751 C   0  0  0  0  0  0
  -23.9082  -10.4252   21.0409 C   0  0  0  0  0  0
  -24.3628   -9.4176   21.9193 C   0  0  0  0  0  0
  -23.6297   -8.2220   22.0761 C   0  0  0  0  0  0
  -22.4277   -8.0269   21.3547 C   0  0  0  0  0  0
  -21.9917   -9.0244   20.4652 C   0  0  0  0  0  0
  -22.7252  -10.2116   20.3064 C   0  0  0  0  0  0
  -21.6847   -6.0738   22.5279 C   0  0  0  0  0  0
  -21.4009   -6.5640   23.8213 C   0  0  0  0  0  0
  -21.3655   -5.6790   24.9174 C   0  0  0  0  0  0
  -21.6045   -4.3055   24.7222 C   0  0  0  0  0  0
  -21.8826   -3.8149   23.4343 C   0  0  0  0  0  0
  -21.9192   -4.6968   22.3403 C   0  0  0  0  0  0
  -22.7824  -13.5169   21.1884 C   0  0  0  0  0  0
  -22.1666   -4.2156   21.0982 F   0  0  0  0  0  0
  -21.5627   -3.4541   25.7736 F   0  0  0  0  0  0
  -29.9620  -13.6439   20.3885 N   0  0  0  0  0  0
  -26.2908  -12.9338   20.3207 N   0  0  0  0  0  0
  -25.9335  -11.6481   20.5713 N   0  0  0  0  0  0
  -22.0466  -12.8167   22.0439 N   0  0  0  0  0  0
  -25.4134  -15.1767   20.4093 N   0  0  0  0  0  0
  -31.7293  -14.9969   20.1446 O   0  0  0  0  0  0
  -21.6633   -6.8876   21.4239 O   0  0  0  0  0  0
  -22.3523  -14.5483   20.6731 O   0  0  0  0  0  0
  -24.6397  -31.8481   23.1905 C   0  0  0  0  0  0
  -25.9184  -32.4724   23.8282 C   0  0  1  0  0  0
  -27.2255  -27.1824   20.1422 C   0  0  0  0  0  0
  -25.5948  -33.8525   24.2206 N   0  0  0  0  0  0
  -23.4412  -30.4684   21.5363 C   0  0  2  0  0  0
  -24.8898  -28.8975   20.1156 C   0  0  0  0  0  0
  -22.7545  -29.4571   22.4882 C   0  0  0  0  0  0
  -18.0303  -28.1394   22.8480 C   0  0  0  0  0  0
  -24.1490  -36.7266   23.2639 C   0  0  0  0  0  0
  -25.9939  -30.7359   21.3819 C   0  0  0  0  0  0
  -26.0669  -29.3497   20.7267 C   0  0  0  0  0  0
  -27.2374  -28.5092   20.7203 C   0  0  0  0  0  0
  -26.0237  -26.8207   19.4952 C   0  0  0  0  0  0
  -24.8784  -27.6438   19.4866 C   0  0  0  0  0  0
  -23.6655  -29.7959   20.1566 C   0  0  0  0  0  0
  -25.4124  -36.3051   24.0315 C   0  0  1  0  0  0
  -20.5912  -28.3712   23.1247 C   0  0  2  0  0  0
  -20.6792  -26.9421   22.5407 C   0  0  0  0  0  0
  -19.5767  -26.6379   21.5217 C   0  0  0  0  0  0
  -18.1945  -26.7934   22.1623 C   0  0  0  0  0  0
  -19.1556  -28.8872   23.2857 C   0  0  0  0  0  0
  -18.9477  -30.1472   23.8877 C   0  0  0  0  0  0
  -17.6474  -30.6590   24.0562 C   0  0  0  0  0  0
  -25.9072  -34.9424   23.5067 C   0  0  0  0  0  0
  -16.5365  -29.9086   23.6334 C   0  0  0  0  0  0
  -16.7289  -28.6508   23.0347 C   0  0  0  0  0  0
  -26.4513  -31.6576   25.0711 C   0  0  0  0  0  0
  -25.3701  -31.3755   26.1410 C   0  0  0  0  0  0
  -27.0369  -30.2979   24.6259 C   0  0  0  0  0  0
  -27.6049  -32.4327   25.7498 C   0  0  0  0  0  0
  -27.5578  -37.1795   24.8466 C   0  0  0  0  0  0
  -21.4242  -29.3045   22.3623 N   0  0  0  0  0  0
  -26.4292  -37.3762   23.9407 N   0  0  0  0  0  0
  -24.7114  -31.0374   22.0920 N   0  0  0  0  0  0
  -23.4208  -28.8118   23.3015 O   0  0  0  0  0  0
  -28.3081  -26.2432   20.1558 O   0  0  0  0  0  0
  -26.5654  -34.8906   22.4640 O   0  0  0  0  0  0
  -23.5522  -32.1329   23.7153 O   0  0  0  0  0  0
  -30.0149  -20.8539   18.5209 C   0  0  0  0  0  0
  -29.0983  -19.1544   19.9872 C   0  0  0  0  0  0
  -29.5112  -20.5765   19.8105 C   0  0  0  0  0  0
  -28.3106  -18.7423   18.8890 C   0  0  0  0  0  0
  -28.7143  -19.1937   17.6182 C   0  0  0  0  0  0
  -29.9435  -17.1806   21.7184 C   0  0  0  0  0  0
  -30.0189  -17.8566   20.3748 C   0  0  2  0  0  0
  -29.6159  -16.2571   20.5551 C   0  0  1  0  0  0
  -30.5206  -23.8960   20.3431 C   0  0  0  0  0  0
  -26.3946  -18.1870   20.0842 C   0  0  0  0  0  0
  -28.8505  -21.8982   20.5153 C   0  0  0  0  0  0
  -28.0808  -24.7458   20.4531 C   0  0  0  0  0  0
  -29.0781  -23.4853   20.0087 C   0  0  1  0  0  0
  -29.6451  -20.1425   17.4327 N   0  0  0  0  0  0
  -28.1409  -18.6708   16.4714 N   0  0  0  0  0  0
  -27.2716  -17.8551   19.0123 O   0  0  0  0  0  0
  -31.4807  -12.7138   19.1873 H   0  0  0  0  0  0
  -30.4307  -11.5973   20.0150 H   0  0  0  0  0  0
  -29.8400  -11.7336   17.5687 H   0  0  0  0  0  0
  -29.6206  -13.4601   17.7003 H   0  0  0  0  0  0
  -27.9398  -11.2690   18.9587 H   0  0  0  0  0  0
  -27.3959  -12.4603   17.8072 H   0  0  0  0  0  0
  -27.5958  -14.2403   19.4096 H   0  0  0  0  0  0
  -28.7477  -12.2687   21.4454 H   0  0  0  0  0  0
  -28.3790  -13.9472   21.7550 H   0  0  0  0  0  0
  -25.2772   -9.5653   22.4771 H   0  0  0  0  0  0
  -24.0010   -7.4603   22.7468 H   0  0  0  0  0  0
  -21.0857   -8.8770   19.8943 H   0  0  0  0  0  0
  -22.3723  -10.9668   19.6183 H   0  0  0  0  0  0
  -21.2003   -7.6151   23.9721 H   0  0  0  0  0  0
  -21.1467   -6.0519   25.9077 H   0  0  0  0  0  0
  -22.0611   -2.7612   23.2841 H   0  0  0  0  0  0
  -22.4074  -11.9821   22.4827 H   0  0  0  0  0  0
  -21.1090  -13.1206   22.2648 H   0  0  0  0  0  0
  -24.6296  -15.8126   20.4992 H   0  0  0  0  0  0
  -26.2398  -15.6089   20.0165 H   0  0  0  0  0  0
  -26.7250  -32.5350   23.1011 H   0  0  0  0  0  0
  -25.0090  -33.9645   25.0353 H   0  0  0  0  0  0
  -22.7423  -31.2933   21.3829 H   0  0  0  0  0  0
  -23.3761  -35.9589   23.3299 H   0  0  0  0  0  0
  -24.3580  -36.8901   22.2056 H   0  0  0  0  0  0
  -23.7224  -37.6452   23.6676 H   0  0  0  0  0  0
  -26.1415  -31.4909   20.6083 H   0  0  0  0  0  0
  -26.8679  -30.7900   22.0194 H   0  0  0  0  0  0
  -28.1394  -28.8575   21.2031 H   0  0  0  0  0  0
  -25.9511  -25.8715   18.9854 H   0  0  0  0  0  0
  -23.9811  -27.2953   18.9928 H   0  0  0  0  0  0
  -23.7985  -30.5690   19.3990 H   0  0  0  0  0  0
  -22.7812  -29.2346   19.8495 H   0  0  0  0  0  0
  -25.1309  -36.1888   25.0809 H   0  0  0  0  0  0
  -21.0002  -28.3306   24.1370 H   0  0  0  0  0  0
  -20.5694  -26.2330   23.3627 H   0  0  0  0  0  0
  -21.6659  -26.7444   22.1199 H   0  0  0  0  0  0
  -19.6928  -25.6285   21.1259 H   0  0  0  0  0  0
  -19.6692  -27.3179   20.6740 H   0  0  0  0  0  0
  -17.4211  -26.6675   21.4027 H   0  0  0  0  0  0
  -18.0340  -26.0083   22.9026 H   0  0  0  0  0  0
  -19.7954  -30.7296   24.2225 H   0  0  0  0  0  0
  -17.5027  -31.6267   24.5170 H   0  0  0  0  0  0
  -15.5362  -30.2979   23.7670 H   0  0  0  0  0  0
  -15.8692  -28.0825   22.7059 H   0  0  0  0  0  0
  -24.5890  -30.7094   25.7732 H   0  0  0  0  0  0
  -24.8876  -32.2934   26.4780 H   0  0  0  0  0  0
  -25.7991  -30.8966   27.0222 H   0  0  0  0  0  0
  -26.2976  -29.6712   24.1257 H   0  0  0  0  0  0
  -27.3993  -29.7267   25.4817 H   0  0  0  0  0  0
  -27.8878  -30.4232   23.9558 H   0  0  0  0  0  0
  -27.2655  -33.3644   26.2033 H   0  0  0  0  0  0
  -28.3888  -32.6859   25.0349 H   0  0  0  0  0  0
  -28.0682  -31.8474   26.5449 H   0  0  0  0  0  0
  -28.2597  -38.0092   24.7520 H   0  0  0  0  0  0
  -28.1074  -36.2623   24.6294 H   0  0  0  0  0  0
  -27.2299  -37.1445   25.8870 H   0  0  0  0  0  0
  -20.9445  -29.8767   21.6811 H   0  0  0  0  0  0
  -26.0164  -38.2834   24.1411 H   0  0  0  0  0  0
  -30.4233  -21.8209   18.2721 H   0  0  0  0  0  0
  -29.1094  -17.4374   22.3684 H   0  0  0  0  0  0
  -30.8848  -17.0165   22.2382 H   0  0  0  0  0  0
  -31.0197  -18.0352   19.9860 H   0  0  0  0  0  0
  -28.5567  -16.0518   20.4389 H   0  0  0  0  0  0
  -31.2438  -23.1520   20.0115 H   0  0  0  0  0  0
  -30.6490  -24.0248   21.4186 H   0  0  0  0  0  0
  -30.7791  -24.8418   19.8656 H   0  0  0  0  0  0
  -25.4065  -17.7716   19.8928 H   0  0  0  0  0  0
  -26.2605  -19.2651   20.1900 H   0  0  0  0  0  0
  -26.7589  -17.7892   21.0319 H   0  0  0  0  0  0
  -29.1031  -21.8446   21.5748 H   0  0  0  0  0  0
  -27.7753  -21.7197   20.4826 H   0  0  0  0  0  0
  -28.0095  -24.7029   21.5400 H   0  0  0  0  0  0
  -27.0844  -24.4644   20.1199 H   0  0  0  0  0  0
  -28.9924  -23.4660   18.9215 H   0  0  0  0  0  0
  -27.2650  -18.1782   16.6033 H   0  0  0  0  0  0
  -28.1908  -19.2191   15.6227 H   0  0  0  0  0  0
  1 25  1  0  0  0
  1 30  2  0  0  0
  1 78  1  0  0  0
  2  3  1  0  0  0
  2 25  1  0  0  0
  2 87  1  0  0  0
  2 88  1  0  0  0
  3  4  1  0  0  0
  3 89  1  0  0  0
  3 90  1  0  0  0
  4  5  1  0  0  0
  4 91  1  0  0  0
  4 92  1  0  0  0
  5  6  1  0  0  0
  5 26  1  0  0  0
  5 93  1  0  0  0
  6 25  1  0  0  0
  6 94  1  0  0  0
  6 95  1  0  0  0
  7  8  2  0  0  0
  7 26  1  0  0  0
  7 29  1  0  0  0
  8  9  1  0  0  0
  8 22  1  0  0  0
  9 10  1  0  0  0
  9 27  2  0  0  0
 10 11  2  0  0  0
 10 15  1  0  0  0
 11 12  1  0  0  0
 11 96  1  0  0  0
 12 13  2  0  0  0
 12 97  1  0  0  0
 13 14  1  0  0  0
 13 31  1  0  0  0
 14 15  2  0  0  0
 14 98  1  0  0  0
 15 99  1  0  0  0
 16 17  2  0  0  0
 16 21  1  0  0  0
 16 31  1  0  0  0
 17 18  1  0  0  0
 17100  1  0  0  0
 18 19  2  0  0  0
 18101  1  0  0  0
 19 20  1  0  0  0
 19 24  1  0  0  0
 20 21  2  0  0  0
 20102  1  0  0  0
 21 23  1  0  0  0
 22 28  1  0  0  0
 22 32  2  0  0  0
 26 27  1  0  0  0
 28103  1  0  0  0
 28104  1  0  0  0
 29105  1  0  0  0
 29106  1  0  0  0
 33 34  1  0  0  0
 33 66  1  0  0  0
 33 70  2  0  0  0
 34 36  1  0  0  0
 34 59  1  0  0  0
 34107  1  0  0  0
 35 44  2  0  0  0
 35 45  1  0  0  0
 35 68  1  0  0  0
 36 56  1  0  0  0
 36108  1  0  0  0
 37 39  1  0  0  0
 37 47  1  0  0  0
 37 66  1  0  0  0
 37109  1  0  0  0
 38 43  2  0  0  0
 38 46  1  0  0  0
 38 47  1  0  0  0
 39 64  1  0  0  0
 39 67  2  0  0  0
 40 52  1  0  0  0
 40 53  2  0  0  0
 40 58  1  0  0  0
 41110  1  0  0  0
 41111  1  0  0  0
 41112  1  0  0  0
 41 48  1  0  0  0
 42 43  1  0  0  0
 42 66  1  0  0  0
 42113  1  0  0  0
 42114  1  0  0  0
 43 44  1  0  0  0
 44115  1  0  0  0
 45 46  2  0  0  0
 45116  1  0  0  0
 46117  1  0  0  0
 47118  1  0  0  0
 47119  1  0  0  0
 48 56  1  0  0  0
 48 65  1  0  0  0
 48120  1  0  0  0
 49 50  1  0  0  0
 49 53  1  0  0  0
 49 64  1  0  0  0
 49121  1  0  0  0
 50 51  1  0  0  0
 50122  1  0  0  0
 50123  1  0  0  0
 51 52  1  0  0  0
 51124  1  0  0  0
 51125  1  0  0  0
 52126  1  0  0  0
 52127  1  0  0  0
 53 54  1  0  0  0
 54 55  2  0  0  0
 54128  1  0  0  0
 55 57  1  0  0  0
 55129  1  0  0  0
 56 69  2  0  0  0
 57 58  2  0  0  0
 57130  1  0  0  0
 58131  1  0  0  0
 59 60  1  0  0  0
 59 61  1  0  0  0
 59 62  1  0  0  0
 60132  1  0  0  0
 60133  1  0  0  0
 60134  1  0  0  0
 61135  1  0  0  0
 61136  1  0  0  0
 61137  1  0  0  0
 62138  1  0  0  0
 62139  1  0  0  0
 62140  1  0  0  0
 63 65  1  0  0  0
 63141  1  0  0  0
 63142  1  0  0  0
 63143  1  0  0  0
 64144  1  0  0  0
 65145  1  0  0  0
 68 82  1  0  0  0
 71 73  2  0  0  0
 71 84  1  0  0  0
 71146  1  0  0  0
 72 73  1  0  0  0
 72 74  2  0  0  0
 72 77  1  0  0  0
 73 81  1  0  0  0
 74 75  1  0  0  0
 74 86  1  0  0  0
 75 84  2  0  0  0
 75 85  1  0  0  0
 76 77  1  0  0  0
 76 78  1  0  0  0
 76147  1  0  0  0
 76148  1  0  0  0
 77 78  1  0  0  0
 77149  1  0  0  0
 78150  1  0  0  0
 79151  1  0  0  0
 79152  1  0  0  0
 79153  1  0  0  0
 79 83  1  0  0  0
 80 86  1  0  0  0
 80154  1  0  0  0
 80155  1  0  0  0
 80156  1  0  0  0
 81 83  1  0  0  0
 81157  1  0  0  0
 81158  1  0  0  0
 82 83  1  0  0  0
 82159  1  0  0  0
 82160  1  0  0  0
 83161  1  0  0  0
 85162  1  0  0  0
 85163  1  0  0  0
M  ISO  4   1 100  68 101  78 100  82 101
M  END
> <chiral flag>
0

> <version>
0

> <s_m_source_file>
/data/baiqing/PycharmProjects/Reinvent-master-3.2/result/LINK_invent/BTK/process_docking_weight1_custom_sum_contain_oxygen_bond_distance_aromatic_linkinvent_7_9_3/rearranged_h_0126.sdf

> <i_m_source_file_index>
95

> <r_mmod_Potential_Energy-OPLS-2005>
481.524475097656

> <r_mmod_Stretch_Energy-OPLS-2005>
241.782333374023

> <r_mmod_Bend_Energy-OPLS-2005>
245.687469482422

> <r_mmod_Torsional_Energy-OPLS-2005>
457.143310546875

> <r_mmod_Improper_Torsional_Energy-OPLS-2005>
36.3373031616211

> <r_mmod_Van_der_Waal_Energy-OPLS-2005>
134.146423339844

> <r_mmod_Electrostatic_Energy-OPLS-2005>
-582.0078125

> <r_mmod_Solvation_Energy-OPLS-2005>
-210.866409301758

> <b_mmod_Minimization_Converged-OPLS-2005>
0

> <r_mmod_RMS_Derivative-OPLS-2005>
1.27479696273804

$$$$
95
                    3D
 Structure written by MMmdl.
178187  0  0  1  0            999 V2000
  -30.6337  -14.4882   20.6646 C   0  0  0  0  0  0
  -30.4144  -12.3571   19.4195 C   0  0  0  0  0  0
  -29.4819  -12.5448   18.2021 C   0  0  0  0  0  0
  -27.9981  -12.3907   18.6046 C   0  0  0  0  0  0
  -27.6408  -13.1888   19.8855 C   0  0  2  0  0  0
  -28.6698  -12.8571   20.9705 C   0  0  0  0  0  0
  -25.2441  -13.8136   20.5553 C   0  0  0  0  0  0
  -24.1622  -13.0474   20.9024 C   0  0  0  0  0  0
  -24.6189  -11.6974   20.8654 C   0  0  0  0  0  0
  -23.8963  -10.4356   21.0389 C   0  0  0  0  0  0
  -24.3599   -9.4319   21.9191 C   0  0  0  0  0  0
  -23.6269   -8.2334   22.0872 C   0  0  0  0  0  0
  -22.4245   -8.0331   21.3617 C   0  0  0  0  0  0
  -21.9845   -9.0245   20.4725 C   0  0  0  0  0  0
  -22.7100  -10.2186   20.3166 C   0  0  0  0  0  0
  -21.6798   -6.0862   22.5397 C   0  0  0  0  0  0
  -21.3930   -6.5660   23.8347 C   0  0  0  0  0  0
  -21.3649   -5.6815   24.9309 C   0  0  0  0  0  0
  -21.6081   -4.3083   24.7329 C   0  0  0  0  0  0
  -21.8730   -3.8242   23.4421 C   0  0  0  0  0  0
  -21.9112   -4.7075   22.3492 C   0  0  0  0  0  0
  -22.7719  -13.5393   21.1745 C   0  0  0  0  0  0
  -22.1618   -4.2259   21.1081 F   0  0  0  0  0  0
  -21.5626   -3.4576   25.7850 F   0  0  0  0  0  0
  -29.9887  -13.2941   20.4826 N   0  0  0  0  0  0
  -26.2811  -12.9245   20.3356 N   0  0  0  0  0  0
  -25.9081  -11.6466   20.5698 N   0  0  0  0  0  0
  -22.0213  -12.8342   22.0170 N   0  0  0  0  0  0
  -25.4423  -15.1799   20.3942 N   0  0  0  0  0  0
  -31.7387  -14.7080   20.1604 O   0  0  0  0  0  0
  -21.6545   -6.8986   21.4364 O   0  0  0  0  0  0
  -22.3467  -14.5788   20.6759 O   0  0  0  0  0  0
  -24.6228  -31.8624   23.2049 C   0  0  0  0  0  0
  -25.9113  -32.4770   23.8353 C   0  0  1  0  0  0
  -27.2217  -27.3585   20.1327 C   0  0  0  0  0  0
  -25.5935  -33.8577   24.2276 N   0  0  0  0  0  0
  -23.4105  -30.4875   21.5479 C   0  0  2  0  0  0
  -24.8575  -28.9328   20.1237 C   0  0  0  0  0  0
  -22.7416  -29.4653   22.4972 C   0  0  0  0  0  0
  -18.0287  -28.1386   22.8481 C   0  0  0  0  0  0
  -24.1485  -36.7290   23.2629 C   0  0  0  0  0  0
  -25.9470  -30.8054   21.3691 C   0  0  0  0  0  0
  -26.0218  -29.4311   20.7205 C   0  0  0  0  0  0
  -27.2095  -28.6545   20.7140 C   0  0  0  0  0  0
  -26.0409  -26.8845   19.5237 C   0  0  0  0  0  0
  -24.8613  -27.6592   19.5200 C   0  0  0  0  0  0
  -23.6274  -29.8174   20.1633 C   0  0  0  0  0  0
  -25.4109  -36.3076   24.0316 C   0  0  1  0  0  0
  -20.5850  -28.3688   23.1294 C   0  0  2  0  0  0
  -20.6767  -26.9416   22.5409 C   0  0  0  0  0  0
  -19.5755  -26.6387   21.5196 C   0  0  0  0  0  0
  -18.1933  -26.7924   22.1612 C   0  0  0  0  0  0
  -19.1527  -28.8853   23.2882 C   0  0  0  0  0  0
  -18.9452  -30.1453   23.8921 C   0  0  0  0  0  0
  -17.6468  -30.6583   24.0556 C   0  0  0  0  0  0
  -25.9066  -34.9458   23.5102 C   0  0  0  0  0  0
  -16.5352  -29.9092   23.6325 C   0  0  0  0  0  0
  -16.7280  -28.6489   23.0351 C   0  0  0  0  0  0
  -26.4516  -31.6569   25.0709 C   0  0  0  0  0  0
  -25.3778  -31.3701   26.1454 C   0  0  0  0  0  0
  -27.0320  -30.2991   24.6107 C   0  0  0  0  0  0
  -27.6064  -32.4301   25.7486 C   0  0  0  0  0  0
  -27.5573  -37.1800   24.8470 C   0  0  0  0  0  0
  -21.4139  -29.3041   22.3702 N   0  0  0  0  0  0
  -26.4293  -37.3756   23.9398 N   0  0  0  0  0  0
  -24.6790  -31.0667   22.0996 N   0  0  0  0  0  0
  -23.4141  -28.8215   23.3055 O   0  0  0  0  0  0
  -28.3764  -26.5911   20.0897 O   0  0  0  0  0  0
  -26.5607  -34.8930   22.4655 O   0  0  0  0  0  0
  -23.5423  -32.1432   23.7376 O   0  0  0  0  0  0
  -26.4758  -19.3672   20.7780 C   0  0  0  0  0  0
  -27.7912  -15.7604   25.2698 C   0  0  0  0  0  0
  -27.6651  -19.9140   19.9730 C   0  0  0  0  0  0
  -27.4356  -16.4080   23.9024 C   0  0  0  0  0  0
  -28.9489  -14.7383   25.3266 C   0  0  0  0  0  0
  -26.8365  -18.2927   21.8301 C   0  0  0  0  0  0
  -29.0710  -19.2579   22.0394 C   0  0  0  0  0  0
  -30.6627  -15.4380   23.6198 C   0  0  0  0  0  0
  -28.8706  -20.3056   20.8674 C   0  0  2  0  0  0
  -29.4994  -15.6875   22.6120 C   0  0  1  0  0  0
  -28.6356  -16.9555   23.0302 C   0  0  1  0  0  0
  -28.8283  -21.8147   21.3511 C   0  0  0  0  0  0
  -27.9365  -24.0367   20.3506 C   0  0  0  0  0  0
  -28.4639  -25.4019   20.9365 C   0  0  0  0  0  0
  -29.9560  -15.5431   21.2037 N   0  0  0  0  0  0
  -30.2547  -15.3711   25.0472 N   0  3  0  0  0  0
  -28.2868  -17.9697   21.9367 N   0  3  1  0  0  0
  -28.8875  -22.8608   20.2695 N   0  3  0  0  0  0
  -31.4502  -12.5077   19.1120 H   0  0  0  0  0  0
  -30.3644  -11.3287   19.7849 H   0  0  0  0  0  0
  -29.7235  -11.8195   17.4249 H   0  0  0  0  0  0
  -29.6378  -13.5364   17.7702 H   0  0  0  0  0  0
  -27.7838  -11.3282   18.7402 H   0  0  0  0  0  0
  -27.3487  -12.7122   17.7923 H   0  0  0  0  0  0
  -27.7071  -14.2518   19.6535 H   0  0  0  0  0  0
  -28.6528  -11.7783   21.1200 H   0  0  0  0  0  0
  -28.3610  -13.1894   21.9412 H   0  0  0  0  0  0
  -25.2736   -9.5864   22.4761 H   0  0  0  0  0  0
  -23.9960   -7.4857   22.7788 H   0  0  0  0  0  0
  -21.0683   -8.8734   19.9206 H   0  0  0  0  0  0
  -22.3264  -10.9689   19.6397 H   0  0  0  0  0  0
  -21.1883   -7.6160   23.9877 H   0  0  0  0  0  0
  -21.1458   -6.0545   25.9183 H   0  0  0  0  0  0
  -22.0455   -2.7683   23.2863 H   0  0  0  0  0  0
  -21.1061  -13.1860   22.2491 H   0  0  0  0  0  0
  -22.3119  -11.9396   22.3747 H   0  0  0  0  0  0
  -24.6164  -15.7619   20.3171 H   0  0  0  0  0  0
  -26.1953  -15.4677   19.7825 H   0  0  0  0  0  0
  -26.7169  -32.5466   23.1092 H   0  0  0  0  0  0
  -25.0119  -33.9717   25.0442 H   0  0  0  0  0  0
  -22.7083  -31.3092   21.4052 H   0  0  0  0  0  0
  -23.3732  -35.9635   23.3308 H   0  0  0  0  0  0
  -24.3573  -36.8894   22.2039 H   0  0  0  0  0  0
  -23.7260  -37.6510   23.6654 H   0  0  0  0  0  0
  -26.0725  -31.5598   20.5916 H   0  0  0  0  0  0
  -26.8316  -30.8524   21.9931 H   0  0  0  0  0  0
  -28.1176  -29.0358   21.1644 H   0  0  0  0  0  0
  -26.0249  -25.9186   19.0428 H   0  0  0  0  0  0
  -23.9646  -27.2699   19.0579 H   0  0  0  0  0  0
  -23.7631  -30.5952   19.4119 H   0  0  0  0  0  0
  -22.7432  -29.2599   19.8528 H   0  0  0  0  0  0
  -25.1286  -36.1920   25.0803 H   0  0  0  0  0  0
  -20.9963  -28.3270   24.1399 H   0  0  0  0  0  0
  -20.5658  -26.2300   23.3606 H   0  0  0  0  0  0
  -21.6653  -26.7464   22.1207 H   0  0  0  0  0  0
  -19.6931  -25.6299   21.1225 H   0  0  0  0  0  0
  -19.6686  -27.3204   20.6725 H   0  0  0  0  0  0
  -17.4193  -26.6652   21.4017 H   0  0  0  0  0  0
  -18.0355  -26.0053   22.9011 H   0  0  0  0  0  0
  -19.7941  -30.7232   24.2290 H   0  0  0  0  0  0
  -17.5037  -31.6275   24.5158 H   0  0  0  0  0  0
  -15.5357  -30.3013   23.7641 H   0  0  0  0  0  0
  -15.8657  -28.0835   22.7063 H   0  0  0  0  0  0
  -24.5943  -30.7039   25.7822 H   0  0  0  0  0  0
  -24.8992  -32.2877   26.4907 H   0  0  0  0  0  0
  -25.8151  -30.8896   27.0212 H   0  0  0  0  0  0
  -26.2866  -29.6753   24.1152 H   0  0  0  0  0  0
  -27.4054  -29.7227   25.4582 H   0  0  0  0  0  0
  -27.8733  -30.4255   23.9273 H   0  0  0  0  0  0
  -27.2642  -33.3581   26.2064 H   0  0  0  0  0  0
  -28.3886  -32.6860   25.0336 H   0  0  0  0  0  0
  -28.0704  -31.8425   26.5416 H   0  0  0  0  0  0
  -28.2596  -38.0093   24.7492 H   0  0  0  0  0  0
  -28.1069  -36.2622   24.6328 H   0  0  0  0  0  0
  -27.2301  -37.1490   25.8881 H   0  0  0  0  0  0
  -20.9349  -29.8779   21.6917 H   0  0  0  0  0  0
  -26.0176  -38.2830   24.1401 H   0  0  0  0  0  0
  -25.7341  -18.9528   20.0910 H   0  0  0  0  0  0
  -25.9722  -20.1906   21.2802 H   0  0  0  0  0  0
  -26.8992  -15.2572   25.6497 H   0  0  0  0  0  0
  -27.9859  -16.5525   25.9928 H   0  0  0  0  0  0
  -27.3421  -20.7459   19.3422 H   0  0  0  0  0  0
  -27.9872  -19.1487   19.2654 H   0  0  0  0  0  0
  -26.7395  -17.1962   24.1780 H   0  0  0  0  0  0
  -26.8310  -15.7075   23.3264 H   0  0  0  0  0  0
  -28.7746  -13.8549   24.7102 H   0  0  0  0  0  0
  -29.0034  -14.3588   26.3473 H   0  0  0  0  0  0
  -26.2578  -17.3888   21.6456 H   0  0  0  0  0  0
  -26.4907  -18.6920   22.7831 H   0  0  0  0  0  0
  -28.7990  -19.7420   22.9793 H   0  0  0  0  0  0
  -30.1360  -19.0361   22.1397 H   0  0  0  0  0  0
  -31.4351  -16.2060   23.5181 H   0  0  0  0  0  0
  -31.1627  -14.4981   23.3921 H   0  0  0  0  0  0
  -29.7633  -20.2138   20.2413 H   0  0  0  0  0  0
  -28.8182  -14.8694   22.7442 H   0  0  0  0  0  0
  -29.2210  -17.5389   23.7408 H   0  0  0  0  0  0
  -29.6680  -22.0191   22.0161 H   0  0  0  0  0  0
  -27.9421  -21.9767   21.9593 H   0  0  0  0  0  0
  -27.5794  -24.2166   19.3370 H   0  0  0  0  0  0
  -27.0454  -23.7310   20.9003 H   0  0  0  0  0  0
  -29.5143  -25.2860   21.2046 H   0  0  0  0  0  0
  -27.9506  -25.6017   21.8801 H   0  0  0  0  0  0
  -30.4044  -16.3814   20.8711 H   0  0  0  0  0  0
  -30.9707  -14.8413   25.5272 H   0  0  0  0  0  0
  -30.2718  -16.2865   25.4716 H   0  0  0  0  0  0
  -28.5237  -17.5347   21.0572 H   0  0  0  0  0  0
  -28.6467  -22.3842   19.4140 H   0  0  0  0  0  0
  -29.8374  -23.1744   20.1251 H   0  0  0  0  0  0
  1 25  1  0  0  0
  1 30  2  0  0  0
  1 85  1  0  0  0
  2  3  1  0  0  0
  2 25  1  0  0  0
  2 89  1  0  0  0
  2 90  1  0  0  0
  3  4  1  0  0  0
  3 91  1  0  0  0
  3 92  1  0  0  0
  4  5  1  0  0  0
  4 93  1  0  0  0
  4 94  1  0  0  0
  5  6  1  0  0  0
  5 26  1  0  0  0
  5 95  1  0  0  0
  6 25  1  0  0  0
  6 96  1  0  0  0
  6 97  1  0  0  0
  7  8  2  0  0  0
  7 26  1  0  0  0
  7 29  1  0  0  0
  8  9  1  0  0  0
  8 22  1  0  0  0
  9 10  1  0  0  0
  9 27  2  0  0  0
 10 11  2  0  0  0
 10 15  1  0  0  0
 11 12  1  0  0  0
 11 98  1  0  0  0
 12 13  2  0  0  0
 12 99  1  0  0  0
 13 14  1  0  0  0
 13 31  1  0  0  0
 14 15  2  0  0  0
 14100  1  0  0  0
 15101  1  0  0  0
 16 17  2  0  0  0
 16 21  1  0  0  0
 16 31  1  0  0  0
 17 18  1  0  0  0
 17102  1  0  0  0
 18 19  2  0  0  0
 18103  1  0  0  0
 19 20  1  0  0  0
 19 24  1  0  0  0
 20 21  2  0  0  0
 20104  1  0  0  0
 21 23  1  0  0  0
 22 28  1  0  0  0
 22 32  2  0  0  0
 26 27  1  0  0  0
 28105  1  0  0  0
 28106  1  0  0  0
 29107  1  0  0  0
 29108  1  0  0  0
 33 34  1  0  0  0
 33 66  1  0  0  0
 33 70  2  0  0  0
 34 36  1  0  0  0
 34 59  1  0  0  0
 34109  1  0  0  0
 35 44  2  0  0  0
 35 45  1  0  0  0
 35 68  1  0  0  0
 36 56  1  0  0  0
 36110  1  0  0  0
 37 39  1  0  0  0
 37 47  1  0  0  0
 37 66  1  0  0  0
 37111  1  0  0  0
 38 43  2  0  0  0
 38 46  1  0  0  0
 38 47  1  0  0  0
 39 64  1  0  0  0
 39 67  2  0  0  0
 40 52  1  0  0  0
 40 53  2  0  0  0
 40 58  1  0  0  0
 41112  1  0  0  0
 41113  1  0  0  0
 41114  1  0  0  0
 41 48  1  0  0  0
 42 43  1  0  0  0
 42 66  1  0  0  0
 42115  1  0  0  0
 42116  1  0  0  0
 43 44  1  0  0  0
 44117  1  0  0  0
 45 46  2  0  0  0
 45118  1  0  0  0
 46119  1  0  0  0
 47120  1  0  0  0
 47121  1  0  0  0
 48 56  1  0  0  0
 48 65  1  0  0  0
 48122  1  0  0  0
 49 50  1  0  0  0
 49 53  1  0  0  0
 49 64  1  0  0  0
 49123  1  0  0  0
 50 51  1  0  0  0
 50124  1  0  0  0
 50125  1  0  0  0
 51 52  1  0  0  0
 51126  1  0  0  0
 51127  1  0  0  0
 52128  1  0  0  0
 52129  1  0  0  0
 53 54  1  0  0  0
 54 55  2  0  0  0
 54130  1  0  0  0
 55 57  1  0  0  0
 55131  1  0  0  0
 56 69  2  0  0  0
 57 58  2  0  0  0
 57132  1  0  0  0
 58133  1  0  0  0
 59 60  1  0  0  0
 59 61  1  0  0  0
 59 62  1  0  0  0
 60134  1  0  0  0
 60135  1  0  0  0
 60136  1  0  0  0
 61137  1  0  0  0
 61138  1  0  0  0
 61139  1  0  0  0
 62140  1  0  0  0
 62141  1  0  0  0
 62142  1  0  0  0
 63 65  1  0  0  0
 63143  1  0  0  0
 63144  1  0  0  0
 63145  1  0  0  0
 64146  1  0  0  0
 65147  1  0  0  0
 68 84  1  0  0  0
 71 73  1  0  0  0
 71 76  1  0  0  0
 71148  1  0  0  0
 71149  1  0  0  0
 72 74  1  0  0  0
 72 75  1  0  0  0
 72150  1  0  0  0
 72151  1  0  0  0
 73 79  1  0  0  0
 73152  1  0  0  0
 73153  1  0  0  0
 74154  1  0  0  0
 74155  1  0  0  0
 74 81  1  0  0  0
 75 86  1  0  0  0
 75156  1  0  0  0
 75157  1  0  0  0
 76158  1  0  0  0
 76159  1  0  0  0
 76 87  1  0  0  0
 77 79  1  0  0  0
 77 87  1  0  0  0
 77160  1  0  0  0
 77161  1  0  0  0
 78 80  1  0  0  0
 78 86  1  0  0  0
 78162  1  0  0  0
 78163  1  0  0  0
 79 82  1  0  0  0
 79164  1  0  0  0
 80 81  1  0  0  0
 80 85  1  0  0  0
 80165  1  0  0  0
 81 87  1  0  0  0
 81166  1  0  0  0
 82 88  1  0  0  0
 82167  1  0  0  0
 82168  1  0  0  0
 83 84  1  0  0  0
 83 88  1  0  0  0
 83169  1  0  0  0
 83170  1  0  0  0
 84171  1  0  0  0
 84172  1  0  0  0
 85173  1  0  0  0
 86174  1  0  0  0
 86175  1  0  0  0
 87176  1  0  0  0
 88177  1  0  0  0
 88178  1  0  0  0
M  CHG  3  86   1  87   1  88   1
M  ISO  4   1 100  68 101  84 101  85 100
M  END
> <chiral flag>
0

> <version>
0

> <s_m_source_file>
/data/baiqing/PycharmProjects/Reinvent-master-3.2/result/LINK_invent/BTK/process_docking_weight1_custom_sum_contain_oxygen_bond_distance_aromatic_linkinvent_7_9_3/rearranged_h_0126.sdf

> <i_m_source_file_index>
96

> <r_mmod_Potential_Energy-OPLS-2005>
-149.933898925781

> <r_mmod_Stretch_Energy-OPLS-2005>
74.9922866821289

> <r_mmod_Bend_Energy-OPLS-2005>
192.687210083008

> <r_mmod_Torsional_Energy-OPLS-2005>
467.195617675781

> <r_mmod_Improper_Torsional_Energy-OPLS-2005>
12.930064201355

> <r_mmod_Van_der_Waal_Energy-OPLS-2005>
145.386123657227

> <r_mmod_Electrostatic_Energy-OPLS-2005>
562.061340332031

> <r_mmod_Solvation_Energy-OPLS-2005>
-1629.16662597656

> <b_mmod_Minimization_Converged-OPLS-2005>
0

> <r_mmod_RMS_Derivative-OPLS-2005>
10.2472610473633

$$$$
96
                    3D
 Structure written by MMmdl.
157165  0  0  1  0            999 V2000
  -30.6347  -14.6720   20.4948 C   0  0  0  0  0  0
  -30.4285  -12.4160   19.4561 C   0  0  0  0  0  0
  -29.4996  -12.4922   18.2260 C   0  0  0  0  0  0
  -28.0266  -12.3258   18.6448 C   0  0  0  0  0  0
  -27.6426  -13.2211   19.8521 C   0  0  2  0  0  0
  -28.6880  -13.1236   20.9836 C   0  0  0  0  0  0
  -25.2510  -13.8177   20.5669 C   0  0  0  0  0  0
  -24.1793  -13.0433   20.9207 C   0  0  0  0  0  0
  -24.6381  -11.6917   20.8764 C   0  0  0  0  0  0
  -23.9061  -10.4290   21.0412 C   0  0  0  0  0  0
  -24.3612   -9.4198   21.9186 C   0  0  0  0  0  0
  -23.6287   -8.2232   22.0755 C   0  0  0  0  0  0
  -22.4270   -8.0275   21.3545 C   0  0  0  0  0  0
  -21.9909   -9.0248   20.4643 C   0  0  0  0  0  0
  -22.7238  -10.2131   20.3054 C   0  0  0  0  0  0
  -21.6852   -6.0731   22.5278 C   0  0  0  0  0  0
  -21.4011   -6.5637   23.8210 C   0  0  0  0  0  0
  -21.3658   -5.6791   24.9172 C   0  0  0  0  0  0
  -21.6046   -4.3055   24.7223 C   0  0  0  0  0  0
  -21.8822   -3.8144   23.4343 C   0  0  0  0  0  0
  -21.9190   -4.6959   22.3397 C   0  0  0  0  0  0
  -22.7818  -13.5219   21.1865 C   0  0  0  0  0  0
  -22.1660   -4.2145   21.0977 F   0  0  0  0  0  0
  -21.5629   -3.4540   25.7735 F   0  0  0  0  0  0
  -29.9935  -13.4639   20.4034 N   0  0  0  0  0  0
  -26.2933  -12.9372   20.3285 N   0  0  0  0  0  0
  -25.9303  -11.6526   20.5760 N   0  0  0  0  0  0
  -22.0472  -12.8207   22.0425 N   0  0  0  0  0  0
  -25.4207  -15.1892   20.4037 N   0  0  0  0  0  0
  -31.8200  -14.7807   20.1712 O   0  0  0  0  0  0
  -21.6640   -6.8873   21.4240 O   0  0  0  0  0  0
  -22.3503  -14.5526   20.6716 O   0  0  0  0  0  0
  -24.6287  -31.8587   23.2029 C   0  0  0  0  0  0
  -25.9119  -32.4770   23.8365 C   0  0  1  0  0  0
  -27.2206  -27.2959   20.1035 C   0  0  0  0  0  0
  -25.5939  -33.8578   24.2285 N   0  0  0  0  0  0
  -23.4231  -30.4848   21.5466 C   0  0  2  0  0  0
  -24.8654  -28.9396   20.1113 C   0  0  0  0  0  0
  -22.7491  -29.4625   22.4922 C   0  0  0  0  0  0
  -18.0308  -28.1367   22.8493 C   0  0  0  0  0  0
  -24.1474  -36.7287   23.2619 C   0  0  0  0  0  0
  -25.9682  -30.7813   21.3781 C   0  0  0  0  0  0
  -26.0383  -29.4085   20.7153 C   0  0  0  0  0  0
  -27.2144  -28.5982   20.7036 C   0  0  0  0  0  0
  -26.0097  -26.8764   19.5028 C   0  0  0  0  0  0
  -24.8546  -27.6786   19.5000 C   0  0  0  0  0  0
  -23.6369  -29.8240   20.1605 C   0  0  0  0  0  0
  -25.4096  -36.3081   24.0317 C   0  0  1  0  0  0
  -20.5910  -28.3678   23.1269 C   0  0  2  0  0  0
  -20.6795  -26.9402   22.5395 C   0  0  0  0  0  0
  -19.5763  -26.6374   21.5202 C   0  0  0  0  0  0
  -18.1943  -26.7924   22.1611 C   0  0  0  0  0  0
  -19.1561  -28.8843   23.2877 C   0  0  0  0  0  0
  -18.9471  -30.1449   23.8869 C   0  0  0  0  0  0
  -17.6473  -30.6566   24.0559 C   0  0  0  0  0  0
  -25.9056  -34.9451   23.5103 C   0  0  0  0  0  0
  -16.5361  -29.9063   23.6329 C   0  0  0  0  0  0
  -16.7300  -28.6485   23.0348 C   0  0  0  0  0  0
  -26.4502  -31.6581   25.0728 C   0  0  0  0  0  0
  -25.3737  -31.3697   26.1452 C   0  0  0  0  0  0
  -27.0370  -30.3010   24.6198 C   0  0  0  0  0  0
  -27.6079  -32.4340   25.7469 C   0  0  0  0  0  0
  -27.5627  -37.1720   24.8410 C   0  0  0  0  0  0
  -21.4208  -29.3031   22.3642 N   0  0  0  0  0  0
  -26.4252  -37.3808   23.9484 N   0  0  0  0  0  0
  -24.6927  -31.0584   22.0989 N   0  0  0  0  0  0
  -23.4207  -28.8165   23.3009 O   0  0  0  0  0  0
  -28.3400  -26.4427   20.1895 O   0  0  0  0  0  0
  -26.5614  -34.8922   22.4667 O   0  0  0  0  0  0
  -23.5438  -32.1402   23.7337 O   0  0  0  0  0  0
  -29.5523  -23.5646   21.0919 C   0  0  0  0  0  0
  -29.8880  -22.2256   21.4569 C   0  0  0  0  0  0
  -28.3562  -22.6265   19.2596 C   0  0  0  0  0  0
  -28.7701  -23.8113   19.9419 C   0  0  0  0  0  0
  -29.4519  -21.1117   20.6956 C   0  0  0  0  0  0
  -29.6689  -25.6362   18.4053 C   0  0  0  0  0  0
  -30.6913  -17.2951   22.5326 C   0  0  0  0  0  0
  -29.4067  -18.4393   20.5996 C   0  0  0  0  0  0
  -28.5067  -25.2477   19.3255 C   0  0  2  0  0  0
  -30.3516  -17.2054   21.0337 C   0  0  2  0  0  0
  -28.6694  -21.3353   19.6151 N   0  0  0  0  0  0
  -29.8816  -19.7893   21.0535 N   0  0  0  0  0  0
  -29.8786  -15.7879   20.7844 N   0  0  0  0  0  0
  -31.4679  -12.5404   19.1497 H   0  0  0  0  0  0
  -30.3711  -11.4332   19.9270 H   0  0  0  0  0  0
  -29.7692  -11.7239   17.5010 H   0  0  0  0  0  0
  -29.6319  -13.4501   17.7214 H   0  0  0  0  0  0
  -27.8784  -11.2775   18.9045 H   0  0  0  0  0  0
  -27.3664  -12.5227   17.7998 H   0  0  0  0  0  0
  -27.6481  -14.2457   19.4816 H   0  0  0  0  0  0
  -28.7107  -12.1176   21.4044 H   0  0  0  0  0  0
  -28.4315  -13.7912   21.8081 H   0  0  0  0  0  0
  -25.2748   -9.5680   22.4769 H   0  0  0  0  0  0
  -23.9997   -7.4625   22.7474 H   0  0  0  0  0  0
  -21.0842   -8.8760   19.8942 H   0  0  0  0  0  0
  -22.3685  -10.9670   19.6165 H   0  0  0  0  0  0
  -21.2008   -7.6149   23.9711 H   0  0  0  0  0  0
  -21.1478   -6.0523   25.9076 H   0  0  0  0  0  0
  -22.0604   -2.7609   23.2842 H   0  0  0  0  0  0
  -22.4096  -11.9864   22.4797 H   0  0  0  0  0  0
  -21.1083  -13.1218   22.2636 H   0  0  0  0  0  0
  -24.6487  -15.8403   20.4960 H   0  0  0  0  0  0
  -26.2583  -15.6232   20.0382 H   0  0  0  0  0  0
  -26.7175  -32.5419   23.1101 H   0  0  0  0  0  0
  -25.0111  -33.9721   25.0444 H   0  0  0  0  0  0
  -22.7180  -31.3066   21.4053 H   0  0  0  0  0  0
  -23.3779  -35.9564   23.3170 H   0  0  0  0  0  0
  -24.3621  -36.9053   22.2066 H   0  0  0  0  0  0
  -23.7137  -37.6410   23.6726 H   0  0  0  0  0  0
  -26.1061  -31.5465   20.6127 H   0  0  0  0  0  0
  -26.8463  -30.8257   22.0107 H   0  0  0  0  0  0
  -28.1150  -28.9562   21.1826 H   0  0  0  0  0  0
  -25.8842  -25.8978   19.0703 H   0  0  0  0  0  0
  -23.9467  -27.3021   19.0467 H   0  0  0  0  0  0
  -23.7616  -30.6015   19.4064 H   0  0  0  0  0  0
  -22.7548  -29.2593   19.8536 H   0  0  0  0  0  0
  -25.1243  -36.1917   25.0795 H   0  0  0  0  0  0
  -20.9998  -28.3257   24.1394 H   0  0  0  0  0  0
  -20.5719  -26.2279   23.3589 H   0  0  0  0  0  0
  -21.6660  -26.7443   22.1176 H   0  0  0  0  0  0
  -19.6912  -25.6287   21.1232 H   0  0  0  0  0  0
  -19.6691  -27.3165   20.6721 H   0  0  0  0  0  0
  -17.4219  -26.6693   21.4001 H   0  0  0  0  0  0
  -18.0327  -26.0058   22.8995 H   0  0  0  0  0  0
  -19.7949  -30.7292   24.2197 H   0  0  0  0  0  0
  -17.5023  -31.6244   24.5168 H   0  0  0  0  0  0
  -15.5354  -30.2947   23.7670 H   0  0  0  0  0  0
  -15.8715  -28.0800   22.7051 H   0  0  0  0  0  0
  -24.5937  -30.7014   25.7778 H   0  0  0  0  0  0
  -24.8855  -32.2834   26.4852 H   0  0  0  0  0  0
  -25.8063  -30.8901   27.0242 H   0  0  0  0  0  0
  -26.2945  -29.6710   24.1271 H   0  0  0  0  0  0
  -27.4135  -29.7319   25.4710 H   0  0  0  0  0  0
  -27.8801  -30.4316   23.9410 H   0  0  0  0  0  0
  -27.2722  -33.3691   26.1967 H   0  0  0  0  0  0
  -28.3889  -32.6824   25.0269 H   0  0  0  0  0  0
  -28.0731  -31.8510   26.5419 H   0  0  0  0  0  0
  -28.2402  -38.0248   24.7857 H   0  0  0  0  0  0
  -28.1373  -36.2830   24.5750 H   0  0  0  0  0  0
  -27.2434  -37.0788   25.8804 H   0  0  0  0  0  0
  -20.9362  -29.8770   21.6880 H   0  0  0  0  0  0
  -26.0123  -38.2823   24.1732 H   0  0  0  0  0  0
  -29.9293  -24.3965   21.6694 H   0  0  0  0  0  0
  -30.5117  -22.0755   22.3268 H   0  0  0  0  0  0
  -27.7795  -22.7146   18.3508 H   0  0  0  0  0  0
  -29.7944  -24.9151   17.5966 H   0  0  0  0  0  0
  -30.6086  -25.6950   18.9572 H   0  0  0  0  0  0
  -29.4913  -26.6103   17.9461 H   0  0  0  0  0  0
  -31.2188  -18.2158   22.7801 H   0  0  0  0  0  0
  -31.3394  -16.4747   22.8429 H   0  0  0  0  0  0
  -29.7893  -17.2516   23.1454 H   0  0  0  0  0  0
  -28.4117  -18.2921   21.0213 H   0  0  0  0  0  0
  -29.2789  -18.4530   19.5167 H   0  0  0  0  0  0
  -27.6669  -25.1139   18.6530 H   0  0  0  0  0  0
  -31.2853  -17.3293   20.4814 H   0  0  0  0  0  0
  -30.4943  -19.7488   21.8609 H   0  0  0  0  0  0
  -28.8974  -15.6136   20.9418 H   0  0  0  0  0  0
  1 25  1  0  0  0
  1 30  2  0  0  0
  1 83  1  0  0  0
  2  3  1  0  0  0
  2 25  1  0  0  0
  2 84  1  0  0  0
  2 85  1  0  0  0
  3  4  1  0  0  0
  3 86  1  0  0  0
  3 87  1  0  0  0
  4  5  1  0  0  0
  4 88  1  0  0  0
  4 89  1  0  0  0
  5  6  1  0  0  0
  5 26  1  0  0  0
  5 90  1  0  0  0
  6 25  1  0  0  0
  6 91  1  0  0  0
  6 92  1  0  0  0
  7  8  2  0  0  0
  7 26  1  0  0  0
  7 29  1  0  0  0
  8  9  1  0  0  0
  8 22  1  0  0  0
  9 10  1  0  0  0
  9 27  2  0  0  0
 10 11  2  0  0  0
 10 15  1  0  0  0
 11 12  1  0  0  0
 11 93  1  0  0  0
 12 13  2  0  0  0
 12 94  1  0  0  0
 13 14  1  0  0  0
 13 31  1  0  0  0
 14 15  2  0  0  0
 14 95  1  0  0  0
 15 96  1  0  0  0
 16 17  2  0  0  0
 16 21  1  0  0  0
 16 31  1  0  0  0
 17 18  1  0  0  0
 17 97  1  0  0  0
 18 19  2  0  0  0
 18 98  1  0  0  0
 19 20  1  0  0  0
 19 24  1  0  0  0
 20 21  2  0  0  0
 20 99  1  0  0  0
 21 23  1  0  0  0
 22 28  1  0  0  0
 22 32  2  0  0  0
 26 27  1  0  0  0
 28100  1  0  0  0
 28101  1  0  0  0
 29102  1  0  0  0
 29103  1  0  0  0
 33 34  1  0  0  0
 33 66  1  0  0  0
 33 70  2  0  0  0
 34 36  1  0  0  0
 34 59  1  0  0  0
 34104  1  0  0  0
 35 44  2  0  0  0
 35 45  1  0  0  0
 35 68  1  0  0  0
 36 56  1  0  0  0
 36105  1  0  0  0
 37 39  1  0  0  0
 37 47  1  0  0  0
 37 66  1  0  0  0
 37106  1  0  0  0
 38 43  2  0  0  0
 38 46  1  0  0  0
 38 47  1  0  0  0
 39 64  1  0  0  0
 39 67  2  0  0  0
 40 52  1  0  0  0
 40 53  2  0  0  0
 40 58  1  0  0  0
 41107  1  0  0  0
 41108  1  0  0  0
 41109  1  0  0  0
 41 48  1  0  0  0
 42 43  1  0  0  0
 42 66  1  0  0  0
 42110  1  0  0  0
 42111  1  0  0  0
 43 44  1  0  0  0
 44112  1  0  0  0
 45 46  2  0  0  0
 45113  1  0  0  0
 46114  1  0  0  0
 47115  1  0  0  0
 47116  1  0  0  0
 48 56  1  0  0  0
 48 65  1  0  0  0
 48117  1  0  0  0
 49 50  1  0  0  0
 49 53  1  0  0  0
 49 64  1  0  0  0
 49118  1  0  0  0
 50 51  1  0  0  0
 50119  1  0  0  0
 50120  1  0  0  0
 51 52  1  0  0  0
 51121  1  0  0  0
 51122  1  0  0  0
 52123  1  0  0  0
 52124  1  0  0  0
 53 54  1  0  0  0
 54 55  2  0  0  0
 54125  1  0  0  0
 55 57  1  0  0  0
 55126  1  0  0  0
 56 69  2  0  0  0
 57 58  2  0  0  0
 57127  1  0  0  0
 58128  1  0  0  0
 59 60  1  0  0  0
 59 61  1  0  0  0
 59 62  1  0  0  0
 60129  1  0  0  0
 60130  1  0  0  0
 60131  1  0  0  0
 61132  1  0  0  0
 61133  1  0  0  0
 61134  1  0  0  0
 62135  1  0  0  0
 62136  1  0  0  0
 62137  1  0  0  0
 63 65  1  0  0  0
 63138  1  0  0  0
 63139  1  0  0  0
 63140  1  0  0  0
 64141  1  0  0  0
 65142  1  0  0  0
 68 79  1  0  0  0
 71 72  2  0  0  0
 71 74  1  0  0  0
 71143  1  0  0  0
 72 75  1  0  0  0
 72144  1  0  0  0
 73 74  2  0  0  0
 73 81  1  0  0  0
 73145  1  0  0  0
 74 79  1  0  0  0
 75 81  2  0  0  0
 75 82  1  0  0  0
 76146  1  0  0  0
 76147  1  0  0  0
 76148  1  0  0  0
 76 79  1  0  0  0
 77149  1  0  0  0
 77150  1  0  0  0
 77151  1  0  0  0
 77 80  1  0  0  0
 78 80  1  0  0  0
 78 82  1  0  0  0
 78152  1  0  0  0
 78153  1  0  0  0
 79154  1  0  0  0
 80 83  1  0  0  0
 80155  1  0  0  0
 82156  1  0  0  0
 83157  1  0  0  0
M  ISO  4   1 100  68 101  79 101  83 100
M  END
> <chiral flag>
0

> <version>
0

> <s_m_source_file>
/data/baiqing/PycharmProjects/Reinvent-master-3.2/result/LINK_invent/BTK/process_docking_weight1_custom_sum_contain_oxygen_bond_distance_aromatic_linkinvent_7_9_3/rearranged_h_0126.sdf

> <i_m_source_file_index>
97

> <r_mmod_Potential_Energy-OPLS-2005>
-173.091079711914

> <r_mmod_Stretch_Energy-OPLS-2005>
87.4590911865234

> <r_mmod_Bend_Energy-OPLS-2005>
169.894546508789

> <r_mmod_Torsional_Energy-OPLS-2005>
207.770248413086

> <r_mmod_Improper_Torsional_Energy-OPLS-2005>
5.23143482208252

> <r_mmod_Van_der_Waal_Energy-OPLS-2005>
145.48779296875

> <r_mmod_Electrostatic_Energy-OPLS-2005>
-619.208801269531

> <r_mmod_Solvation_Energy-OPLS-2005>
-231.634506225586

> <b_mmod_Minimization_Converged-OPLS-2005>
0

> <r_mmod_RMS_Derivative-OPLS-2005>
2.21630525588989

$$$$
97
                    3D
 Structure written by MMmdl.
162171  0  0  1  0            999 V2000
  -30.4712  -15.2055   20.3792 C   0  0  0  0  0  0
  -30.4352  -12.7683   19.5209 C   0  0  0  0  0  0
  -29.5301  -12.5676   18.2808 C   0  0  0  0  0  0
  -28.0759  -12.3024   18.7079 C   0  0  0  0  0  0
  -27.6123  -13.2723   19.8237 C   0  0  2  0  0  0
  -28.6481  -13.4299   20.9576 C   0  0  0  0  0  0
  -25.2399  -13.8255   20.5756 C   0  0  0  0  0  0
  -24.1746  -13.0446   20.9266 C   0  0  0  0  0  0
  -24.6390  -11.6937   20.8768 C   0  0  0  0  0  0
  -23.9083  -10.4295   21.0408 C   0  0  0  0  0  0
  -24.3630   -9.4208   21.9186 C   0  0  0  0  0  0
  -23.6300   -8.2247   22.0756 C   0  0  0  0  0  0
  -22.4282   -8.0282   21.3548 C   0  0  0  0  0  0
  -21.9918   -9.0258   20.4650 C   0  0  0  0  0  0
  -22.7251  -10.2136   20.3056 C   0  0  0  0  0  0
  -21.6856   -6.0736   22.5278 C   0  0  0  0  0  0
  -21.4018   -6.5643   23.8211 C   0  0  0  0  0  0
  -21.3658   -5.6796   24.9176 C   0  0  0  0  0  0
  -21.6041   -4.3057   24.7229 C   0  0  0  0  0  0
  -21.8817   -3.8147   23.4349 C   0  0  0  0  0  0
  -21.9193   -4.6963   22.3405 C   0  0  0  0  0  0
  -22.7763  -13.5205   21.1907 C   0  0  0  0  0  0
  -22.1660   -4.2145   21.0983 F   0  0  0  0  0  0
  -21.5624   -3.4541   25.7743 F   0  0  0  0  0  0
  -29.8889  -13.9130   20.3328 N   0  0  0  0  0  0
  -26.2818  -12.9520   20.3224 N   0  0  0  0  0  0
  -25.9326  -11.6626   20.5731 N   0  0  0  0  0  0
  -22.0417  -12.8185   22.0454 N   0  0  0  0  0  0
  -25.4040  -15.1991   20.4182 N   0  0  0  0  0  0
  -31.6907  -15.2014   20.1655 O   0  0  0  0  0  0
  -21.6645   -6.8880   21.4238 O   0  0  0  0  0  0
  -22.3454  -14.5512   20.6751 O   0  0  0  0  0  0
  -24.6599  -31.8276   23.1740 C   0  0  0  0  0  0
  -25.9297  -32.4609   23.8186 C   0  0  1  0  0  0
  -27.2150  -26.9596   20.1802 C   0  0  0  0  0  0
  -25.5978  -33.8421   24.2088 N   0  0  0  0  0  0
  -23.4734  -30.4423   21.5210 C   0  0  2  0  0  0
  -24.9271  -28.8391   20.1098 C   0  0  0  0  0  0
  -22.7664  -29.4469   22.4776 C   0  0  0  0  0  0
  -18.0328  -28.1415   22.8474 C   0  0  0  0  0  0
  -24.1494  -36.7208   23.2651 C   0  0  0  0  0  0
  -26.0420  -30.6429   21.4028 C   0  0  0  0  0  0
  -26.1094  -29.2377   20.7452 C   0  0  0  0  0  0
  -27.2494  -28.3180   20.7600 C   0  0  0  0  0  0
  -26.0059  -26.7128   19.4904 C   0  0  0  0  0  0
  -24.8987  -27.5954   19.4631 C   0  0  0  0  0  0
  -23.7124  -29.7625   20.1451 C   0  0  0  0  0  0
  -25.4136  -36.2976   24.0306 C   0  0  1  0  0  0
  -20.5955  -28.3758   23.1188 C   0  0  2  0  0  0
  -20.6812  -26.9443   22.5402 C   0  0  0  0  0  0
  -19.5778  -26.6379   21.5226 C   0  0  0  0  0  0
  -18.1958  -26.7950   22.1628 C   0  0  0  0  0  0
  -19.1594  -28.8907   23.2819 C   0  0  0  0  0  0
  -18.9507  -30.1500   23.8848 C   0  0  0  0  0  0
  -17.6498  -30.6603   24.0563 C   0  0  0  0  0  0
  -25.9099  -34.9363   23.5015 C   0  0  0  0  0  0
  -16.5388  -29.9093   23.6349 C   0  0  0  0  0  0
  -16.7311  -28.6516   23.0359 C   0  0  0  0  0  0
  -26.4552  -31.6544   25.0702 C   0  0  0  0  0  0
  -25.3679  -31.3801   26.1358 C   0  0  0  0  0  0
  -27.0459  -30.2916   24.6431 C   0  0  0  0  0  0
  -27.6044  -32.4355   25.7492 C   0  0  0  0  0  0
  -27.5568  -37.1763   24.8469 C   0  0  0  0  0  0
  -21.4341  -29.3053   22.3538 N   0  0  0  0  0  0
  -26.4274  -37.3715   23.9418 N   0  0  0  0  0  0
  -24.7459  -30.9976   22.0856 N   0  0  0  0  0  0
  -23.4237  -28.8037   23.3004 O   0  0  0  0  0  0
  -28.1992  -25.8477   20.2738 O   0  0  0  0  0  0
  -26.5706  -34.8894   22.4607 O   0  0  0  0  0  0
  -23.5676  -32.1222   23.6854 O   0  0  0  0  0  0
  -28.1329  -21.7125   21.2309 C   0  0  0  0  0  0
  -29.4225  -21.9710   19.3683 C   0  0  0  0  0  0
  -28.5341  -20.2769   21.2985 C   0  0  0  0  0  0
  -28.5577  -22.7192   20.2651 C   0  0  0  0  0  0
  -29.4041  -19.6311   20.3294 C   0  0  0  0  0  0
  -28.0377  -20.0994   23.8294 C   0  0  0  0  0  0
  -26.6013  -18.8597   22.1665 C   0  0  0  0  0  0
  -27.5391  -19.1468   24.9349 C   0  0  0  0  0  0
  -26.1286  -17.9341   23.3072 C   0  0  0  0  0  0
  -28.0119  -19.4088   22.4475 C   0  0  0  0  0  0
  -27.8255  -24.2816   20.0147 C   0  0  0  0  0  0
  -30.1626  -18.0620   20.3448 C   0  0  0  0  0  0
  -29.8082  -20.5997   19.4075 N   0  0  0  0  0  0
  -29.7311  -16.4755   20.4598 N   0  0  0  0  0  0
  -26.1936  -18.6164   24.6193 N   0  3  0  0  0  0
  -31.4590  -12.9561   19.1946 H   0  0  0  0  0  0
  -30.4827  -11.8572   20.1190 H   0  0  0  0  0  0
  -29.8999  -11.7440   17.6684 H   0  0  0  0  0  0
  -29.5698  -13.4601   17.6543 H   0  0  0  0  0  0
  -28.0222  -11.2753   19.0710 H   0  0  0  0  0  0
  -27.4075  -12.3577   17.8479 H   0  0  0  0  0  0
  -27.5335  -14.2438   19.3340 H   0  0  0  0  0  0
  -28.8011  -12.4933   21.4955 H   0  0  0  0  0  0
  -28.2981  -14.1578   21.6914 H   0  0  0  0  0  0
  -25.2773   -9.5687   22.4764 H   0  0  0  0  0  0
  -24.0005   -7.4639   22.7478 H   0  0  0  0  0  0
  -21.0851   -8.8780   19.8959 H   0  0  0  0  0  0
  -22.3705  -10.9677   19.6170 H   0  0  0  0  0  0
  -21.2012   -7.6152   23.9714 H   0  0  0  0  0  0
  -21.1480   -6.0530   25.9079 H   0  0  0  0  0  0
  -22.0595   -2.7608   23.2857 H   0  0  0  0  0  0
  -22.4038  -11.9843   22.4829 H   0  0  0  0  0  0
  -21.1029  -13.1195   22.2660 H   0  0  0  0  0  0
  -24.6068  -15.8249   20.4539 H   0  0  0  0  0  0
  -26.2158  -15.6174   19.9851 H   0  0  0  0  0  0
  -26.7362  -32.5150   23.0896 H   0  0  0  0  0  0
  -25.0086  -33.9507   25.0212 H   0  0  0  0  0  0
  -22.7850  -31.2736   21.3534 H   0  0  0  0  0  0
  -23.3766  -35.9525   23.3284 H   0  0  0  0  0  0
  -24.3573  -36.8877   22.2070 H   0  0  0  0  0  0
  -23.7230  -37.6384   23.6718 H   0  0  0  0  0  0
  -26.2240  -31.3870   20.6262 H   0  0  0  0  0  0
  -26.9017  -30.6950   22.0587 H   0  0  0  0  0  0
  -28.1387  -28.6178   21.2959 H   0  0  0  0  0  0
  -25.8696  -25.7662   18.9893 H   0  0  0  0  0  0
  -24.0002  -27.2841   18.9484 H   0  0  0  0  0  0
  -23.8684  -30.5325   19.3891 H   0  0  0  0  0  0
  -22.8233  -29.2169   19.8248 H   0  0  0  0  0  0
  -25.1332  -36.1767   25.0796 H   0  0  0  0  0  0
  -21.0045  -28.3359   24.1312 H   0  0  0  0  0  0
  -20.5712  -26.2381   23.3645 H   0  0  0  0  0  0
  -21.6673  -26.7433   22.1197 H   0  0  0  0  0  0
  -19.6944  -25.6279   21.1282 H   0  0  0  0  0  0
  -19.6711  -27.3175   20.6743 H   0  0  0  0  0  0
  -17.4237  -26.6707   21.4021 H   0  0  0  0  0  0
  -18.0334  -26.0102   22.9028 H   0  0  0  0  0  0
  -19.7985  -30.7332   24.2183 H   0  0  0  0  0  0
  -17.5055  -31.6280   24.5177 H   0  0  0  0  0  0
  -15.5387  -30.2980   23.7707 H   0  0  0  0  0  0
  -15.8713  -28.0825   22.7084 H   0  0  0  0  0  0
  -24.5870  -30.7146   25.7659 H   0  0  0  0  0  0
  -24.8864  -32.3014   26.4645 H   0  0  0  0  0  0
  -25.7904  -30.9049   27.0219 H   0  0  0  0  0  0
  -26.3140  -29.6579   24.1415 H   0  0  0  0  0  0
  -27.3986  -29.7282   25.5079 H   0  0  0  0  0  0
  -27.9076  -30.4112   23.9860 H   0  0  0  0  0  0
  -27.2615  -33.3704   26.1931 H   0  0  0  0  0  0
  -28.3914  -32.6836   25.0359 H   0  0  0  0  0  0
  -28.0644  -31.8574   26.5513 H   0  0  0  0  0  0
  -28.2570  -38.0071   24.7514 H   0  0  0  0  0  0
  -28.1074  -36.2599   24.6293 H   0  0  0  0  0  0
  -27.2290  -37.1396   25.8872 H   0  0  0  0  0  0
  -20.9590  -29.8737   21.6663 H   0  0  0  0  0  0
  -26.0118  -38.2772   24.1422 H   0  0  0  0  0  0
  -27.4127  -22.0591   21.9561 H   0  0  0  0  0  0
  -29.8055  -22.4944   18.5050 H   0  0  0  0  0  0
  -29.0509  -20.4293   24.0643 H   0  0  0  0  0  0
  -27.4121  -20.9913   23.8410 H   0  0  0  0  0  0
  -25.8930  -19.6786   22.0356 H   0  0  0  0  0  0
  -26.5979  -18.3001   21.2303 H   0  0  0  0  0  0
  -27.5057  -19.6665   25.8930 H   0  0  0  0  0  0
  -28.2350  -18.3153   25.0553 H   0  0  0  0  0  0
  -26.7485  -17.0364   23.3413 H   0  0  0  0  0  0
  -25.1077  -17.5978   23.1231 H   0  0  0  0  0  0
  -28.6807  -18.5509   22.5274 H   0  0  0  0  0  0
  -26.8573  -24.1695   20.5026 H   0  0  0  0  0  0
  -27.5923  -24.2545   18.9507 H   0  0  0  0  0  0
  -30.9009  -18.1679   21.1400 H   0  0  0  0  0  0
  -30.7674  -18.0756   19.4376 H   0  0  0  0  0  0
  -28.7377  -16.3463   20.5731 H   0  0  0  0  0  0
  -25.5231  -19.3682   24.6395 H   0  0  0  0  0  0
  -25.9239  -17.9648   25.3400 H   0  0  0  0  0  0
  1 25  1  0  0  0
  1 30  2  0  0  0
  1 84  1  0  0  0
  2  3  1  0  0  0
  2 25  1  0  0  0
  2 86  1  0  0  0
  2 87  1  0  0  0
  3  4  1  0  0  0
  3 88  1  0  0  0
  3 89  1  0  0  0
  4  5  1  0  0  0
  4 90  1  0  0  0
  4 91  1  0  0  0
  5  6  1  0  0  0
  5 26  1  0  0  0
  5 92  1  0  0  0
  6 25  1  0  0  0
  6 93  1  0  0  0
  6 94  1  0  0  0
  7  8  2  0  0  0
  7 26  1  0  0  0
  7 29  1  0  0  0
  8  9  1  0  0  0
  8 22  1  0  0  0
  9 10  1  0  0  0
  9 27  2  0  0  0
 10 11  2  0  0  0
 10 15  1  0  0  0
 11 12  1  0  0  0
 11 95  1  0  0  0
 12 13  2  0  0  0
 12 96  1  0  0  0
 13 14  1  0  0  0
 13 31  1  0  0  0
 14 15  2  0  0  0
 14 97  1  0  0  0
 15 98  1  0  0  0
 16 17  2  0  0  0
 16 21  1  0  0  0
 16 31  1  0  0  0
 17 18  1  0  0  0
 17 99  1  0  0  0
 18 19  2  0  0  0
 18100  1  0  0  0
 19 20  1  0  0  0
 19 24  1  0  0  0
 20 21  2  0  0  0
 20101  1  0  0  0
 21 23  1  0  0  0
 22 28  1  0  0  0
 22 32  2  0  0  0
 26 27  1  0  0  0
 28102  1  0  0  0
 28103  1  0  0  0
 29104  1  0  0  0
 29105  1  0  0  0
 33 34  1  0  0  0
 33 66  1  0  0  0
 33 70  2  0  0  0
 34 36  1  0  0  0
 34 59  1  0  0  0
 34106  1  0  0  0
 35 44  2  0  0  0
 35 45  1  0  0  0
 35 68  1  0  0  0
 36 56  1  0  0  0
 36107  1  0  0  0
 37 39  1  0  0  0
 37 47  1  0  0  0
 37 66  1  0  0  0
 37108  1  0  0  0
 38 43  2  0  0  0
 38 46  1  0  0  0
 38 47  1  0  0  0
 39 64  1  0  0  0
 39 67  2  0  0  0
 40 52  1  0  0  0
 40 53  2  0  0  0
 40 58  1  0  0  0
 41109  1  0  0  0
 41110  1  0  0  0
 41111  1  0  0  0
 41 48  1  0  0  0
 42 43  1  0  0  0
 42 66  1  0  0  0
 42112  1  0  0  0
 42113  1  0  0  0
 43 44  1  0  0  0
 44114  1  0  0  0
 45 46  2  0  0  0
 45115  1  0  0  0
 46116  1  0  0  0
 47117  1  0  0  0
 47118  1  0  0  0
 48 56  1  0  0  0
 48 65  1  0  0  0
 48119  1  0  0  0
 49 50  1  0  0  0
 49 53  1  0  0  0
 49 64  1  0  0  0
 49120  1  0  0  0
 50 51  1  0  0  0
 50121  1  0  0  0
 50122  1  0  0  0
 51 52  1  0  0  0
 51123  1  0  0  0
 51124  1  0  0  0
 52125  1  0  0  0
 52126  1  0  0  0
 53 54  1  0  0  0
 54 55  2  0  0  0
 54127  1  0  0  0
 55 57  1  0  0  0
 55128  1  0  0  0
 56 69  2  0  0  0
 57 58  2  0  0  0
 57129  1  0  0  0
 58130  1  0  0  0
 59 60  1  0  0  0
 59 61  1  0  0  0
 59 62  1  0  0  0
 60131  1  0  0  0
 60132  1  0  0  0
 60133  1  0  0  0
 61134  1  0  0  0
 61135  1  0  0  0
 61136  1  0  0  0
 62137  1  0  0  0
 62138  1  0  0  0
 62139  1  0  0  0
 63 65  1  0  0  0
 63140  1  0  0  0
 63141  1  0  0  0
 63142  1  0  0  0
 64143  1  0  0  0
 65144  1  0  0  0
 68 81  1  0  0  0
 71 73  2  0  0  0
 71 74  1  0  0  0
 71145  1  0  0  0
 72 74  2  0  0  0
 72 83  1  0  0  0
 72146  1  0  0  0
 73 75  1  0  0  0
 73 80  1  0  0  0
 74 81  1  0  0  0
 75 82  1  0  0  0
 75 83  2  0  0  0
 76 78  1  0  0  0
 76 80  1  0  0  0
 76147  1  0  0  0
 76148  1  0  0  0
 77 79  1  0  0  0
 77 80  1  0  0  0
 77149  1  0  0  0
 77150  1  0  0  0
 78 85  1  0  0  0
 78151  1  0  0  0
 78152  1  0  0  0
 79 85  1  0  0  0
 79153  1  0  0  0
 79154  1  0  0  0
 80155  1  0  0  0
 81156  1  0  0  0
 81157  1  0  0  0
 82 84  1  0  0  0
 82158  1  0  0  0
 82159  1  0  0  0
 84160  1  0  0  0
 85161  1  0  0  0
 85162  1  0  0  0
M  CHG  1  85   1
M  ISO  4   1 100  68 101  81 101  84 100
M  END
> <chiral flag>
0

> <version>
0

> <s_m_source_file>
/data/baiqing/PycharmProjects/Reinvent-master-3.2/result/LINK_invent/BTK/process_docking_weight1_custom_sum_contain_oxygen_bond_distance_aromatic_linkinvent_7_9_3/rearranged_h_0126.sdf

> <i_m_source_file_index>
98

> <r_mmod_Potential_Energy-OPLS-2005>
715.443054199219

> <r_mmod_Stretch_Energy-OPLS-2005>
464.597351074219

> <r_mmod_Bend_Energy-OPLS-2005>
424.134185791016

> <r_mmod_Torsional_Energy-OPLS-2005>
253.970550537109

> <r_mmod_Improper_Torsional_Energy-OPLS-2005>
9.80793190002441

> <r_mmod_Van_der_Waal_Energy-OPLS-2005>
132.061965942383

> <r_mmod_Electrostatic_Energy-OPLS-2005>
-452.286834716797

> <r_mmod_Solvation_Energy-OPLS-2005>
-526.046508789062

> <b_mmod_Minimization_Converged-OPLS-2005>
0

> <r_mmod_RMS_Derivative-OPLS-2005>
1.03012537956238

$$$$
98
                    3D
 Structure written by MMmdl.
152160  0  0  1  0            999 V2000
  -30.6098  -14.7648   20.5063 C   0  0  0  0  0  0
  -30.4445  -12.4846   19.4645 C   0  0  0  0  0  0
  -29.5123  -12.5130   18.2328 C   0  0  0  0  0  0
  -28.0364  -12.3364   18.6445 C   0  0  0  0  0  0
  -27.6424  -13.2316   19.8501 C   0  0  2  0  0  0
  -28.6902  -13.1627   20.9821 C   0  0  0  0  0  0
  -25.2520  -13.8179   20.5713 C   0  0  0  0  0  0
  -24.1803  -13.0438   20.9235 C   0  0  0  0  0  0
  -24.6380  -11.6913   20.8763 C   0  0  0  0  0  0
  -23.9058  -10.4292   21.0409 C   0  0  0  0  0  0
  -24.3606   -9.4203   21.9194 C   0  0  0  0  0  0
  -23.6289   -8.2232   22.0753 C   0  0  0  0  0  0
  -22.4277   -8.0276   21.3539 C   0  0  0  0  0  0
  -21.9915   -9.0248   20.4643 C   0  0  0  0  0  0
  -22.7231  -10.2134   20.3054 C   0  0  0  0  0  0
  -21.6865   -6.0736   22.5286 C   0  0  0  0  0  0
  -21.4001   -6.5644   23.8211 C   0  0  0  0  0  0
  -21.3653   -5.6799   24.9184 C   0  0  0  0  0  0
  -21.6046   -4.3058   24.7243 C   0  0  0  0  0  0
  -21.8811   -3.8148   23.4364 C   0  0  0  0  0  0
  -21.9187   -4.6960   22.3422 C   0  0  0  0  0  0
  -22.7820  -13.5216   21.1886 C   0  0  0  0  0  0
  -22.1660   -4.2138   21.1000 F   0  0  0  0  0  0
  -21.5633   -3.4544   25.7761 F   0  0  0  0  0  0
  -29.9830  -13.5401   20.3948 N   0  0  0  0  0  0
  -26.2945  -12.9385   20.3284 N   0  0  0  0  0  0
  -25.9309  -11.6532   20.5751 N   0  0  0  0  0  0
  -22.0435  -12.8220   22.0424 N   0  0  0  0  0  0
  -25.4183  -15.1913   20.4127 N   0  0  0  0  0  0
  -31.8105  -14.8527   20.2240 O   0  0  0  0  0  0
  -21.6638   -6.8875   21.4248 O   0  0  0  0  0  0
  -22.3531  -14.5534   20.6734 O   0  0  0  0  0  0
  -24.6313  -31.8532   23.1895 C   0  0  0  0  0  0
  -25.9118  -32.4757   23.8272 C   0  0  1  0  0  0
  -27.2385  -27.2639   20.1791 C   0  0  0  0  0  0
  -25.5923  -33.8559   24.2214 N   0  0  0  0  0  0
  -23.4299  -30.4759   21.5287 C   0  0  2  0  0  0
  -24.8855  -28.9094   20.1170 C   0  0  0  0  0  0
  -22.7516  -29.4624   22.4825 C   0  0  0  0  0  0
  -18.0321  -28.1410   22.8478 C   0  0  0  0  0  0
  -24.1508  -36.7273   23.2637 C   0  0  0  0  0  0
  -25.9728  -30.7776   21.3610 C   0  0  0  0  0  0
  -26.0517  -29.3936   20.7211 C   0  0  0  0  0  0
  -27.2352  -28.5881   20.7292 C   0  0  0  0  0  0
  -26.0478  -26.8337   19.5554 C   0  0  0  0  0  0
  -24.8857  -27.6373   19.5223 C   0  0  0  0  0  0
  -23.6542  -29.7972   20.1506 C   0  0  0  0  0  0
  -25.4133  -36.3060   24.0324 C   0  0  1  0  0  0
  -20.5942  -28.3696   23.1256 C   0  0  2  0  0  0
  -20.6816  -26.9399   22.5417 C   0  0  0  0  0  0
  -19.5784  -26.6382   21.5226 C   0  0  0  0  0  0
  -18.1957  -26.7963   22.1612 C   0  0  0  0  0  0
  -19.1585  -28.8869   23.2869 C   0  0  0  0  0  0
  -18.9496  -30.1468   23.8891 C   0  0  0  0  0  0
  -17.6488  -30.6596   24.0576 C   0  0  0  0  0  0
  -25.9041  -34.9445   23.5051 C   0  0  0  0  0  0
  -16.5386  -29.9106   23.6347 C   0  0  0  0  0  0
  -16.7316  -28.6533   23.0325 C   0  0  0  0  0  0
  -26.4495  -31.6596   25.0657 C   0  0  0  0  0  0
  -25.3741  -31.3772   26.1383 C   0  0  0  0  0  0
  -27.0318  -30.3031   24.6083 C   0  0  0  0  0  0
  -27.6015  -32.4356   25.7469 C   0  0  0  0  0  0
  -27.5583  -37.1785   24.8458 C   0  0  0  0  0  0
  -21.4220  -29.3045   22.3597 N   0  0  0  0  0  0
  -26.4287  -37.3767   23.9421 N   0  0  0  0  0  0
  -24.6978  -31.0541   22.0856 N   0  0  0  0  0  0
  -23.4223  -28.8149   23.2907 O   0  0  0  0  0  0
  -28.3565  -26.4027   20.1928 O   0  0  0  0  0  0
  -26.5599  -34.8915   22.4626 O   0  0  0  0  0  0
  -23.5454  -32.1300   23.7202 O   0  0  0  0  0  0
  -31.2646  -18.7748   22.6204 C   0  0  0  0  0  0
  -30.6424  -19.9035   22.0585 C   0  0  0  0  0  0
  -31.0186  -17.4914   22.0922 C   0  0  0  0  0  0
  -29.7764  -19.7514   20.9620 C   0  0  0  0  0  0
  -30.1239  -17.3087   21.0184 C   0  0  0  0  0  0
  -29.2929  -21.0717   20.1899 C   0  0  0  0  0  0
  -28.8332  -23.7085   20.1304 C   0  0  0  0  0  0
  -28.2679  -25.0515   20.8507 C   0  0  0  0  0  0
  -29.5196  -18.4568   20.4858 N   0  0  0  0  0  0
  -29.8150  -15.8995   20.6583 N   0  0  0  0  0  0
  -28.9304  -22.3774   20.9287 N   0  3  0  0  0  0
  -31.4771  -12.6387   19.1475 H   0  0  0  0  0  0
  -30.4235  -11.5090   19.9512 H   0  0  0  0  0  0
  -29.7970  -11.7324   17.5256 H   0  0  0  0  0  0
  -29.6350  -13.4619   17.7076 H   0  0  0  0  0  0
  -27.8883  -11.2869   18.8970 H   0  0  0  0  0  0
  -27.3847  -12.5406   17.7954 H   0  0  0  0  0  0
  -27.6334  -14.2546   19.4735 H   0  0  0  0  0  0
  -28.7408  -12.1539   21.3972 H   0  0  0  0  0  0
  -28.4219  -13.8249   21.8085 H   0  0  0  0  0  0
  -25.2736   -9.5705   22.4791 H   0  0  0  0  0  0
  -24.0002   -7.4628   22.7478 H   0  0  0  0  0  0
  -21.0849   -8.8762   19.8956 H   0  0  0  0  0  0
  -22.3672  -10.9677   19.6175 H   0  0  0  0  0  0
  -21.1970   -7.6141   23.9720 H   0  0  0  0  0  0
  -21.1488   -6.0527   25.9084 H   0  0  0  0  0  0
  -22.0586   -2.7603   23.2879 H   0  0  0  0  0  0
  -22.4032  -11.9893   22.4849 H   0  0  0  0  0  0
  -21.1017  -13.1230   22.2532 H   0  0  0  0  0  0
  -24.6482  -15.8397   20.5378 H   0  0  0  0  0  0
  -26.2416  -15.6310   20.0243 H   0  0  0  0  0  0
  -26.7167  -32.5426   23.0996 H   0  0  0  0  0  0
  -25.0212  -33.9741   25.0450 H   0  0  0  0  0  0
  -22.7283  -31.2974   21.3722 H   0  0  0  0  0  0
  -23.3760  -35.9606   23.3300 H   0  0  0  0  0  0
  -24.3605  -36.8872   22.2047 H   0  0  0  0  0  0
  -23.7275  -37.6486   23.6669 H   0  0  0  0  0  0
  -26.0983  -31.5266   20.5790 H   0  0  0  0  0  0
  -26.8570  -30.8432   21.9829 H   0  0  0  0  0  0
  -28.1355  -28.9668   21.1938 H   0  0  0  0  0  0
  -26.0084  -25.8502   19.1121 H   0  0  0  0  0  0
  -23.9891  -27.2564   19.0522 H   0  0  0  0  0  0
  -23.7835  -30.5654   19.3869 H   0  0  0  0  0  0
  -22.7754  -29.2239   19.8467 H   0  0  0  0  0  0
  -25.1322  -36.1846   25.0813 H   0  0  0  0  0  0
  -21.0067  -28.3281   24.1358 H   0  0  0  0  0  0
  -20.5713  -26.2295   23.3630 H   0  0  0  0  0  0
  -21.6680  -26.7416   22.1193 H   0  0  0  0  0  0
  -19.6934  -25.6289   21.1248 H   0  0  0  0  0  0
  -19.6744  -27.3207   20.6779 H   0  0  0  0  0  0
  -17.4242  -26.6722   21.4001 H   0  0  0  0  0  0
  -18.0298  -26.0151   22.9043 H   0  0  0  0  0  0
  -19.7977  -30.7304   24.2214 H   0  0  0  0  0  0
  -17.5061  -31.6269   24.5182 H   0  0  0  0  0  0
  -15.5382  -30.2994   23.7699 H   0  0  0  0  0  0
  -15.8728  -28.0888   22.6983 H   0  0  0  0  0  0
  -24.5930  -30.7088   25.7751 H   0  0  0  0  0  0
  -24.8913  -32.2962   26.4745 H   0  0  0  0  0  0
  -25.8073  -30.9034   27.0194 H   0  0  0  0  0  0
  -26.2859  -29.6810   24.1130 H   0  0  0  0  0  0
  -27.4072  -29.7279   25.4542 H   0  0  0  0  0  0
  -27.8707  -30.4353   23.9258 H   0  0  0  0  0  0
  -27.2582  -33.3671   26.2002 H   0  0  0  0  0  0
  -28.3878  -32.6889   25.0347 H   0  0  0  0  0  0
  -28.0620  -31.8507   26.5427 H   0  0  0  0  0  0
  -28.2546  -38.0130   24.7535 H   0  0  0  0  0  0
  -28.1122  -36.2655   24.6231 H   0  0  0  0  0  0
  -27.2308  -37.1353   25.8858 H   0  0  0  0  0  0
  -20.9362  -29.8807   21.6869 H   0  0  0  0  0  0
  -26.0134  -38.2810   24.1475 H   0  0  0  0  0  0
  -31.9472  -18.8905   23.4512 H   0  0  0  0  0  0
  -30.8811  -20.8819   22.4519 H   0  0  0  0  0  0
  -31.5059  -16.6415   22.5493 H   0  0  0  0  0  0
  -28.4705  -20.8112   19.5272 H   0  0  0  0  0  0
  -30.1262  -21.3228   19.5348 H   0  0  0  0  0  0
  -29.8352  -23.9295   19.7552 H   0  0  0  0  0  0
  -28.2242  -23.5246   19.2456 H   0  0  0  0  0  0
  -28.8214  -25.1779   21.7843 H   0  0  0  0  0  0
  -27.2414  -24.8725   21.1718 H   0  0  0  0  0  0
  -28.8300  -15.7099   20.5752 H   0  0  0  0  0  0
  -29.6057  -22.4968   21.6663 H   0  0  0  0  0  0
  -28.0502  -22.2030   21.3867 H   0  0  0  0  0  0
  1 25  1  0  0  0
  1 30  2  0  0  0
  1 80  1  0  0  0
  2  3  1  0  0  0
  2 25  1  0  0  0
  2 82  1  0  0  0
  2 83  1  0  0  0
  3  4  1  0  0  0
  3 84  1  0  0  0
  3 85  1  0  0  0
  4  5  1  0  0  0
  4 86  1  0  0  0
  4 87  1  0  0  0
  5  6  1  0  0  0
  5 26  1  0  0  0
  5 88  1  0  0  0
  6 25  1  0  0  0
  6 89  1  0  0  0
  6 90  1  0  0  0
  7  8  2  0  0  0
  7 26  1  0  0  0
  7 29  1  0  0  0
  8  9  1  0  0  0
  8 22  1  0  0  0
  9 10  1  0  0  0
  9 27  2  0  0  0
 10 11  2  0  0  0
 10 15  1  0  0  0
 11 12  1  0  0  0
 11 91  1  0  0  0
 12 13  2  0  0  0
 12 92  1  0  0  0
 13 14  1  0  0  0
 13 31  1  0  0  0
 14 15  2  0  0  0
 14 93  1  0  0  0
 15 94  1  0  0  0
 16 17  2  0  0  0
 16 21  1  0  0  0
 16 31  1  0  0  0
 17 18  1  0  0  0
 17 95  1  0  0  0
 18 19  2  0  0  0
 18 96  1  0  0  0
 19 20  1  0  0  0
 19 24  1  0  0  0
 20 21  2  0  0  0
 20 97  1  0  0  0
 21 23  1  0  0  0
 22 28  1  0  0  0
 22 32  2  0  0  0
 26 27  1  0  0  0
 28 98  1  0  0  0
 28 99  1  0  0  0
 29100  1  0  0  0
 29101  1  0  0  0
 33 34  1  0  0  0
 33 66  1  0  0  0
 33 70  2  0  0  0
 34 36  1  0  0  0
 34 59  1  0  0  0
 34102  1  0  0  0
 35 44  2  0  0  0
 35 45  1  0  0  0
 35 68  1  0  0  0
 36 56  1  0  0  0
 36103  1  0  0  0
 37 39  1  0  0  0
 37 47  1  0  0  0
 37 66  1  0  0  0
 37104  1  0  0  0
 38 43  2  0  0  0
 38 46  1  0  0  0
 38 47  1  0  0  0
 39 64  1  0  0  0
 39 67  2  0  0  0
 40 52  1  0  0  0
 40 53  2  0  0  0
 40 58  1  0  0  0
 41105  1  0  0  0
 41106  1  0  0  0
 41107  1  0  0  0
 41 48  1  0  0  0
 42 43  1  0  0  0
 42 66  1  0  0  0
 42108  1  0  0  0
 42109  1  0  0  0
 43 44  1  0  0  0
 44110  1  0  0  0
 45 46  2  0  0  0
 45111  1  0  0  0
 46112  1  0  0  0
 47113  1  0  0  0
 47114  1  0  0  0
 48 56  1  0  0  0
 48 65  1  0  0  0
 48115  1  0  0  0
 49 50  1  0  0  0
 49 53  1  0  0  0
 49 64  1  0  0  0
 49116  1  0  0  0
 50 51  1  0  0  0
 50117  1  0  0  0
 50118  1  0  0  0
 51 52  1  0  0  0
 51119  1  0  0  0
 51120  1  0  0  0
 52121  1  0  0  0
 52122  1  0  0  0
 53 54  1  0  0  0
 54 55  2  0  0  0
 54123  1  0  0  0
 55 57  1  0  0  0
 55124  1  0  0  0
 56 69  2  0  0  0
 57 58  2  0  0  0
 57125  1  0  0  0
 58126  1  0  0  0
 59 60  1  0  0  0
 59 61  1  0  0  0
 59 62  1  0  0  0
 60127  1  0  0  0
 60128  1  0  0  0
 60129  1  0  0  0
 61130  1  0  0  0
 61131  1  0  0  0
 61132  1  0  0  0
 62133  1  0  0  0
 62134  1  0  0  0
 62135  1  0  0  0
 63 65  1  0  0  0
 63136  1  0  0  0
 63137  1  0  0  0
 63138  1  0  0  0
 64139  1  0  0  0
 65140  1  0  0  0
 68 78  1  0  0  0
 71 72  2  0  0  0
 71 73  1  0  0  0
 71141  1  0  0  0
 72 74  1  0  0  0
 72142  1  0  0  0
 73 75  2  0  0  0
 73143  1  0  0  0
 74 76  1  0  0  0
 74 79  2  0  0  0
 75 79  1  0  0  0
 75 80  1  0  0  0
 76 81  1  0  0  0
 76144  1  0  0  0
 76145  1  0  0  0
 77 78  1  0  0  0
 77 81  1  0  0  0
 77146  1  0  0  0
 77147  1  0  0  0
 78148  1  0  0  0
 78149  1  0  0  0
 80150  1  0  0  0
 81151  1  0  0  0
 81152  1  0  0  0
M  CHG  1  81   1
M  ISO  4   1 100  68 101  78 101  80 100
M  END
> <chiral flag>
0

> <version>
0

> <s_m_source_file>
/data/baiqing/PycharmProjects/Reinvent-master-3.2/result/LINK_invent/BTK/process_docking_weight1_custom_sum_contain_oxygen_bond_distance_aromatic_linkinvent_7_9_3/rearranged_h_0126.sdf

> <i_m_source_file_index>
99

> <r_mmod_Potential_Energy-OPLS-2005>
-182.324691772461

> <r_mmod_Stretch_Energy-OPLS-2005>
130.279510498047

> <r_mmod_Bend_Energy-OPLS-2005>
166.360504150391

> <r_mmod_Torsional_Energy-OPLS-2005>
247.600479125977

> <r_mmod_Improper_Torsional_Energy-OPLS-2005>
7.91348218917847

> <r_mmod_Van_der_Waal_Energy-OPLS-2005>
132.678924560547

> <r_mmod_Electrostatic_Energy-OPLS-2005>
-467.700714111328

> <r_mmod_Solvation_Energy-OPLS-2005>
-487.714721679688

> <b_mmod_Minimization_Converged-OPLS-2005>
0

> <r_mmod_RMS_Derivative-OPLS-2005>
4.85548114776611

$$$$
