0
                    3D
 Structure written by MMmdl.
158166  0  0  1  0            999 V2000
  -30.5457  -14.9731   20.4102 C   0  0  0  0  0  0
  -30.4352  -12.6023   19.4993 C   0  0  0  0  0  0
  -29.5191  -12.5297   18.2561 C   0  0  0  0  0  0
  -28.0531  -12.3141   18.6753 C   0  0  0  0  0  0
  -27.6258  -13.2516   19.8350 C   0  0  2  0  0  0
  -28.6696  -13.2982   20.9713 C   0  0  0  0  0  0
  -25.2445  -13.8222   20.5725 C   0  0  0  0  0  0
  -24.1768  -13.0438   20.9241 C   0  0  0  0  0  0
  -24.6390  -11.6926   20.8757 C   0  0  0  0  0  0
  -23.9077  -10.4292   21.0405 C   0  0  0  0  0  0
  -24.3627   -9.4207   21.9182 C   0  0  0  0  0  0
  -23.6299   -8.2243   22.0751 C   0  0  0  0  0  0
  -22.4281   -8.0281   21.3542 C   0  0  0  0  0  0
  -21.9919   -9.0254   20.4643 C   0  0  0  0  0  0
  -22.7249  -10.2132   20.3053 C   0  0  0  0  0  0
  -21.6855   -6.0737   22.5278 C   0  0  0  0  0  0
  -21.4015   -6.5639   23.8212 C   0  0  0  0  0  0
  -21.3661   -5.6791   24.9174 C   0  0  0  0  0  0
  -21.6045   -4.3054   24.7223 C   0  0  0  0  0  0
  -21.8819   -3.8148   23.4344 C   0  0  0  0  0  0
  -21.9194   -4.6965   22.3401 C   0  0  0  0  0  0
  -22.7789  -13.5202   21.1895 C   0  0  0  0  0  0
  -22.1661   -4.2151   21.0978 F   0  0  0  0  0  0
  -21.5630   -3.4538   25.7735 F   0  0  0  0  0  0
  -29.9409  -13.7136   20.3653 N   0  0  0  0  0  0
  -26.2867  -12.9461   20.3240 N   0  0  0  0  0  0
  -25.9323  -11.6587   20.5739 N   0  0  0  0  0  0
  -22.0440  -12.8185   22.0447 N   0  0  0  0  0  0
  -25.4097  -15.1955   20.4157 N   0  0  0  0  0  0
  -31.7588  -14.9898   20.1644 O   0  0  0  0  0  0
  -21.6643   -6.8881   21.4240 O   0  0  0  0  0  0
  -22.3470  -14.5506   20.6738 O   0  0  0  0  0  0
  -24.6456  -31.8421   23.1869 C   0  0  0  0  0  0
  -25.9222  -32.4683   23.8263 C   0  0  1  0  0  0
  -27.2129  -27.1156   20.1527 C   0  0  0  0  0  0
  -25.5963  -33.8491   24.2178 N   0  0  0  0  0  0
  -23.4495  -30.4620   21.5327 C   0  0  2  0  0  0
  -24.8977  -28.8854   20.1101 C   0  0  0  0  0  0
  -22.7578  -29.4543   22.4851 C   0  0  0  0  0  0
  -18.0306  -28.1403   22.8470 C   0  0  0  0  0  0
  -24.1491  -36.7253   23.2642 C   0  0  0  0  0  0
  -26.0074  -30.7101   21.3874 C   0  0  0  0  0  0
  -26.0770  -29.3196   20.7286 C   0  0  0  0  0  0
  -27.2359  -28.4520   20.7304 C   0  0  0  0  0  0
  -26.0064  -26.7887   19.4950 C   0  0  0  0  0  0
  -24.8765  -27.6344   19.4772 C   0  0  0  0  0  0
  -23.6763  -29.7909   20.1523 C   0  0  0  0  0  0
  -25.4124  -36.3024   24.0312 C   0  0  1  0  0  0
  -20.5919  -28.3730   23.1228 C   0  0  2  0  0  0
  -20.6789  -26.9431   22.5402 C   0  0  0  0  0  0
  -19.5763  -26.6384   21.5210 C   0  0  0  0  0  0
  -18.1945  -26.7938   22.1621 C   0  0  0  0  0  0
  -19.1563  -28.8885   23.2839 C   0  0  0  0  0  0
  -18.9480  -30.1479   23.8867 C   0  0  0  0  0  0
  -17.6475  -30.6594   24.0559 C   0  0  0  0  0  0
  -25.9080  -34.9400   23.5055 C   0  0  0  0  0  0
  -16.5366  -29.9087   23.6336 C   0  0  0  0  0  0
  -16.7291  -28.6509   23.0354 C   0  0  0  0  0  0
  -26.4532  -31.6560   25.0716 C   0  0  0  0  0  0
  -25.3709  -31.3755   26.1406 C   0  0  0  0  0  0
  -27.0400  -30.2952   24.6317 C   0  0  0  0  0  0
  -27.6055  -32.4335   25.7504 C   0  0  0  0  0  0
  -27.5573  -37.1785   24.8465 C   0  0  0  0  0  0
  -21.4268  -29.3054   22.3603 N   0  0  0  0  0  0
  -26.4283  -37.3742   23.9407 N   0  0  0  0  0  0
  -24.7209  -31.0267   22.0906 N   0  0  0  0  0  0
  -23.4214  -28.8092   23.3009 O   0  0  0  0  0  0
  -28.2573  -26.1148   20.2230 O   0  0  0  0  0  0
  -26.5666  -34.8902   22.4635 O   0  0  0  0  0  0
  -23.5573  -32.1302   23.7086 O   0  0  0  0  0  0
  -30.8762  -20.4640   20.4189 C   0  0  0  0  0  0
  -29.1266  -18.8180   20.3971 C   0  0  0  0  0  0
  -29.4870  -20.2667   20.3669 C   0  0  0  0  0  0
  -31.7661  -19.3680   20.4828 C   0  0  0  0  0  0
  -30.0910  -17.6809   20.4654 C   0  0  0  0  0  0
  -33.9884  -19.0201   19.3105 C   0  0  0  0  0  0
  -33.8854  -19.1538   21.8581 C   0  0  0  0  0  0
  -28.5124  -21.6035   20.2529 C   0  0  0  0  0  0
  -28.9713  -23.2393   20.3446 C   0  0  0  0  0  0
  -27.9563  -24.5803   20.1020 C   0  0  0  0  0  0
  -33.2696  -19.6198   20.5298 C   0  0  0  0  0  0
  -31.3874  -18.0627   20.5072 N   0  0  0  0  0  0
  -29.7684  -16.1746   20.5064 N   0  0  0  0  0  0
  -31.4692  -12.7533   19.1857 H   0  0  0  0  0  0
  -30.4264  -11.6568   20.0437 H   0  0  0  0  0  0
  -29.8416  -11.7263   17.5924 H   0  0  0  0  0  0
  -29.6045  -13.4543   17.6827 H   0  0  0  0  0  0
  -27.9517  -11.2741   18.9872 H   0  0  0  0  0  0
  -27.3893  -12.4402   17.8190 H   0  0  0  0  0  0
  -27.5821  -14.2493   19.3978 H   0  0  0  0  0  0
  -28.7641  -12.3281   21.4619 H   0  0  0  0  0  0
  -28.3664  -14.0079   21.7428 H   0  0  0  0  0  0
  -25.2770   -9.5686   22.4760 H   0  0  0  0  0  0
  -24.0010   -7.4633   22.7469 H   0  0  0  0  0  0
  -21.0851   -8.8771   19.8947 H   0  0  0  0  0  0
  -22.3705  -10.9671   19.6163 H   0  0  0  0  0  0
  -21.2008   -7.6147   23.9718 H   0  0  0  0  0  0
  -21.1483   -6.0520   25.9078 H   0  0  0  0  0  0
  -22.0598   -2.7610   23.2840 H   0  0  0  0  0  0
  -22.4069  -11.9852   22.4836 H   0  0  0  0  0  0
  -21.1052  -13.1192   22.2650 H   0  0  0  0  0  0
  -24.6372  -15.8427   20.5315 H   0  0  0  0  0  0
  -26.2427  -15.6389   20.0526 H   0  0  0  0  0  0
  -26.7290  -32.5278   23.0991 H   0  0  0  0  0  0
  -25.0080  -33.9604   25.0306 H   0  0  0  0  0  0
  -22.7527  -31.2885   21.3779 H   0  0  0  0  0  0
  -23.3756  -35.9582   23.3289 H   0  0  0  0  0  0
  -24.3575  -36.8905   22.2060 H   0  0  0  0  0  0
  -23.7243  -37.6443   23.6693 H   0  0  0  0  0  0
  -26.1658  -31.4635   20.6143 H   0  0  0  0  0  0
  -26.8770  -30.7598   22.0311 H   0  0  0  0  0  0
  -28.1340  -28.7803   21.2344 H   0  0  0  0  0  0
  -25.8980  -25.8334   19.0048 H   0  0  0  0  0  0
  -23.9763  -27.2969   18.9818 H   0  0  0  0  0  0
  -23.8167  -30.5653   19.3972 H   0  0  0  0  0  0
  -22.7896  -29.2361   19.8397 H   0  0  0  0  0  0
  -25.1314  -36.1844   25.0803 H   0  0  0  0  0  0
  -21.0004  -28.3321   24.1352 H   0  0  0  0  0  0
  -20.5678  -26.2346   23.3625 H   0  0  0  0  0  0
  -21.6656  -26.7435   22.1202 H   0  0  0  0  0  0
  -19.6922  -25.6287   21.1261 H   0  0  0  0  0  0
  -19.6698  -27.3176   20.6725 H   0  0  0  0  0  0
  -17.4212  -26.6675   21.4029 H   0  0  0  0  0  0
  -18.0348  -26.0092   22.9031 H   0  0  0  0  0  0
  -19.7957  -30.7304   24.2220 H   0  0  0  0  0  0
  -17.5031  -31.6268   24.5173 H   0  0  0  0  0  0
  -15.5366  -30.2982   23.7680 H   0  0  0  0  0  0
  -15.8691  -28.0821   22.7082 H   0  0  0  0  0  0
  -24.5897  -30.7095   25.7725 H   0  0  0  0  0  0
  -24.8889  -32.2938   26.4769 H   0  0  0  0  0  0
  -25.7985  -30.8968   27.0223 H   0  0  0  0  0  0
  -26.3022  -29.6669   24.1313 H   0  0  0  0  0  0
  -27.3988  -29.7260   25.4903 H   0  0  0  0  0  0
  -27.8941  -30.4180   23.9654 H   0  0  0  0  0  0
  -27.2640  -33.3659   26.2013 H   0  0  0  0  0  0
  -28.3899  -32.6860   25.0357 H   0  0  0  0  0  0
  -28.0684  -31.8506   26.5477 H   0  0  0  0  0  0
  -28.2582  -38.0090   24.7513 H   0  0  0  0  0  0
  -28.1079  -36.2620   24.6288 H   0  0  0  0  0  0
  -27.2294  -37.1427   25.8869 H   0  0  0  0  0  0
  -20.9485  -29.8765   21.6775 H   0  0  0  0  0  0
  -26.0146  -38.2807   24.1412 H   0  0  0  0  0  0
  -31.2687  -21.4717   20.4023 H   0  0  0  0  0  0
  -28.0736  -18.5743   20.3587 H   0  0  0  0  0  0
  -33.5695  -19.4097   18.3823 H   0  0  0  0  0  0
  -33.8925  -17.9341   19.2875 H   0  0  0  0  0  0
  -35.0514  -19.2609   19.3211 H   0  0  0  0  0  0
  -33.4011  -19.6441   22.7028 H   0  0  0  0  0  0
  -34.9486  -19.3888   21.9037 H   0  0  0  0  0  0
  -33.7751  -18.0774   21.9912 H   0  0  0  0  0  0
  -27.7353  -21.4564   21.0028 H   0  0  0  0  0  0
  -27.9947  -21.4865   19.3007 H   0  0  0  0  0  0
  -29.7947  -23.3612   19.6410 H   0  0  0  0  0  0
  -29.4272  -23.3710   21.3259 H   0  0  0  0  0  0
  -27.0957  -24.4118   20.7504 H   0  0  0  0  0  0
  -27.5753  -24.4455   19.0902 H   0  0  0  0  0  0
  -33.4209  -20.6989   20.4787 H   0  0  0  0  0  0
  -28.7854  -15.9830   20.6078 H   0  0  0  0  0  0
  1 25  1  0  0  0
  1 30  2  0  0  0
  1 83  1  0  0  0
  2  3  1  0  0  0
  2 25  1  0  0  0
  2 84  1  0  0  0
  2 85  1  0  0  0
  3  4  1  0  0  0
  3 86  1  0  0  0
  3 87  1  0  0  0
  4  5  1  0  0  0
  4 88  1  0  0  0
  4 89  1  0  0  0
  5  6  1  0  0  0
  5 26  1  0  0  0
  5 90  1  0  0  0
  6 25  1  0  0  0
  6 91  1  0  0  0
  6 92  1  0  0  0
  7  8  2  0  0  0
  7 26  1  0  0  0
  7 29  1  0  0  0
  8  9  1  0  0  0
  8 22  1  0  0  0
  9 10  1  0  0  0
  9 27  2  0  0  0
 10 11  2  0  0  0
 10 15  1  0  0  0
 11 12  1  0  0  0
 11 93  1  0  0  0
 12 13  2  0  0  0
 12 94  1  0  0  0
 13 14  1  0  0  0
 13 31  1  0  0  0
 14 15  2  0  0  0
 14 95  1  0  0  0
 15 96  1  0  0  0
 16 17  2  0  0  0
 16 21  1  0  0  0
 16 31  1  0  0  0
 17 18  1  0  0  0
 17 97  1  0  0  0
 18 19  2  0  0  0
 18 98  1  0  0  0
 19 20  1  0  0  0
 19 24  1  0  0  0
 20 21  2  0  0  0
 20 99  1  0  0  0
 21 23  1  0  0  0
 22 28  1  0  0  0
 22 32  2  0  0  0
 26 27  1  0  0  0
 28100  1  0  0  0
 28101  1  0  0  0
 29102  1  0  0  0
 29103  1  0  0  0
 33 34  1  0  0  0
 33 66  1  0  0  0
 33 70  2  0  0  0
 34 36  1  0  0  0
 34 59  1  0  0  0
 34104  1  0  0  0
 35 44  2  0  0  0
 35 45  1  0  0  0
 35 68  1  0  0  0
 36 56  1  0  0  0
 36105  1  0  0  0
 37 39  1  0  0  0
 37 47  1  0  0  0
 37 66  1  0  0  0
 37106  1  0  0  0
 38 43  2  0  0  0
 38 46  1  0  0  0
 38 47  1  0  0  0
 39 64  1  0  0  0
 39 67  2  0  0  0
 40 52  1  0  0  0
 40 53  2  0  0  0
 40 58  1  0  0  0
 41107  1  0  0  0
 41108  1  0  0  0
 41109  1  0  0  0
 41 48  1  0  0  0
 42 43  1  0  0  0
 42 66  1  0  0  0
 42110  1  0  0  0
 42111  1  0  0  0
 43 44  1  0  0  0
 44112  1  0  0  0
 45 46  2  0  0  0
 45113  1  0  0  0
 46114  1  0  0  0
 47115  1  0  0  0
 47116  1  0  0  0
 48 56  1  0  0  0
 48 65  1  0  0  0
 48117  1  0  0  0
 49 50  1  0  0  0
 49 53  1  0  0  0
 49 64  1  0  0  0
 49118  1  0  0  0
 50 51  1  0  0  0
 50119  1  0  0  0
 50120  1  0  0  0
 51 52  1  0  0  0
 51121  1  0  0  0
 51122  1  0  0  0
 52123  1  0  0  0
 52124  1  0  0  0
 53 54  1  0  0  0
 54 55  2  0  0  0
 54125  1  0  0  0
 55 57  1  0  0  0
 55126  1  0  0  0
 56 69  2  0  0  0
 57 58  2  0  0  0
 57127  1  0  0  0
 58128  1  0  0  0
 59 60  1  0  0  0
 59 61  1  0  0  0
 59 62  1  0  0  0
 60129  1  0  0  0
 60130  1  0  0  0
 60131  1  0  0  0
 61132  1  0  0  0
 61133  1  0  0  0
 61134  1  0  0  0
 62135  1  0  0  0
 62136  1  0  0  0
 62137  1  0  0  0
 63 65  1  0  0  0
 63138  1  0  0  0
 63139  1  0  0  0
 63140  1  0  0  0
 64141  1  0  0  0
 65142  1  0  0  0
 68 80  1  0  0  0
 71 73  2  0  0  0
 71 74  1  0  0  0
 71143  1  0  0  0
 72 73  1  0  0  0
 72 75  2  0  0  0
 72144  1  0  0  0
 73 78  1  0  0  0
 74 81  1  0  0  0
 74 82  2  0  0  0
 75 82  1  0  0  0
 75 83  1  0  0  0
 76145  1  0  0  0
 76146  1  0  0  0
 76147  1  0  0  0
 76 81  1  0  0  0
 77 81  1  0  0  0
 77148  1  0  0  0
 77149  1  0  0  0
 77150  1  0  0  0
 78 79  1  0  0  0
 78151  1  0  0  0
 78152  1  0  0  0
 79 80  1  0  0  0
 79153  1  0  0  0
 79154  1  0  0  0
 80155  1  0  0  0
 80156  1  0  0  0
 81157  1  0  0  0
 83158  1  0  0  0
M  ISO  4   1 100  68 101  80 101  83 100
M  END
> <chiral flag>
0

> <version>
0

> <s_m_source_file>
/data/baiqing/PycharmProjects/Reinvent-master-3.2/result/LINK_invent/BTK/process_docking_weight1_custom_sum_contain_oxygen_bond_distance_aromatic_linkinvent_7_9_3/rearranged_h_0097.sdf

> <i_m_source_file_index>
1

> <r_mmod_Potential_Energy-OPLS-2005>
312.656097412109

> <r_mmod_Stretch_Energy-OPLS-2005>
278.619659423828

> <r_mmod_Bend_Energy-OPLS-2005>
254.756713867188

> <r_mmod_Torsional_Energy-OPLS-2005>
190.301956176758

> <r_mmod_Improper_Torsional_Energy-OPLS-2005>
4.8052864074707

> <r_mmod_Van_der_Waal_Energy-OPLS-2005>
132.409042358398

> <r_mmod_Electrostatic_Energy-OPLS-2005>
-526.947204589844

> <r_mmod_Solvation_Energy-OPLS-2005>
-230.537551879883

> <b_mmod_Minimization_Converged-OPLS-2005>
0

> <r_mmod_RMS_Derivative-OPLS-2005>
0.450681239366531

$$$$
1
                    3D
 Structure written by MMmdl.
154162  0  0  1  0            999 V2000
  -30.0619  -13.9061   21.3310 C   0  0  0  0  0  0
  -30.4839  -12.4042   19.3339 C   0  0  0  0  0  0
  -29.5896  -12.6492   18.0740 C   0  0  0  0  0  0
  -28.0539  -12.4650   18.2529 C   0  0  0  0  0  0
  -27.6058  -13.0877   19.6060 C   0  0  2  0  0  0
  -28.4935  -12.2664   20.5688 C   0  0  0  0  0  0
  -24.8539  -14.6354   21.1252 C   0  0  0  0  0  0
  -24.3130  -14.1203   21.3045 C   0  0  0  0  0  0
  -25.3949  -12.2903   20.4444 C   0  0  0  0  0  0
  -24.6630  -10.5541   20.6174 C   0  0  0  0  0  0
  -24.7633   -9.5987   21.7350 C   0  0  0  0  0  0
  -23.8869   -8.4670   22.0497 C   0  0  0  0  0  0
  -22.7066   -8.1642   21.3159 C   0  0  0  0  0  0
  -22.4982   -9.0490   20.2458 C   0  0  0  0  0  0
  -23.4580  -10.0657   19.8931 C   0  0  0  0  0  0
  -21.7967   -6.1830   22.5303 C   0  0  0  0  0  0
  -21.4797   -6.6252   23.8334 C   0  0  0  0  0  0
  -21.3838   -5.7101   24.9048 C   0  0  0  0  0  0
  -21.6007   -4.3363   24.6891 C   0  0  0  0  0  0
  -21.8775   -3.8751   23.3906 C   0  0  0  0  0  0
  -21.9594   -4.7864   22.3169 C   0  0  0  0  0  0
  -22.7637  -14.4361   21.8082 C   0  0  0  0  0  0
  -22.1832   -4.2997   21.0710 F   0  0  0  0  0  0
  -21.5417   -3.4650   25.7244 F   0  0  0  0  0  0
  -29.8023  -12.8442   20.5611 N   0  0  0  0  0  0
  -26.0348  -13.2070   20.1070 N   0  0  0  0  0  0
  -25.8497  -12.1466   19.4327 N   0  0  0  0  0  0
  -22.0893  -13.5249   22.5468 N   0  0  0  0  0  0
  -24.8230  -16.0300   21.5234 N   0  0  0  0  0  0
  -31.0453  -14.6272   20.9839 O   0  0  0  0  0  0
  -21.8292   -7.0721   21.4613 O   0  0  0  0  0  0
  -22.0800  -15.1491   21.0769 O   0  0  0  0  0  0
  -24.7024  -31.7830   23.1476 C   0  0  0  0  0  0
  -25.9577  -32.4327   23.7992 C   0  0  1  0  0  0
  -26.8408  -26.4252   20.1278 C   0  0  0  0  0  0
  -25.6110  -33.8186   24.1827 N   0  0  0  0  0  0
  -23.5067  -30.4168   21.5140 C   0  0  2  0  0  0
  -24.8823  -28.7479   20.0747 C   0  0  0  0  0  0
  -22.7745  -29.4282   22.4632 C   0  0  0  0  0  0
  -18.0326  -28.1420   22.8446 C   0  0  0  0  0  0
  -24.1494  -36.7075   23.2636 C   0  0  0  0  0  0
  -26.0950  -30.4036   21.4477 C   0  0  0  0  0  0
  -26.0825  -28.9622   20.7577 C   0  0  0  0  0  0
  -27.0710  -27.8171   20.7611 C   0  0  0  0  0  0
  -25.6819  -26.5123   19.3585 C   0  0  0  0  0  0
  -24.7421  -27.5655   19.3454 C   0  0  0  0  0  0
  -23.7417  -29.7708   20.1264 C   0  0  0  0  0  0
  -25.4149  -36.2789   24.0241 C   0  0  1  0  0  0
  -20.5957  -28.3769   23.1108 C   0  0  2  0  0  0
  -20.6790  -26.9423   22.5385 C   0  0  0  0  0  0
  -19.5769  -26.6357   21.5203 C   0  0  0  0  0  0
  -18.1948  -26.7947   22.1610 C   0  0  0  0  0  0
  -19.1595  -28.8919   23.2766 C   0  0  0  0  0  0
  -18.9515  -30.1499   23.8818 C   0  0  0  0  0  0
  -17.6513  -30.6606   24.0548 C   0  0  0  0  0  0
  -25.9189  -34.9211   23.4867 C   0  0  0  0  0  0
  -16.5392  -29.9088   23.6358 C   0  0  0  0  0  0
  -16.7308  -28.6507   23.0369 C   0  0  0  0  0  0
  -26.4665  -31.6481   25.0732 C   0  0  0  0  0  0
  -25.3663  -31.3913   26.1303 C   0  0  0  0  0  0
  -27.0651  -30.2783   24.6857 C   0  0  0  0  0  0
  -27.6036  -32.4429   25.7579 C   0  0  0  0  0  0
  -27.5577  -37.1647   24.8419 C   0  0  0  0  0  0
  -21.4388  -29.3027   22.3415 N   0  0  0  0  0  0
  -26.4210  -37.3618   23.9471 N   0  0  0  0  0  0
  -24.7992  -30.9088   22.0848 N   0  0  0  0  0  0
  -23.4180  -28.7831   23.2945 O   0  0  0  0  0  0
  -27.4537  -24.9609   20.1002 O   0  0  0  0  0  0
  -26.5830  -34.8835   22.4490 O   0  0  0  0  0  0
  -23.6042  -32.1069   23.6347 O   0  0  0  0  0  0
  -27.0347  -14.9556   21.1485 C   0  0  0  0  0  0
  -24.1664  -14.0881   18.9933 C   0  0  0  0  0  0
  -25.9526  -15.4256   19.3795 C   0  0  0  0  0  0
  -26.3180  -13.4394   22.4422 C   0  0  0  0  0  0
  -26.2382  -17.3444   19.0190 C   0  0  0  0  0  0
  -27.8048  -13.3415   23.1518 C   0  0  0  0  0  0
  -26.2879  -19.2678   19.7803 C   0  0  0  0  0  0
  -27.0018  -21.2089   19.5935 C   0  0  0  0  0  0
  -26.7341  -23.2375   19.9379 C   0  0  0  0  0  0
  -23.2559  -12.5803   20.2884 N   0  0  0  0  0  0
  -24.4407  -12.2891   22.3757 N   0  0  0  0  0  0
  -29.1709  -13.9934   22.4787 N   0  0  0  0  0  0
  -31.4452  -12.9022   19.2032 H   0  0  0  0  0  0
  -30.7160  -11.3426   19.4327 H   0  0  0  0  0  0
  -29.9367  -12.0305   17.2486 H   0  0  0  0  0  0
  -29.7576  -13.6800   17.7568 H   0  0  0  0  0  0
  -27.8257  -11.3997   18.1774 H   0  0  0  0  0  0
  -27.5217  -12.9369   17.4261 H   0  0  0  0  0  0
  -28.0376  -14.0567   19.3632 H   0  0  0  0  0  0
  -28.6051  -11.2551   20.1710 H   0  0  0  0  0  0
  -28.0619  -11.8559   21.4558 H   0  0  0  0  0  0
  -25.5715   -9.7744   22.4340 H   0  0  0  0  0  0
  -24.1422   -7.8419   22.8942 H   0  0  0  0  0  0
  -21.6560   -8.8854   19.5880 H   0  0  0  0  0  0
  -23.2000  -10.5946   18.9845 H   0  0  0  0  0  0
  -21.3121   -7.6783   24.0114 H   0  0  0  0  0  0
  -21.1562   -6.0691   25.8990 H   0  0  0  0  0  0
  -22.0279   -2.8217   23.2106 H   0  0  0  0  0  0
  -22.6184  -12.7166   22.8534 H   0  0  0  0  0  0
  -21.0895  -13.5695   22.6714 H   0  0  0  0  0  0
  -24.0834  -16.4937   22.0388 H   0  0  0  0  0  0
  -25.5703  -16.6458   21.2338 H   0  0  0  0  0  0
  -26.7648  -32.4637   23.0665 H   0  0  0  0  0  0
  -25.0156  -33.9206   24.9908 H   0  0  0  0  0  0
  -22.8418  -31.2689   21.3567 H   0  0  0  0  0  0
  -23.3827  -35.9325   23.3082 H   0  0  0  0  0  0
  -24.3591  -36.8987   22.2103 H   0  0  0  0  0  0
  -23.7159  -37.6127   23.6892 H   0  0  0  0  0  0
  -26.3703  -31.1281   20.6794 H   0  0  0  0  0  0
  -26.9276  -30.4143   22.1384 H   0  0  0  0  0  0
  -27.9597  -27.9489   21.3624 H   0  0  0  0  0  0
  -25.4099  -25.6355   18.7897 H   0  0  0  0  0  0
  -23.8432  -27.4177   18.7624 H   0  0  0  0  0  0
  -23.9700  -30.5558   19.4033 H   0  0  0  0  0  0
  -22.8182  -29.3114   19.7689 H   0  0  0  0  0  0
  -25.1349  -36.1462   25.0714 H   0  0  0  0  0  0
  -21.0056  -28.3411   24.1234 H   0  0  0  0  0  0
  -20.5633  -26.2409   23.3654 H   0  0  0  0  0  0
  -21.6650  -26.7361   22.1217 H   0  0  0  0  0  0
  -19.6925  -25.6244   21.1291 H   0  0  0  0  0  0
  -19.6718  -27.3116   20.6690 H   0  0  0  0  0  0
  -17.4214  -26.6671   21.4014 H   0  0  0  0  0  0
  -18.0348  -26.0103   22.9025 H   0  0  0  0  0  0
  -19.7989  -30.7325   24.2151 H   0  0  0  0  0  0
  -17.5067  -31.6281   24.5162 H   0  0  0  0  0  0
  -15.5386  -30.2981   23.7730 H   0  0  0  0  0  0
  -15.8697  -28.0813   22.7139 H   0  0  0  0  0  0
  -24.5907  -30.7173   25.7651 H   0  0  0  0  0  0
  -24.8798  -32.3182   26.4349 H   0  0  0  0  0  0
  -25.7796  -30.9368   27.0313 H   0  0  0  0  0  0
  -26.3384  -29.6249   24.2015 H   0  0  0  0  0  0
  -27.4114  -29.7418   25.5701 H   0  0  0  0  0  0
  -27.9367  -30.3835   24.0395 H   0  0  0  0  0  0
  -27.2483  -33.3798   26.1880 H   0  0  0  0  0  0
  -28.3995  -32.6884   25.0540 H   0  0  0  0  0  0
  -28.0542  -31.8773   26.5740 H   0  0  0  0  0  0
  -28.2346  -38.0171   24.7741 H   0  0  0  0  0  0
  -28.1309  -36.2721   24.5875 H   0  0  0  0  0  0
  -27.2360  -37.0817   25.8811 H   0  0  0  0  0  0
  -20.9652  -29.8781   21.6583 H   0  0  0  0  0  0
  -25.9976  -38.2590   24.1683 H   0  0  0  0  0  0
  -27.8481  -15.6134   21.4154 H   0  0  0  0  0  0
  -23.5058  -14.3801   18.1920 H   0  0  0  0  0  0
  -25.5599  -17.4732   18.1752 H   0  0  0  0  0  0
  -27.2130  -17.2847   18.5382 H   0  0  0  0  0  0
  -28.0010  -12.3238   23.4869 H   0  0  0  0  0  0
  -27.6797  -13.8929   24.0838 H   0  0  0  0  0  0
  -26.6737  -19.0480   20.7760 H   0  0  0  0  0  0
  -25.2311  -19.4356   19.9826 H   0  0  0  0  0  0
  -27.3198  -21.2108   18.5515 H   0  0  0  0  0  0
  -27.9412  -21.0757   20.1320 H   0  0  0  0  0  0
  -26.1475  -23.2155   20.8563 H   0  0  0  0  0  0
  -25.9926  -23.4512   19.1695 H   0  0  0  0  0  0
  -29.4666  -14.7947   23.0207 H   0  0  0  0  0  0
  1 25  1  0  0  0
  1 30  2  0  0  0
  1 82  1  0  0  0
  2  3  1  0  0  0
  2 25  1  0  0  0
  2 83  1  0  0  0
  2 84  1  0  0  0
  3  4  1  0  0  0
  3 85  1  0  0  0
  3 86  1  0  0  0
  4  5  1  0  0  0
  4 87  1  0  0  0
  4 88  1  0  0  0
  5  6  1  0  0  0
  5 26  1  0  0  0
  5 89  1  0  0  0
  6 25  1  0  0  0
  6 90  1  0  0  0
  6 91  1  0  0  0
  7  8  2  0  0  0
  7 26  1  0  0  0
  7 29  1  0  0  0
  8  9  1  0  0  0
  8 22  1  0  0  0
  9 10  1  0  0  0
  9 27  2  0  0  0
 10 11  2  0  0  0
 10 15  1  0  0  0
 11 12  1  0  0  0
 11 92  1  0  0  0
 12 13  2  0  0  0
 12 93  1  0  0  0
 13 14  1  0  0  0
 13 31  1  0  0  0
 14 15  2  0  0  0
 14 94  1  0  0  0
 15 95  1  0  0  0
 16 17  2  0  0  0
 16 21  1  0  0  0
 16 31  1  0  0  0
 17 18  1  0  0  0
 17 96  1  0  0  0
 18 19  2  0  0  0
 18 97  1  0  0  0
 19 20  1  0  0  0
 19 24  1  0  0  0
 20 21  2  0  0  0
 20 98  1  0  0  0
 21 23  1  0  0  0
 22 28  1  0  0  0
 22 32  2  0  0  0
 26 27  1  0  0  0
 28 99  1  0  0  0
 28100  1  0  0  0
 29101  1  0  0  0
 29102  1  0  0  0
 33 34  1  0  0  0
 33 66  1  0  0  0
 33 70  2  0  0  0
 34 36  1  0  0  0
 34 59  1  0  0  0
 34103  1  0  0  0
 35 44  2  0  0  0
 35 45  1  0  0  0
 35 68  1  0  0  0
 36 56  1  0  0  0
 36104  1  0  0  0
 37 39  1  0  0  0
 37 47  1  0  0  0
 37 66  1  0  0  0
 37105  1  0  0  0
 38 43  2  0  0  0
 38 46  1  0  0  0
 38 47  1  0  0  0
 39 64  1  0  0  0
 39 67  2  0  0  0
 40 52  1  0  0  0
 40 53  2  0  0  0
 40 58  1  0  0  0
 41106  1  0  0  0
 41107  1  0  0  0
 41108  1  0  0  0
 41 48  1  0  0  0
 42 43  1  0  0  0
 42 66  1  0  0  0
 42109  1  0  0  0
 42110  1  0  0  0
 43 44  1  0  0  0
 44111  1  0  0  0
 45 46  2  0  0  0
 45112  1  0  0  0
 46113  1  0  0  0
 47114  1  0  0  0
 47115  1  0  0  0
 48 56  1  0  0  0
 48 65  1  0  0  0
 48116  1  0  0  0
 49 50  1  0  0  0
 49 53  1  0  0  0
 49 64  1  0  0  0
 49117  1  0  0  0
 50 51  1  0  0  0
 50118  1  0  0  0
 50119  1  0  0  0
 51 52  1  0  0  0
 51120  1  0  0  0
 51121  1  0  0  0
 52122  1  0  0  0
 52123  1  0  0  0
 53 54  1  0  0  0
 54 55  2  0  0  0
 54124  1  0  0  0
 55 57  1  0  0  0
 55125  1  0  0  0
 56 69  2  0  0  0
 57 58  2  0  0  0
 57126  1  0  0  0
 58127  1  0  0  0
 59 60  1  0  0  0
 59 61  1  0  0  0
 59 62  1  0  0  0
 60128  1  0  0  0
 60129  1  0  0  0
 60130  1  0  0  0
 61131  1  0  0  0
 61132  1  0  0  0
 61133  1  0  0  0
 62134  1  0  0  0
 62135  1  0  0  0
 62136  1  0  0  0
 63 65  1  0  0  0
 63137  1  0  0  0
 63138  1  0  0  0
 63139  1  0  0  0
 64140  1  0  0  0
 65141  1  0  0  0
 68 79  1  0  0  0
 71 73  2  0  0  0
 71 74  1  0  0  0
 71142  1  0  0  0
 72 73  1  0  0  0
 72 80  2  0  0  0
 72143  1  0  0  0
 73 75  1  0  0  0
 74 76  1  0  0  0
 74 81  2  0  0  0
 75 77  1  0  0  0
 75144  1  0  0  0
 75145  1  0  0  0
 76 82  1  0  0  0
 76146  1  0  0  0
 76147  1  0  0  0
 77 78  1  0  0  0
 77148  1  0  0  0
 77149  1  0  0  0
 78 79  1  0  0  0
 78150  1  0  0  0
 78151  1  0  0  0
 79152  1  0  0  0
 79153  1  0  0  0
 80 81  1  0  0  0
 82154  1  0  0  0
M  ISO  4   1 100  68 101  79 101  82 100
M  END
> <chiral flag>
0

> <version>
0

> <s_m_source_file>
/data/baiqing/PycharmProjects/Reinvent-master-3.2/result/LINK_invent/BTK/process_docking_weight1_custom_sum_contain_oxygen_bond_distance_aromatic_linkinvent_7_9_3/rearranged_h_0097.sdf

> <i_m_source_file_index>
2

> <r_mmod_Potential_Energy-OPLS-2005>
23447.255859375

> <r_mmod_Stretch_Energy-OPLS-2005>
14673.5478515625

> <r_mmod_Bend_Energy-OPLS-2005>
1633.53344726562

> <r_mmod_Torsional_Energy-OPLS-2005>
476.865844726562

> <r_mmod_Improper_Torsional_Energy-OPLS-2005>
60.8032264709473

> <r_mmod_Van_der_Waal_Energy-OPLS-2005>
4840.7197265625

> <r_mmod_Electrostatic_Energy-OPLS-2005>
-416.395385742188

> <r_mmod_Solvation_Energy-OPLS-2005>
-225.936172485352

> <b_mmod_Minimization_Converged-OPLS-2005>
0

> <r_mmod_RMS_Derivative-OPLS-2005>
8.54889488220215

$$$$
2
                    3D
 Structure written by MMmdl.
170178  0  0  1  0            999 V2000
  -30.6297  -14.7657   20.5101 C   0  0  0  0  0  0
  -30.4442  -12.5008   19.4335 C   0  0  0  0  0  0
  -29.5027  -12.5865   18.2098 C   0  0  0  0  0  0
  -28.0226  -12.4179   18.6171 C   0  0  0  0  0  0
  -27.6481  -13.2584   19.8655 C   0  0  2  0  0  0
  -28.7140  -13.1467   20.9805 C   0  0  0  0  0  0
  -25.2513  -13.8263   20.5780 C   0  0  0  0  0  0
  -24.1797  -13.0454   20.9240 C   0  0  0  0  0  0
  -24.6473  -11.6975   20.8761 C   0  0  0  0  0  0
  -23.9161  -10.4322   21.0427 C   0  0  0  0  0  0
  -24.3701   -9.4213   21.9200 C   0  0  0  0  0  0
  -23.6334   -8.2254   22.0779 C   0  0  0  0  0  0
  -22.4305   -8.0321   21.3574 C   0  0  0  0  0  0
  -21.9981   -9.0293   20.4671 C   0  0  0  0  0  0
  -22.7332  -10.2164   20.3076 C   0  0  0  0  0  0
  -21.6850   -6.0788   22.5309 C   0  0  0  0  0  0
  -21.4021   -6.5678   23.8250 C   0  0  0  0  0  0
  -21.3654   -5.6815   24.9193 C   0  0  0  0  0  0
  -21.6017   -4.3078   24.7235 C   0  0  0  0  0  0
  -21.8794   -3.8192   23.4350 C   0  0  0  0  0  0
  -21.9187   -4.7016   22.3418 C   0  0  0  0  0  0
  -22.7798  -13.5230   21.1786 C   0  0  0  0  0  0
  -22.1637   -4.2190   21.1003 F   0  0  0  0  0  0
  -21.5625   -3.4568   25.7753 F   0  0  0  0  0  0
  -30.0032  -13.5385   20.3925 N   0  0  0  0  0  0
  -26.3010  -12.9529   20.3442 N   0  0  0  0  0  0
  -25.9431  -11.6638   20.5852 N   0  0  0  0  0  0
  -22.0460  -12.8229   22.0394 N   0  0  0  0  0  0
  -25.4027  -15.1981   20.4204 N   0  0  0  0  0  0
  -31.8262  -14.8750   20.2444 O   0  0  0  0  0  0
  -21.6623   -6.8947   21.4277 O   0  0  0  0  0  0
  -22.3462  -14.5479   20.6575 O   0  0  0  0  0  0
  -24.6284  -31.8602   23.2082 C   0  0  0  0  0  0
  -25.9105  -32.4812   23.8404 C   0  0  1  0  0  0
  -27.2032  -27.2715   20.0920 C   0  0  0  0  0  0
  -25.5909  -33.8623   24.2309 N   0  0  0  0  0  0
  -23.4297  -30.4835   21.5546 C   0  0  2  0  0  0
  -24.8705  -28.9471   20.1068 C   0  0  0  0  0  0
  -22.7551  -29.4559   22.4967 C   0  0  0  0  0  0
  -18.0290  -28.1370   22.8478 C   0  0  0  0  0  0
  -24.1494  -36.7313   23.2632 C   0  0  0  0  0  0
  -25.9799  -30.7581   21.4054 C   0  0  0  0  0  0
  -26.0454  -29.3890   20.7331 C   0  0  0  0  0  0
  -27.2101  -28.5617   20.7259 C   0  0  0  0  0  0
  -26.0041  -26.9009   19.4385 C   0  0  0  0  0  0
  -24.8546  -27.7105   19.4530 C   0  0  0  0  0  0
  -23.6518  -29.8429   20.1628 C   0  0  0  0  0  0
  -25.4122  -36.3117   24.0321 C   0  0  1  0  0  0
  -20.5923  -28.3643   23.1312 C   0  0  2  0  0  0
  -20.6847  -26.9367   22.5437 C   0  0  0  0  0  0
  -19.5804  -26.6338   21.5271 C   0  0  0  0  0  0
  -18.1947  -26.7909   22.1623 C   0  0  0  0  0  0
  -19.1546  -28.8837   23.2873 C   0  0  0  0  0  0
  -18.9451  -30.1448   23.8853 C   0  0  0  0  0  0
  -17.6459  -30.6571   24.0550 C   0  0  0  0  0  0
  -25.9027  -34.9483   23.5101 C   0  0  0  0  0  0
  -16.5355  -29.9063   23.6328 C   0  0  0  0  0  0
  -16.7278  -28.6509   23.0296 C   0  0  0  0  0  0
  -26.4479  -31.6648   25.0782 C   0  0  0  0  0  0
  -25.3643  -31.3786   26.1449 C   0  0  0  0  0  0
  -27.0370  -30.3068   24.6309 C   0  0  0  0  0  0
  -27.6042  -32.4402   25.7487 C   0  0  0  0  0  0
  -27.5619  -37.1792   24.8445 C   0  0  0  0  0  0
  -21.4258  -29.3001   22.3720 N   0  0  0  0  0  0
  -26.4318  -37.3802   23.9397 N   0  0  0  0  0  0
  -24.6973  -31.0544   22.1102 N   0  0  0  0  0  0
  -23.4257  -28.8011   23.2987 O   0  0  0  0  0  0
  -28.2976  -26.3795   20.1137 O   0  0  0  0  0  0
  -26.5605  -34.8936   22.4673 O   0  0  0  0  0  0
  -23.5400  -32.1510   23.7265 O   0  0  0  0  0  0
  -29.4805  -19.7232   20.4036 C   0  0  0  0  0  0
  -29.9077  -21.0474   19.9903 C   0  0  0  0  0  0
  -31.3125  -21.1715   19.8055 C   0  0  0  0  0  0
  -30.4016  -18.6216   20.5987 C   0  0  0  0  0  0
  -32.1639  -20.0995   20.1789 C   0  0  0  0  0  0
  -31.9368  -22.4424   19.2405 C   0  0  0  0  0  0
  -35.0363  -23.0454   21.8592 C   0  0  0  0  0  0
  -35.3568  -21.5974   23.8892 C   0  0  0  0  0  0
  -28.8898  -22.2623   19.7300 C   0  0  0  0  0  0
  -33.6199  -20.3524   20.5617 C   0  0  0  0  0  0
  -30.0949  -17.2533   21.3493 C   0  0  0  0  0  0
  -29.1892  -23.8215   20.0963 C   0  0  0  0  0  0
  -33.7149  -20.8899   22.0202 C   0  0  0  0  0  0
  -28.0567  -24.9267   19.8238 C   0  0  0  0  0  0
  -35.0468  -21.6001   22.3742 C   0  0  0  0  0  0
  -31.7216  -18.8612   20.4850 N   0  0  0  0  0  0
  -29.8375  -15.8787   20.7348 N   0  0  0  0  0  0
  -31.4770  -12.6558   19.1170 H   0  0  0  0  0  0
  -30.4177  -11.5143   19.8942 H   0  0  0  0  0  0
  -29.7819  -11.8666   17.4393 H   0  0  0  0  0  0
  -29.6011  -13.5759   17.7544 H   0  0  0  0  0  0
  -27.8146  -11.3644   18.7834 H   0  0  0  0  0  0
  -27.3832  -12.7183   17.7843 H   0  0  0  0  0  0
  -27.6417  -14.2941   19.5245 H   0  0  0  0  0  0
  -28.7748  -12.1238   21.3582 H   0  0  0  0  0  0
  -28.4695  -13.7787   21.8356 H   0  0  0  0  0  0
  -25.2861   -9.5642   22.4766 H   0  0  0  0  0  0
  -24.0020   -7.4649   22.7518 H   0  0  0  0  0  0
  -21.0906   -8.8828   19.8979 H   0  0  0  0  0  0
  -22.3813  -10.9696   19.6168 H   0  0  0  0  0  0
  -21.2020   -7.6194   23.9759 H   0  0  0  0  0  0
  -21.1482   -6.0563   25.9088 H   0  0  0  0  0  0
  -22.0578   -2.7670   23.2842 H   0  0  0  0  0  0
  -22.4089  -11.9931   22.4786 H   0  0  0  0  0  0
  -21.1073  -13.1213   22.2604 H   0  0  0  0  0  0
  -24.6108  -15.8273   20.5176 H   0  0  0  0  0  0
  -26.2389  -15.6624   20.0882 H   0  0  0  0  0  0
  -26.7103  -32.5474   23.1075 H   0  0  0  0  0  0
  -25.0145  -33.9848   25.0512 H   0  0  0  0  0  0
  -22.7206  -31.3005   21.4178 H   0  0  0  0  0  0
  -23.3816  -35.9591   23.3290 H   0  0  0  0  0  0
  -24.3570  -36.9002   22.2062 H   0  0  0  0  0  0
  -23.7247  -37.6479   23.6699 H   0  0  0  0  0  0
  -26.1424  -31.5182   20.6418 H   0  0  0  0  0  0
  -26.8504  -30.7880   22.0511 H   0  0  0  0  0  0
  -28.1022  -28.8806   21.2464 H   0  0  0  0  0  0
  -25.9230  -25.9662   18.9052 H   0  0  0  0  0  0
  -23.9620  -27.3790   18.9384 H   0  0  0  0  0  0
  -23.8028  -30.6394   19.4312 H   0  0  0  0  0  0
  -22.7744  -29.2875   19.8267 H   0  0  0  0  0  0
  -25.1326  -36.1979   25.0826 H   0  0  0  0  0  0
  -20.9944  -28.3216   24.1471 H   0  0  0  0  0  0
  -20.5897  -26.2210   23.3623 H   0  0  0  0  0  0
  -21.6692  -26.7507   22.1141 H   0  0  0  0  0  0
  -19.6972  -25.6238   21.1321 H   0  0  0  0  0  0
  -19.6779  -27.3152   20.6814 H   0  0  0  0  0  0
  -17.4276  -26.6663   21.3973 H   0  0  0  0  0  0
  -18.0258  -26.0042   22.8990 H   0  0  0  0  0  0
  -19.7909  -30.7272   24.2218 H   0  0  0  0  0  0
  -17.4992  -31.6233   24.5120 H   0  0  0  0  0  0
  -15.5344  -30.2921   23.7702 H   0  0  0  0  0  0
  -15.8678  -28.0855   22.6965 H   0  0  0  0  0  0
  -24.5796  -30.7194   25.7730 H   0  0  0  0  0  0
  -24.8812  -32.2940   26.4854 H   0  0  0  0  0  0
  -25.7847  -30.8930   27.0262 H   0  0  0  0  0  0
  -26.3000  -29.6741   24.1330 H   0  0  0  0  0  0
  -27.4094  -29.7401   25.4859 H   0  0  0  0  0  0
  -27.8866  -30.4425   23.9608 H   0  0  0  0  0  0
  -27.2735  -33.3769   26.1982 H   0  0  0  0  0  0
  -28.3827  -32.6867   25.0253 H   0  0  0  0  0  0
  -28.0721  -31.8589   26.5440 H   0  0  0  0  0  0
  -28.2549  -38.0159   24.7592 H   0  0  0  0  0  0
  -28.1197  -36.2697   24.6159 H   0  0  0  0  0  0
  -27.2328  -37.1367   25.8834 H   0  0  0  0  0  0
  -20.9420  -29.8747   21.6971 H   0  0  0  0  0  0
  -26.0216  -38.2878   24.1405 H   0  0  0  0  0  0
  -28.4294  -19.5607   20.6005 H   0  0  0  0  0  0
  -32.8626  -22.2528   18.6981 H   0  0  0  0  0  0
  -32.1249  -23.1618   20.0371 H   0  0  0  0  0  0
  -31.2940  -22.8853   18.4868 H   0  0  0  0  0  0
  -35.9818  -23.5535   22.0591 H   0  0  0  0  0  0
  -34.2492  -23.6229   22.3450 H   0  0  0  0  0  0
  -34.8864  -23.0714   20.7786 H   0  0  0  0  0  0
  -36.2637  -22.1659   24.1174 H   0  0  0  0  0  0
  -35.5463  -20.5863   24.2565 H   0  0  0  0  0  0
  -34.5445  -22.0360   24.4719 H   0  0  0  0  0  0
  -27.9572  -22.0137   20.2318 H   0  0  0  0  0  0
  -28.6550  -22.2168   18.6638 H   0  0  0  0  0  0
  -34.1069  -21.0161   19.8520 H   0  0  0  0  0  0
  -34.1794  -19.4204   20.4874 H   0  0  0  0  0  0
  -30.8947  -17.1317   22.0830 H   0  0  0  0  0  0
  -29.2137  -17.4722   21.9547 H   0  0  0  0  0  0
  -30.0547  -24.1817   19.5540 H   0  0  0  0  0  0
  -29.4508  -23.8773   21.1506 H   0  0  0  0  0  0
  -33.5267  -20.0669   22.7096 H   0  0  0  0  0  0
  -32.8965  -21.5914   22.1962 H   0  0  0  0  0  0
  -27.1562  -24.6170   20.3605 H   0  0  0  0  0  0
  -27.7935  -24.8400   18.7686 H   0  0  0  0  0  0
  -35.8666  -21.0687   21.8827 H   0  0  0  0  0  0
  -28.8539  -15.6682   20.6974 H   0  0  0  0  0  0
  1 25  1  0  0  0
  1 30  2  0  0  0
  1 87  1  0  0  0
  2  3  1  0  0  0
  2 25  1  0  0  0
  2 88  1  0  0  0
  2 89  1  0  0  0
  3  4  1  0  0  0
  3 90  1  0  0  0
  3 91  1  0  0  0
  4  5  1  0  0  0
  4 92  1  0  0  0
  4 93  1  0  0  0
  5  6  1  0  0  0
  5 26  1  0  0  0
  5 94  1  0  0  0
  6 25  1  0  0  0
  6 95  1  0  0  0
  6 96  1  0  0  0
  7  8  2  0  0  0
  7 26  1  0  0  0
  7 29  1  0  0  0
  8  9  1  0  0  0
  8 22  1  0  0  0
  9 10  1  0  0  0
  9 27  2  0  0  0
 10 11  2  0  0  0
 10 15  1  0  0  0
 11 12  1  0  0  0
 11 97  1  0  0  0
 12 13  2  0  0  0
 12 98  1  0  0  0
 13 14  1  0  0  0
 13 31  1  0  0  0
 14 15  2  0  0  0
 14 99  1  0  0  0
 15100  1  0  0  0
 16 17  2  0  0  0
 16 21  1  0  0  0
 16 31  1  0  0  0
 17 18  1  0  0  0
 17101  1  0  0  0
 18 19  2  0  0  0
 18102  1  0  0  0
 19 20  1  0  0  0
 19 24  1  0  0  0
 20 21  2  0  0  0
 20103  1  0  0  0
 21 23  1  0  0  0
 22 28  1  0  0  0
 22 32  2  0  0  0
 26 27  1  0  0  0
 28104  1  0  0  0
 28105  1  0  0  0
 29106  1  0  0  0
 29107  1  0  0  0
 33 34  1  0  0  0
 33 66  1  0  0  0
 33 70  2  0  0  0
 34 36  1  0  0  0
 34 59  1  0  0  0
 34108  1  0  0  0
 35 44  2  0  0  0
 35 45  1  0  0  0
 35 68  1  0  0  0
 36 56  1  0  0  0
 36109  1  0  0  0
 37 39  1  0  0  0
 37 47  1  0  0  0
 37 66  1  0  0  0
 37110  1  0  0  0
 38 43  2  0  0  0
 38 46  1  0  0  0
 38 47  1  0  0  0
 39 64  1  0  0  0
 39 67  2  0  0  0
 40 52  1  0  0  0
 40 53  2  0  0  0
 40 58  1  0  0  0
 41111  1  0  0  0
 41112  1  0  0  0
 41113  1  0  0  0
 41 48  1  0  0  0
 42 43  1  0  0  0
 42 66  1  0  0  0
 42114  1  0  0  0
 42115  1  0  0  0
 43 44  1  0  0  0
 44116  1  0  0  0
 45 46  2  0  0  0
 45117  1  0  0  0
 46118  1  0  0  0
 47119  1  0  0  0
 47120  1  0  0  0
 48 56  1  0  0  0
 48 65  1  0  0  0
 48121  1  0  0  0
 49 50  1  0  0  0
 49 53  1  0  0  0
 49 64  1  0  0  0
 49122  1  0  0  0
 50 51  1  0  0  0
 50123  1  0  0  0
 50124  1  0  0  0
 51 52  1  0  0  0
 51125  1  0  0  0
 51126  1  0  0  0
 52127  1  0  0  0
 52128  1  0  0  0
 53 54  1  0  0  0
 54 55  2  0  0  0
 54129  1  0  0  0
 55 57  1  0  0  0
 55130  1  0  0  0
 56 69  2  0  0  0
 57 58  2  0  0  0
 57131  1  0  0  0
 58132  1  0  0  0
 59 60  1  0  0  0
 59 61  1  0  0  0
 59 62  1  0  0  0
 60133  1  0  0  0
 60134  1  0  0  0
 60135  1  0  0  0
 61136  1  0  0  0
 61137  1  0  0  0
 61138  1  0  0  0
 62139  1  0  0  0
 62140  1  0  0  0
 62141  1  0  0  0
 63 65  1  0  0  0
 63142  1  0  0  0
 63143  1  0  0  0
 63144  1  0  0  0
 64145  1  0  0  0
 65146  1  0  0  0
 68 84  1  0  0  0
 71 72  2  0  0  0
 71 74  1  0  0  0
 71147  1  0  0  0
 72 73  1  0  0  0
 72 79  1  0  0  0
 73 75  2  0  0  0
 73 76  1  0  0  0
 74 81  1  0  0  0
 74 86  2  0  0  0
 75 80  1  0  0  0
 75 86  1  0  0  0
 76148  1  0  0  0
 76149  1  0  0  0
 76150  1  0  0  0
 77151  1  0  0  0
 77152  1  0  0  0
 77153  1  0  0  0
 77 85  1  0  0  0
 78 85  1  0  0  0
 78154  1  0  0  0
 78155  1  0  0  0
 78156  1  0  0  0
 79 82  1  0  0  0
 79157  1  0  0  0
 79158  1  0  0  0
 80 83  1  0  0  0
 80159  1  0  0  0
 80160  1  0  0  0
 81 87  1  0  0  0
 81161  1  0  0  0
 81162  1  0  0  0
 82 84  1  0  0  0
 82163  1  0  0  0
 82164  1  0  0  0
 83 85  1  0  0  0
 83165  1  0  0  0
 83166  1  0  0  0
 84167  1  0  0  0
 84168  1  0  0  0
 85169  1  0  0  0
 87170  1  0  0  0
M  ISO  4   1 100  68 101  84 101  87 100
M  END
> <chiral flag>
0

> <version>
0

> <s_m_source_file>
/data/baiqing/PycharmProjects/Reinvent-master-3.2/result/LINK_invent/BTK/process_docking_weight1_custom_sum_contain_oxygen_bond_distance_aromatic_linkinvent_7_9_3/rearranged_h_0097.sdf

> <i_m_source_file_index>
3

> <r_mmod_Potential_Energy-OPLS-2005>
-66.5250244140625

> <r_mmod_Stretch_Energy-OPLS-2005>
121.159393310547

> <r_mmod_Bend_Energy-OPLS-2005>
191.21794128418

> <r_mmod_Torsional_Energy-OPLS-2005>
237.274703979492

> <r_mmod_Improper_Torsional_Energy-OPLS-2005>
9.52643489837646

> <r_mmod_Van_der_Waal_Energy-OPLS-2005>
148.319885253906

> <r_mmod_Electrostatic_Energy-OPLS-2005>
-628.079650878906

> <r_mmod_Solvation_Energy-OPLS-2005>
-235.80046081543

> <b_mmod_Minimization_Converged-OPLS-2005>
0

> <r_mmod_RMS_Derivative-OPLS-2005>
9.05827331542969

$$$$
3
                    3D
 Structure written by MMmdl.
178186  0  0  1  0            999 V2000
  -30.6557  -14.5677   20.5524 C   0  0  0  0  0  0
  -30.4321  -12.3900   19.3926 C   0  0  0  0  0  0
  -29.4891  -12.5726   18.1833 C   0  0  0  0  0  0
  -28.0170  -12.4037   18.6146 C   0  0  0  0  0  0
  -27.6652  -13.2203   19.8851 C   0  0  2  0  0  0
  -28.7202  -13.0066   20.9944 C   0  0  0  0  0  0
  -25.2619  -13.8184   20.5697 C   0  0  0  0  0  0
  -24.1854  -13.0411   20.9170 C   0  0  0  0  0  0
  -24.6409  -11.6908   20.8703 C   0  0  0  0  0  0
  -23.9039  -10.4303   21.0425 C   0  0  0  0  0  0
  -24.3612   -9.4220   21.9210 C   0  0  0  0  0  0
  -23.6275   -8.2249   22.0770 C   0  0  0  0  0  0
  -22.4258   -8.0271   21.3536 C   0  0  0  0  0  0
  -21.9913   -9.0264   20.4627 C   0  0  0  0  0  0
  -22.7219  -10.2153   20.3044 C   0  0  0  0  0  0
  -21.6854   -6.0694   22.5240 C   0  0  0  0  0  0
  -21.4032   -6.5627   23.8174 C   0  0  0  0  0  0
  -21.3643   -5.6774   24.9150 C   0  0  0  0  0  0
  -21.6047   -4.3047   24.7216 C   0  0  0  0  0  0
  -21.8840   -3.8111   23.4358 C   0  0  0  0  0  0
  -21.9212   -4.6913   22.3396 C   0  0  0  0  0  0
  -22.7885  -13.5251   21.1833 C   0  0  0  0  0  0
  -22.1713   -4.2101   21.0966 F   0  0  0  0  0  0
  -21.5608   -3.4536   25.7746 F   0  0  0  0  0  0
  -30.0257  -13.3652   20.4214 N   0  0  0  0  0  0
  -26.3079  -12.9352   20.3468 N   0  0  0  0  0  0
  -25.9363  -11.6473   20.5784 N   0  0  0  0  0  0
  -22.0541  -12.8218   22.0395 N   0  0  0  0  0  0
  -25.4303  -15.1898   20.4136 N   0  0  0  0  0  0
  -31.8056  -14.7535   20.1399 O   0  0  0  0  0  0
  -21.6620   -6.8850   21.4213 O   0  0  0  0  0  0
  -22.3533  -14.5532   20.6684 O   0  0  0  0  0  0
  -24.6233  -31.8675   23.2125 C   0  0  0  0  0  0
  -25.9048  -32.4866   23.8452 C   0  0  1  0  0  0
  -27.2359  -27.3588   20.1224 C   0  0  0  0  0  0
  -25.5893  -33.8663   24.2386 N   0  0  0  0  0  0
  -23.4175  -30.4933   21.5522 C   0  0  2  0  0  0
  -24.8689  -28.9624   20.1174 C   0  0  0  0  0  0
  -22.7452  -29.4648   22.4934 C   0  0  0  0  0  0
  -18.0248  -28.1401   22.8487 C   0  0  0  0  0  0
  -24.1479  -36.7328   23.2641 C   0  0  0  0  0  0
  -25.9553  -30.8169   21.3740 C   0  0  0  0  0  0
  -26.0360  -29.4436   20.7224 C   0  0  0  0  0  0
  -27.2219  -28.6561   20.7133 C   0  0  0  0  0  0
  -26.0373  -26.9194   19.5088 C   0  0  0  0  0  0
  -24.8750  -27.7037   19.5017 C   0  0  0  0  0  0
  -23.6370  -29.8396   20.1638 C   0  0  0  0  0  0
  -25.4099  -36.3157   24.0356 C   0  0  1  0  0  0
  -20.5863  -28.3691   23.1301 C   0  0  2  0  0  0
  -20.6777  -26.9414   22.5418 C   0  0  0  0  0  0
  -19.5754  -26.6382   21.5216 C   0  0  0  0  0  0
  -18.1914  -26.7943   22.1606 C   0  0  0  0  0  0
  -19.1515  -28.8839   23.2909 C   0  0  0  0  0  0
  -18.9446  -30.1438   23.8941 C   0  0  0  0  0  0
  -17.6467  -30.6621   24.0534 C   0  0  0  0  0  0
  -25.9034  -34.9515   23.5162 C   0  0  0  0  0  0
  -16.5342  -29.9133   23.6324 C   0  0  0  0  0  0
  -16.7232  -28.6525   23.0365 C   0  0  0  0  0  0
  -26.4454  -31.6670   25.0785 C   0  0  0  0  0  0
  -25.3710  -31.3741   26.1515 C   0  0  0  0  0  0
  -27.0275  -30.3117   24.6141 C   0  0  0  0  0  0
  -27.6047  -32.4357   25.7544 C   0  0  0  0  0  0
  -27.5576  -37.1847   24.8452 C   0  0  0  0  0  0
  -21.4152  -29.3077   22.3712 N   0  0  0  0  0  0
  -26.4287  -37.3838   23.9399 N   0  0  0  0  0  0
  -24.6853  -31.0709   22.1070 N   0  0  0  0  0  0
  -23.4197  -28.8165   23.2963 O   0  0  0  0  0  0
  -28.3715  -26.5350   20.1658 O   0  0  0  0  0  0
  -26.5574  -34.8952   22.4713 O   0  0  0  0  0  0
  -23.5402  -32.1426   23.7483 O   0  0  0  0  0  0
  -31.8442  -21.2491   21.7049 C   0  0  0  0  0  0
  -32.9481  -20.3556   21.6303 C   0  0  0  0  0  0
  -30.7415  -20.6801   21.1262 C   0  0  0  0  0  0
  -32.4698  -19.2177   21.0378 C   0  0  0  0  0  0
  -33.2528  -18.0155   20.5797 C   0  0  0  0  0  0
  -34.3442  -23.5268   24.6975 C   0  0  0  0  0  0
  -35.6681  -23.5348   22.5385 C   0  0  0  0  0  0
  -30.7162  -24.7552   20.2498 C   0  0  0  0  0  0
  -34.3919  -20.5821   22.0607 C   0  0  0  0  0  0
  -29.4062  -21.3570   20.7897 C   0  0  0  0  0  0
  -34.6040  -21.3904   23.3628 C   0  0  0  0  0  0
  -29.1646  -22.8657   21.2236 C   0  0  0  0  0  0
  -30.2111  -18.1753   20.5046 C   0  0  0  0  0  0
  -30.3371  -16.9358   21.4825 C   0  0  0  0  0  0
  -28.1463  -25.0849   20.0740 C   0  0  0  0  0  0
  -34.4738  -22.9244   23.2843 C   0  0  0  0  0  0
  -29.3459  -24.0521   20.1738 C   0  0  1  0  0  0
  -31.0791  -19.3195   20.9003 N   0  0  0  0  0  0
  -29.8988  -15.5809   21.0457 N   0  0  0  0  0  0
  -31.4724  -12.5239   19.0892 H   0  0  0  0  0  0
  -30.3595  -11.3740   19.7791 H   0  0  0  0  0  0
  -29.7323  -11.8598   17.3914 H   0  0  0  0  0  0
  -29.6248  -13.5612   17.7385 H   0  0  0  0  0  0
  -27.8443  -11.3453   18.7951 H   0  0  0  0  0  0
  -27.3503  -12.6925   17.8010 H   0  0  0  0  0  0
  -27.6997  -14.2706   19.5923 H   0  0  0  0  0  0
  -28.7411  -11.9631   21.3078 H   0  0  0  0  0  0
  -28.4887  -13.5759   21.8945 H   0  0  0  0  0  0
  -25.2804   -9.5674   22.4697 H   0  0  0  0  0  0
  -23.9991   -7.4645   22.7512 H   0  0  0  0  0  0
  -21.0832   -8.8755   19.8950 H   0  0  0  0  0  0
  -22.3700  -10.9668   19.6117 H   0  0  0  0  0  0
  -21.2026   -7.6134   23.9664 H   0  0  0  0  0  0
  -21.1449   -6.0515   25.9045 H   0  0  0  0  0  0
  -22.0634   -2.7563   23.2847 H   0  0  0  0  0  0
  -22.4233  -11.9926   22.4768 H   0  0  0  0  0  0
  -21.1169  -13.1174   22.2671 H   0  0  0  0  0  0
  -24.6559  -15.8413   20.4829 H   0  0  0  0  0  0
  -26.2872  -15.6304   20.1012 H   0  0  0  0  0  0
  -26.7105  -32.5561   23.1223 H   0  0  0  0  0  0
  -25.0094  -33.9868   25.0563 H   0  0  0  0  0  0
  -22.7066  -31.3099   21.4152 H   0  0  0  0  0  0
  -23.3792  -35.9608   23.3293 H   0  0  0  0  0  0
  -24.3585  -36.8961   22.2057 H   0  0  0  0  0  0
  -23.7168  -37.6508   23.6656 H   0  0  0  0  0  0
  -26.0652  -31.5793   20.6022 H   0  0  0  0  0  0
  -26.8464  -30.8832   21.9895 H   0  0  0  0  0  0
  -28.1213  -29.0303   21.1843 H   0  0  0  0  0  0
  -25.9412  -25.9550   19.0373 H   0  0  0  0  0  0
  -23.9861  -27.3222   19.0254 H   0  0  0  0  0  0
  -23.7692  -30.6296   19.4227 H   0  0  0  0  0  0
  -22.7554  -29.2845   19.8419 H   0  0  0  0  0  0
  -25.1290  -36.2063   25.0853 H   0  0  0  0  0  0
  -20.9938  -28.3246   24.1429 H   0  0  0  0  0  0
  -20.5718  -26.2260   23.3591 H   0  0  0  0  0  0
  -21.6640  -26.7495   22.1178 H   0  0  0  0  0  0
  -19.6950  -25.6286   21.1267 H   0  0  0  0  0  0
  -19.6749  -27.3167   20.6726 H   0  0  0  0  0  0
  -17.4198  -26.6649   21.3996 H   0  0  0  0  0  0
  -18.0336  -26.0086   22.8999 H   0  0  0  0  0  0
  -19.7908  -30.7215   24.2393 H   0  0  0  0  0  0
  -17.5008  -31.6315   24.5100 H   0  0  0  0  0  0
  -15.5350  -30.3072   23.7625 H   0  0  0  0  0  0
  -15.8589  -28.0856   22.7143 H   0  0  0  0  0  0
  -24.5908  -30.7052   25.7840 H   0  0  0  0  0  0
  -24.8847  -32.2873   26.4960 H   0  0  0  0  0  0
  -25.8067  -30.8927   27.0278 H   0  0  0  0  0  0
  -26.2816  -29.6910   24.1149 H   0  0  0  0  0  0
  -27.4001  -29.7317   25.4592 H   0  0  0  0  0  0
  -27.8677  -30.4454   23.9322 H   0  0  0  0  0  0
  -27.2723  -33.3688   26.2096 H   0  0  0  0  0  0
  -28.3892  -32.6863   25.0396 H   0  0  0  0  0  0
  -28.0649  -31.8469   26.5491 H   0  0  0  0  0  0
  -28.2624  -38.0144   24.7553 H   0  0  0  0  0  0
  -28.1094  -36.2681   24.6260 H   0  0  0  0  0  0
  -27.2296  -37.1446   25.8868 H   0  0  0  0  0  0
  -20.9298  -29.8790   21.6942 H   0  0  0  0  0  0
  -26.0212  -38.2921   24.1469 H   0  0  0  0  0  0
  -31.8635  -22.2566   22.0866 H   0  0  0  0  0  0
  -33.2599  -17.2038   21.3071 H   0  0  0  0  0  0
  -34.2998  -18.2702   20.4113 H   0  0  0  0  0  0
  -32.8697  -17.6265   19.6342 H   0  0  0  0  0  0
  -34.2333  -24.6133   24.6749 H   0  0  0  0  0  0
  -35.2219  -23.2959   25.3069 H   0  0  0  0  0  0
  -33.4648  -23.1319   25.2152 H   0  0  0  0  0  0
  -35.5662  -24.6140   22.4234 H   0  0  0  0  0  0
  -35.7617  -23.1160   21.5369 H   0  0  0  0  0  0
  -36.5979  -23.3353   23.0715 H   0  0  0  0  0  0
  -31.5374  -24.0492   20.1168 H   0  0  0  0  0  0
  -30.8647  -25.2647   21.2045 H   0  0  0  0  0  0
  -30.8199  -25.4994   19.4548 H   0  0  0  0  0  0
  -34.9638  -20.9903   21.2321 H   0  0  0  0  0  0
  -34.8262  -19.5979   22.2425 H   0  0  0  0  0  0
  -28.6163  -20.7566   21.2448 H   0  0  0  0  0  0
  -29.2287  -21.2808   19.7165 H   0  0  0  0  0  0
  -35.6245  -21.1958   23.6956 H   0  0  0  0  0  0
  -33.9547  -20.9897   24.1394 H   0  0  0  0  0  0
  -29.6658  -23.0840   22.1664 H   0  0  0  0  0  0
  -28.1130  -22.8843   21.5128 H   0  0  0  0  0  0
  -29.1759  -18.5157   20.4866 H   0  0  0  0  0  0
  -30.4480  -17.8981   19.4775 H   0  0  0  0  0  0
  -29.7857  -17.1725   22.3905 H   0  0  0  0  0  0
  -31.3476  -16.8130   21.8413 H   0  0  0  0  0  0
  -27.3670  -24.8275   20.7953 H   0  0  0  0  0  0
  -27.7155  -24.8963   19.0889 H   0  0  0  0  0  0
  -33.5733  -23.1964   22.7389 H   0  0  0  0  0  0
  -29.3539  -23.5579   19.1993 H   0  0  0  0  0  0
  -28.9766  -15.3103   21.3529 H   0  0  0  0  0  0
  1 25  1  0  0  0
  1 30  2  0  0  0
  1 89  1  0  0  0
  2  3  1  0  0  0
  2 25  1  0  0  0
  2 90  1  0  0  0
  2 91  1  0  0  0
  3  4  1  0  0  0
  3 92  1  0  0  0
  3 93  1  0  0  0
  4  5  1  0  0  0
  4 94  1  0  0  0
  4 95  1  0  0  0
  5  6  1  0  0  0
  5 26  1  0  0  0
  5 96  1  0  0  0
  6 25  1  0  0  0
  6 97  1  0  0  0
  6 98  1  0  0  0
  7  8  2  0  0  0
  7 26  1  0  0  0
  7 29  1  0  0  0
  8  9  1  0  0  0
  8 22  1  0  0  0
  9 10  1  0  0  0
  9 27  2  0  0  0
 10 11  2  0  0  0
 10 15  1  0  0  0
 11 12  1  0  0  0
 11 99  1  0  0  0
 12 13  2  0  0  0
 12100  1  0  0  0
 13 14  1  0  0  0
 13 31  1  0  0  0
 14 15  2  0  0  0
 14101  1  0  0  0
 15102  1  0  0  0
 16 17  2  0  0  0
 16 21  1  0  0  0
 16 31  1  0  0  0
 17 18  1  0  0  0
 17103  1  0  0  0
 18 19  2  0  0  0
 18104  1  0  0  0
 19 20  1  0  0  0
 19 24  1  0  0  0
 20 21  2  0  0  0
 20105  1  0  0  0
 21 23  1  0  0  0
 22 28  1  0  0  0
 22 32  2  0  0  0
 26 27  1  0  0  0
 28106  1  0  0  0
 28107  1  0  0  0
 29108  1  0  0  0
 29109  1  0  0  0
 33 34  1  0  0  0
 33 66  1  0  0  0
 33 70  2  0  0  0
 34 36  1  0  0  0
 34 59  1  0  0  0
 34110  1  0  0  0
 35 44  2  0  0  0
 35 45  1  0  0  0
 35 68  1  0  0  0
 36 56  1  0  0  0
 36111  1  0  0  0
 37 39  1  0  0  0
 37 47  1  0  0  0
 37 66  1  0  0  0
 37112  1  0  0  0
 38 43  2  0  0  0
 38 46  1  0  0  0
 38 47  1  0  0  0
 39 64  1  0  0  0
 39 67  2  0  0  0
 40 52  1  0  0  0
 40 53  2  0  0  0
 40 58  1  0  0  0
 41113  1  0  0  0
 41114  1  0  0  0
 41115  1  0  0  0
 41 48  1  0  0  0
 42 43  1  0  0  0
 42 66  1  0  0  0
 42116  1  0  0  0
 42117  1  0  0  0
 43 44  1  0  0  0
 44118  1  0  0  0
 45 46  2  0  0  0
 45119  1  0  0  0
 46120  1  0  0  0
 47121  1  0  0  0
 47122  1  0  0  0
 48 56  1  0  0  0
 48 65  1  0  0  0
 48123  1  0  0  0
 49 50  1  0  0  0
 49 53  1  0  0  0
 49 64  1  0  0  0
 49124  1  0  0  0
 50 51  1  0  0  0
 50125  1  0  0  0
 50126  1  0  0  0
 51 52  1  0  0  0
 51127  1  0  0  0
 51128  1  0  0  0
 52129  1  0  0  0
 52130  1  0  0  0
 53 54  1  0  0  0
 54 55  2  0  0  0
 54131  1  0  0  0
 55 57  1  0  0  0
 55132  1  0  0  0
 56 69  2  0  0  0
 57 58  2  0  0  0
 57133  1  0  0  0
 58134  1  0  0  0
 59 60  1  0  0  0
 59 61  1  0  0  0
 59 62  1  0  0  0
 60135  1  0  0  0
 60136  1  0  0  0
 60137  1  0  0  0
 61138  1  0  0  0
 61139  1  0  0  0
 61140  1  0  0  0
 62141  1  0  0  0
 62142  1  0  0  0
 62143  1  0  0  0
 63 65  1  0  0  0
 63144  1  0  0  0
 63145  1  0  0  0
 63146  1  0  0  0
 64147  1  0  0  0
 65148  1  0  0  0
 68 85  1  0  0  0
 71 72  1  0  0  0
 71 73  2  0  0  0
 71149  1  0  0  0
 72 74  2  0  0  0
 72 79  1  0  0  0
 73 80  1  0  0  0
 73 88  1  0  0  0
 74 75  1  0  0  0
 74 88  1  0  0  0
 75150  1  0  0  0
 75151  1  0  0  0
 75152  1  0  0  0
 76153  1  0  0  0
 76154  1  0  0  0
 76155  1  0  0  0
 76 86  1  0  0  0
 77 86  1  0  0  0
 77156  1  0  0  0
 77157  1  0  0  0
 77158  1  0  0  0
 78159  1  0  0  0
 78160  1  0  0  0
 78161  1  0  0  0
 78 87  1  0  0  0
 79 81  1  0  0  0
 79162  1  0  0  0
 79163  1  0  0  0
 80 82  1  0  0  0
 80164  1  0  0  0
 80165  1  0  0  0
 81 86  1  0  0  0
 81166  1  0  0  0
 81167  1  0  0  0
 82 87  1  0  0  0
 82168  1  0  0  0
 82169  1  0  0  0
 83 84  1  0  0  0
 83 88  1  0  0  0
 83170  1  0  0  0
 83171  1  0  0  0
 84 89  1  0  0  0
 84172  1  0  0  0
 84173  1  0  0  0
 85 87  1  0  0  0
 85174  1  0  0  0
 85175  1  0  0  0
 86176  1  0  0  0
 87177  1  0  0  0
 89178  1  0  0  0
M  ISO  4   1 100  68 101  85 101  89 100
M  END
> <chiral flag>
0

> <version>
0

> <s_m_source_file>
/data/baiqing/PycharmProjects/Reinvent-master-3.2/result/LINK_invent/BTK/process_docking_weight1_custom_sum_contain_oxygen_bond_distance_aromatic_linkinvent_7_9_3/rearranged_h_0097.sdf

> <i_m_source_file_index>
4

> <r_mmod_Potential_Energy-OPLS-2005>
48.3984680175781

> <r_mmod_Stretch_Energy-OPLS-2005>
70.7878570556641

> <r_mmod_Bend_Energy-OPLS-2005>
155.858856201172

> <r_mmod_Torsional_Energy-OPLS-2005>
270.150787353516

> <r_mmod_Improper_Torsional_Energy-OPLS-2005>
3.7111189365387

> <r_mmod_Van_der_Waal_Energy-OPLS-2005>
132.690551757812

> <r_mmod_Electrostatic_Energy-OPLS-2005>
-411.524261474609

> <r_mmod_Solvation_Energy-OPLS-2005>
-204.45654296875

> <b_mmod_Minimization_Converged-OPLS-2005>
0

> <r_mmod_RMS_Derivative-OPLS-2005>
8.63261985778809

$$$$
4
                    3D
 Structure written by MMmdl.
175183  0  0  1  0            999 V2000
  -30.6932  -14.5802   20.5629 C   0  0  0  0  0  0
  -30.4171  -12.3764   19.4511 C   0  0  0  0  0  0
  -29.4953  -12.5039   18.2219 C   0  0  0  0  0  0
  -28.0222  -12.3344   18.6373 C   0  0  0  0  0  0
  -27.6455  -13.2110   19.8598 C   0  0  2  0  0  0
  -28.6866  -13.0854   20.9942 C   0  0  0  0  0  0
  -25.2521  -13.8172   20.5681 C   0  0  0  0  0  0
  -24.1793  -13.0437   20.9194 C   0  0  0  0  0  0
  -24.6360  -11.6909   20.8739 C   0  0  0  0  0  0
  -23.9037  -10.4294   21.0410 C   0  0  0  0  0  0
  -24.3594   -9.4217   21.9185 C   0  0  0  0  0  0
  -23.6285   -8.2250   22.0751 C   0  0  0  0  0  0
  -22.4269   -8.0281   21.3542 C   0  0  0  0  0  0
  -21.9897   -9.0250   20.4641 C   0  0  0  0  0  0
  -22.7214  -10.2137   20.3056 C   0  0  0  0  0  0
  -21.6849   -6.0738   22.5277 C   0  0  0  0  0  0
  -21.4013   -6.5639   23.8212 C   0  0  0  0  0  0
  -21.3657   -5.6791   24.9171 C   0  0  0  0  0  0
  -21.6043   -4.3054   24.7219 C   0  0  0  0  0  0
  -21.8821   -3.8149   23.4339 C   0  0  0  0  0  0
  -21.9191   -4.6969   22.3399 C   0  0  0  0  0  0
  -22.7821  -13.5240   21.1868 C   0  0  0  0  0  0
  -22.1662   -4.2157   21.0974 F   0  0  0  0  0  0
  -21.5628   -3.4536   25.7731 F   0  0  0  0  0  0
  -30.0086  -13.4013   20.4339 N   0  0  0  0  0  0
  -26.2937  -12.9338   20.3306 N   0  0  0  0  0  0
  -25.9281  -11.6492   20.5756 N   0  0  0  0  0  0
  -22.0462  -12.8229   22.0419 N   0  0  0  0  0  0
  -25.4207  -15.1900   20.4107 N   0  0  0  0  0  0
  -31.8122  -14.7256   20.0610 O   0  0  0  0  0  0
  -21.6633   -6.8882   21.4239 O   0  0  0  0  0  0
  -22.3505  -14.5546   20.6718 O   0  0  0  0  0  0
  -24.6226  -31.8613   23.2035 C   0  0  0  0  0  0
  -25.9085  -32.4783   23.8357 C   0  0  1  0  0  0
  -27.2285  -27.3486   20.0979 C   0  0  0  0  0  0
  -25.5909  -33.8585   24.2277 N   0  0  0  0  0  0
  -23.4138  -30.4842   21.5469 C   0  0  2  0  0  0
  -24.8574  -28.9393   20.1134 C   0  0  0  0  0  0
  -22.7450  -29.4617   22.4953 C   0  0  0  0  0  0
  -18.0275  -28.1372   22.8472 C   0  0  0  0  0  0
  -24.1486  -36.7307   23.2635 C   0  0  0  0  0  0
  -25.9507  -30.7994   21.3687 C   0  0  0  0  0  0
  -26.0242  -29.4277   20.7129 C   0  0  0  0  0  0
  -27.2081  -28.6419   20.6981 C   0  0  0  0  0  0
  -26.0310  -26.8911   19.5013 C   0  0  0  0  0  0
  -24.8601  -27.6730   19.5058 C   0  0  0  0  0  0
  -23.6260  -29.8188   20.1618 C   0  0  0  0  0  0
  -25.4112  -36.3089   24.0321 C   0  0  1  0  0  0
  -20.5870  -28.3672   23.1290 C   0  0  2  0  0  0
  -20.6762  -26.9393   22.5415 C   0  0  0  0  0  0
  -19.5746  -26.6378   21.5200 C   0  0  0  0  0  0
  -18.1917  -26.7913   22.1603 C   0  0  0  0  0  0
  -19.1526  -28.8836   23.2872 C   0  0  0  0  0  0
  -18.9464  -30.1437   23.8886 C   0  0  0  0  0  0
  -17.6469  -30.6572   24.0569 C   0  0  0  0  0  0
  -25.9051  -34.9457   23.5103 C   0  0  0  0  0  0
  -16.5355  -29.9078   23.6330 C   0  0  0  0  0  0
  -16.7266  -28.6501   23.0332 C   0  0  0  0  0  0
  -26.4483  -31.6589   25.0720 C   0  0  0  0  0  0
  -25.3722  -31.3723   26.1459 C   0  0  0  0  0  0
  -27.0329  -30.3021   24.6156 C   0  0  0  0  0  0
  -27.6055  -32.4319   25.7479 C   0  0  0  0  0  0
  -27.5579  -37.1798   24.8451 C   0  0  0  0  0  0
  -21.4170  -29.3034   22.3702 N   0  0  0  0  0  0
  -26.4285  -37.3790   23.9407 N   0  0  0  0  0  0
  -24.6814  -31.0638   22.0977 N   0  0  0  0  0  0
  -23.4179  -28.8158   23.3029 O   0  0  0  0  0  0
  -28.3916  -26.5764   20.1339 O   0  0  0  0  0  0
  -26.5631  -34.8918   22.4680 O   0  0  0  0  0  0
  -23.5401  -32.1409   23.7378 O   0  0  0  0  0  0
  -27.1575  -20.0667   18.5949 C   0  0  0  0  0  0
  -27.0769  -18.8658   17.8500 C   0  0  0  0  0  0
  -28.2063  -20.0100   19.4702 C   0  0  0  0  0  0
  -28.0881  -18.0647   18.3003 C   0  0  0  0  0  0
  -28.4981  -16.7342   17.7319 C   0  0  0  0  0  0
  -27.3210  -19.9395   14.9901 C   0  0  0  0  0  0
  -24.6920  -18.2589   17.3697 C   0  0  0  0  0  0
  -30.9554  -16.0370   22.4744 C   0  0  0  0  0  0
  -28.6456  -21.2021   20.3362 C   0  0  0  0  0  0
  -25.9860  -19.6735   15.7002 C   0  0  0  0  0  0
  -28.6445  -22.6067   19.5836 C   0  0  0  0  0  0
  -28.4231  -23.9598   20.3735 C   0  0  0  0  0  0
  -29.7037  -17.9543   20.2465 C   0  0  0  0  0  0
  -29.1662  -16.6045   20.8896 C   0  0  0  0  0  0
  -28.4996  -25.2652   19.4842 C   0  0  0  0  0  0
  -26.0691  -18.5559   16.7593 C   0  0  1  0  0  0
  -28.6957  -18.6702   19.4114 N   0  0  0  0  0  0
  -30.1605  -15.5771   21.3357 N   0  0  0  0  0  0
  -31.4614  -12.4757   19.1506 H   0  0  0  0  0  0
  -30.3327  -11.3829   19.8947 H   0  0  0  0  0  0
  -29.7611  -11.7553   17.4744 H   0  0  0  0  0  0
  -29.6374  -13.4767   17.7480 H   0  0  0  0  0  0
  -27.8681  -11.2820   18.8786 H   0  0  0  0  0  0
  -27.3636  -12.5537   17.7958 H   0  0  0  0  0  0
  -27.6553  -14.2362   19.5018 H   0  0  0  0  0  0
  -28.6879  -12.0748   21.4045 H   0  0  0  0  0  0
  -28.4241  -13.7436   21.8234 H   0  0  0  0  0  0
  -25.2739   -9.5707   22.4759 H   0  0  0  0  0  0
  -24.0001   -7.4644   22.7471 H   0  0  0  0  0  0
  -21.0833   -8.8764   19.8946 H   0  0  0  0  0  0
  -22.3671  -10.9673   19.6167 H   0  0  0  0  0  0
  -21.2005   -7.6146   23.9717 H   0  0  0  0  0  0
  -21.1475   -6.0518   25.9073 H   0  0  0  0  0  0
  -22.0600   -2.7615   23.2835 H   0  0  0  0  0  0
  -22.4071  -11.9893   22.4818 H   0  0  0  0  0  0
  -21.1080  -13.1256   22.2619 H   0  0  0  0  0  0
  -24.6472  -15.8363   20.5208 H   0  0  0  0  0  0
  -26.2688  -15.6419   20.0964 H   0  0  0  0  0  0
  -26.7149  -32.5462   23.1106 H   0  0  0  0  0  0
  -25.0045  -33.9745   25.0412 H   0  0  0  0  0  0
  -22.7053  -31.3029   21.4055 H   0  0  0  0  0  0
  -23.3746  -35.9639   23.3294 H   0  0  0  0  0  0
  -24.3573  -36.8952   22.2050 H   0  0  0  0  0  0
  -23.7254  -37.6511   23.6677 H   0  0  0  0  0  0
  -26.0719  -31.5614   20.5975 H   0  0  0  0  0  0
  -26.8344  -30.8526   21.9924 H   0  0  0  0  0  0
  -28.1094  -29.0162   21.1634 H   0  0  0  0  0  0
  -25.9594  -25.9170   19.0434 H   0  0  0  0  0  0
  -23.9603  -27.2871   19.0472 H   0  0  0  0  0  0
  -23.7443  -30.5955   19.4047 H   0  0  0  0  0  0
  -22.7462  -29.2477   19.8612 H   0  0  0  0  0  0
  -25.1290  -36.1941   25.0814 H   0  0  0  0  0  0
  -20.9948  -28.3250   24.1415 H   0  0  0  0  0  0
  -20.5650  -26.2278   23.3611 H   0  0  0  0  0  0
  -21.6637  -26.7419   22.1225 H   0  0  0  0  0  0
  -19.6912  -25.6294   21.1226 H   0  0  0  0  0  0
  -19.6691  -27.3198   20.6737 H   0  0  0  0  0  0
  -17.4194  -26.6662   21.3997 H   0  0  0  0  0  0
  -18.0316  -26.0041   22.8982 H   0  0  0  0  0  0
  -19.7943  -30.7257   24.2241 H   0  0  0  0  0  0
  -17.5027  -31.6244   24.5179 H   0  0  0  0  0  0
  -15.5363  -30.2986   23.7655 H   0  0  0  0  0  0
  -15.8656  -28.0847   22.7021 H   0  0  0  0  0  0
  -24.5922  -30.7029   25.7813 H   0  0  0  0  0  0
  -24.8869  -32.2876   26.4854 H   0  0  0  0  0  0
  -25.8057  -30.8953   27.0256 H   0  0  0  0  0  0
  -26.2901  -29.6765   24.1195 H   0  0  0  0  0  0
  -27.4068  -29.7283   25.4649 H   0  0  0  0  0  0
  -27.8740  -30.4332   23.9344 H   0  0  0  0  0  0
  -27.2686  -33.3623   26.2066 H   0  0  0  0  0  0
  -28.3850  -32.6880   25.0287 H   0  0  0  0  0  0
  -28.0735  -31.8435   26.5383 H   0  0  0  0  0  0
  -28.2587  -38.0101   24.7524 H   0  0  0  0  0  0
  -28.1086  -36.2643   24.6250 H   0  0  0  0  0  0
  -27.2296  -37.1426   25.8851 H   0  0  0  0  0  0
  -20.9333  -29.8796   21.6954 H   0  0  0  0  0  0
  -26.0164  -38.2859   24.1439 H   0  0  0  0  0  0
  -26.5105  -20.9221   18.4614 H   0  0  0  0  0  0
  -27.7354  -15.9800   17.9207 H   0  0  0  0  0  0
  -29.4492  -16.3700   18.1164 H   0  0  0  0  0  0
  -28.6165  -16.8082   16.6509 H   0  0  0  0  0  0
  -27.1972  -20.6650   14.1859 H   0  0  0  0  0  0
  -27.7224  -19.0238   14.5545 H   0  0  0  0  0  0
  -28.0681  -20.3353   15.6787 H   0  0  0  0  0  0
  -24.7504  -17.4351   18.0822 H   0  0  0  0  0  0
  -23.9733  -17.9752   16.6003 H   0  0  0  0  0  0
  -24.2918  -19.1254   17.8961 H   0  0  0  0  0  0
  -30.3466  -16.5730   23.2027 H   0  0  0  0  0  0
  -31.7510  -16.7029   22.1371 H   0  0  0  0  0  0
  -31.4200  -15.1971   22.9953 H   0  0  0  0  0  0
  -29.6318  -21.0174   20.7627 H   0  0  0  0  0  0
  -27.9651  -21.2640   21.1863 H   0  0  0  0  0  0
  -25.2399  -19.4032   14.9519 H   0  0  0  0  0  0
  -25.6302  -20.5976   16.1576 H   0  0  0  0  0  0
  -27.8636  -22.6011   18.8256 H   0  0  0  0  0  0
  -29.5718  -22.6745   19.0138 H   0  0  0  0  0  0
  -29.1673  -24.0314   21.1668 H   0  0  0  0  0  0
  -27.4520  -23.9303   20.8691 H   0  0  0  0  0  0
  -30.5674  -17.7470   19.6139 H   0  0  0  0  0  0
  -30.0615  -18.6269   21.0259 H   0  0  0  0  0  0
  -28.4742  -16.1138   20.2163 H   0  0  0  0  0  0
  -28.5409  -16.8673   21.7435 H   0  0  0  0  0  0
  -27.8407  -25.1722   18.6229 H   0  0  0  0  0  0
  -29.4911  -25.2648   19.0304 H   0  0  0  0  0  0
  -26.3928  -17.6480   16.2487 H   0  0  0  0  0  0
  1 25  1  0  0  0
  1 30  2  0  0  0
  1 88  1  0  0  0
  2  3  1  0  0  0
  2 25  1  0  0  0
  2 89  1  0  0  0
  2 90  1  0  0  0
  3  4  1  0  0  0
  3 91  1  0  0  0
  3 92  1  0  0  0
  4  5  1  0  0  0
  4 93  1  0  0  0
  4 94  1  0  0  0
  5  6  1  0  0  0
  5 26  1  0  0  0
  5 95  1  0  0  0
  6 25  1  0  0  0
  6 96  1  0  0  0
  6 97  1  0  0  0
  7  8  2  0  0  0
  7 26  1  0  0  0
  7 29  1  0  0  0
  8  9  1  0  0  0
  8 22  1  0  0  0
  9 10  1  0  0  0
  9 27  2  0  0  0
 10 11  2  0  0  0
 10 15  1  0  0  0
 11 12  1  0  0  0
 11 98  1  0  0  0
 12 13  2  0  0  0
 12 99  1  0  0  0
 13 14  1  0  0  0
 13 31  1  0  0  0
 14 15  2  0  0  0
 14100  1  0  0  0
 15101  1  0  0  0
 16 17  2  0  0  0
 16 21  1  0  0  0
 16 31  1  0  0  0
 17 18  1  0  0  0
 17102  1  0  0  0
 18 19  2  0  0  0
 18103  1  0  0  0
 19 20  1  0  0  0
 19 24  1  0  0  0
 20 21  2  0  0  0
 20104  1  0  0  0
 21 23  1  0  0  0
 22 28  1  0  0  0
 22 32  2  0  0  0
 26 27  1  0  0  0
 28105  1  0  0  0
 28106  1  0  0  0
 29107  1  0  0  0
 29108  1  0  0  0
 33 34  1  0  0  0
 33 66  1  0  0  0
 33 70  2  0  0  0
 34 36  1  0  0  0
 34 59  1  0  0  0
 34109  1  0  0  0
 35 44  2  0  0  0
 35 45  1  0  0  0
 35 68  1  0  0  0
 36 56  1  0  0  0
 36110  1  0  0  0
 37 39  1  0  0  0
 37 47  1  0  0  0
 37 66  1  0  0  0
 37111  1  0  0  0
 38 43  2  0  0  0
 38 46  1  0  0  0
 38 47  1  0  0  0
 39 64  1  0  0  0
 39 67  2  0  0  0
 40 52  1  0  0  0
 40 53  2  0  0  0
 40 58  1  0  0  0
 41112  1  0  0  0
 41113  1  0  0  0
 41114  1  0  0  0
 41 48  1  0  0  0
 42 43  1  0  0  0
 42 66  1  0  0  0
 42115  1  0  0  0
 42116  1  0  0  0
 43 44  1  0  0  0
 44117  1  0  0  0
 45 46  2  0  0  0
 45118  1  0  0  0
 46119  1  0  0  0
 47120  1  0  0  0
 47121  1  0  0  0
 48 56  1  0  0  0
 48 65  1  0  0  0
 48122  1  0  0  0
 49 50  1  0  0  0
 49 53  1  0  0  0
 49 64  1  0  0  0
 49123  1  0  0  0
 50 51  1  0  0  0
 50124  1  0  0  0
 50125  1  0  0  0
 51 52  1  0  0  0
 51126  1  0  0  0
 51127  1  0  0  0
 52128  1  0  0  0
 52129  1  0  0  0
 53 54  1  0  0  0
 54 55  2  0  0  0
 54130  1  0  0  0
 55 57  1  0  0  0
 55131  1  0  0  0
 56 69  2  0  0  0
 57 58  2  0  0  0
 57132  1  0  0  0
 58133  1  0  0  0
 59 60  1  0  0  0
 59 61  1  0  0  0
 59 62  1  0  0  0
 60134  1  0  0  0
 60135  1  0  0  0
 60136  1  0  0  0
 61137  1  0  0  0
 61138  1  0  0  0
 61139  1  0  0  0
 62140  1  0  0  0
 62141  1  0  0  0
 62142  1  0  0  0
 63 65  1  0  0  0
 63143  1  0  0  0
 63144  1  0  0  0
 63145  1  0  0  0
 64146  1  0  0  0
 65147  1  0  0  0
 68 85  1  0  0  0
 71 72  1  0  0  0
 71 73  2  0  0  0
 71148  1  0  0  0
 72 74  2  0  0  0
 72 86  1  0  0  0
 73 79  1  0  0  0
 73 87  1  0  0  0
 74 75  1  0  0  0
 74 87  1  0  0  0
 75149  1  0  0  0
 75150  1  0  0  0
 75151  1  0  0  0
 76 80  1  0  0  0
 76152  1  0  0  0
 76153  1  0  0  0
 76154  1  0  0  0
 77155  1  0  0  0
 77156  1  0  0  0
 77157  1  0  0  0
 77 86  1  0  0  0
 78 88  1  0  0  0
 78158  1  0  0  0
 78159  1  0  0  0
 78160  1  0  0  0
 79 81  1  0  0  0
 79161  1  0  0  0
 79162  1  0  0  0
 80 86  1  0  0  0
 80163  1  0  0  0
 80164  1  0  0  0
 81 82  1  0  0  0
 81165  1  0  0  0
 81166  1  0  0  0
 82 85  1  0  0  0
 82167  1  0  0  0
 82168  1  0  0  0
 83 84  1  0  0  0
 83 87  1  0  0  0
 83169  1  0  0  0
 83170  1  0  0  0
 84 88  1  0  0  0
 84171  1  0  0  0
 84172  1  0  0  0
 85173  1  0  0  0
 85174  1  0  0  0
 86175  1  0  0  0
M  ISO  4   1 100  68 101  85 101  88 100
M  END
> <chiral flag>
0

> <version>
0

> <s_m_source_file>
/data/baiqing/PycharmProjects/Reinvent-master-3.2/result/LINK_invent/BTK/process_docking_weight1_custom_sum_contain_oxygen_bond_distance_aromatic_linkinvent_7_9_3/rearranged_h_0097.sdf

> <i_m_source_file_index>
5

> <r_mmod_Potential_Energy-OPLS-2005>
148.640243530273

> <r_mmod_Stretch_Energy-OPLS-2005>
71.7644271850586

> <r_mmod_Bend_Energy-OPLS-2005>
158.000305175781

> <r_mmod_Torsional_Energy-OPLS-2005>
305.652160644531

> <r_mmod_Improper_Torsional_Energy-OPLS-2005>
3.92200016975403

> <r_mmod_Van_der_Waal_Energy-OPLS-2005>
111.850570678711

> <r_mmod_Electrostatic_Energy-OPLS-2005>
-351.11181640625

> <r_mmod_Solvation_Energy-OPLS-2005>
-183.612014770508

> <b_mmod_Minimization_Converged-OPLS-2005>
0

> <r_mmod_RMS_Derivative-OPLS-2005>
1.46088778972626

$$$$
5
                    3D
 Structure written by MMmdl.
176184  0  0  1  0            999 V2000
  -30.8164  -14.3435   20.7543 C   0  0  0  0  0  0
  -30.4138  -12.3214   19.3931 C   0  0  0  0  0  0
  -29.4790  -12.5384   18.1915 C   0  0  0  0  0  0
  -28.0077  -12.3734   18.6104 C   0  0  0  0  0  0
  -27.6599  -13.2075   19.8698 C   0  0  2  0  0  0
  -28.6975  -12.9858   20.9922 C   0  0  0  0  0  0
  -25.2562  -13.8146   20.5608 C   0  0  0  0  0  0
  -24.1829  -13.0444   20.9166 C   0  0  0  0  0  0
  -24.6383  -11.6906   20.8733 C   0  0  0  0  0  0
  -23.9047  -10.4298   21.0401 C   0  0  0  0  0  0
  -24.3603   -9.4212   21.9174 C   0  0  0  0  0  0
  -23.6290   -8.2243   22.0745 C   0  0  0  0  0  0
  -22.4269   -8.0281   21.3537 C   0  0  0  0  0  0
  -21.9897   -9.0246   20.4634 C   0  0  0  0  0  0
  -22.7221  -10.2131   20.3048 C   0  0  0  0  0  0
  -21.6850   -6.0732   22.5281 C   0  0  0  0  0  0
  -21.4012   -6.5635   23.8212 C   0  0  0  0  0  0
  -21.3660   -5.6792   24.9169 C   0  0  0  0  0  0
  -21.6051   -4.3055   24.7225 C   0  0  0  0  0  0
  -21.8819   -3.8147   23.4345 C   0  0  0  0  0  0
  -21.9188   -4.6964   22.3402 C   0  0  0  0  0  0
  -22.7854  -13.5239   21.1845 C   0  0  0  0  0  0
  -22.1657   -4.2149   21.0980 F   0  0  0  0  0  0
  -21.5634   -3.4544   25.7735 F   0  0  0  0  0  0
  -30.0428  -13.2666   20.4576 N   0  0  0  0  0  0
  -26.3013  -12.9322   20.3327 N   0  0  0  0  0  0
  -25.9314  -11.6489   20.5753 N   0  0  0  0  0  0
  -22.0502  -12.8226   22.0406 N   0  0  0  0  0  0
  -25.4295  -15.1833   20.3899 N   0  0  0  0  0  0
  -31.8070  -14.6693   20.0958 O   0  0  0  0  0  0
  -21.6635   -6.8873   21.4234 O   0  0  0  0  0  0
  -22.3519  -14.5544   20.6692 O   0  0  0  0  0  0
  -24.6123  -31.8704   23.2124 C   0  0  0  0  0  0
  -25.9020  -32.4822   23.8403 C   0  0  1  0  0  0
  -27.2373  -27.4648   20.0924 C   0  0  0  0  0  0
  -25.5887  -33.8620   24.2318 N   0  0  0  0  0  0
  -23.4011  -30.4942   21.5536 C   0  0  2  0  0  0
  -24.8483  -28.9642   20.1183 C   0  0  0  0  0  0
  -22.7409  -29.4677   22.5027 C   0  0  0  0  0  0
  -18.0270  -28.1343   22.8487 C   0  0  0  0  0  0
  -24.1517  -36.7320   23.2635 C   0  0  0  0  0  0
  -25.9276  -30.8444   21.3669 C   0  0  0  0  0  0
  -26.0073  -29.4829   20.7102 C   0  0  0  0  0  0
  -27.2050  -28.7352   20.7031 C   0  0  0  0  0  0
  -26.0685  -26.9593   19.4841 C   0  0  0  0  0  0
  -24.8704  -27.6950   19.5132 C   0  0  0  0  0  0
  -23.6074  -29.8248   20.1686 C   0  0  0  0  0  0
  -25.4132  -36.3103   24.0324 C   0  0  1  0  0  0
  -20.5871  -28.3626   23.1325 C   0  0  2  0  0  0
  -20.6774  -26.9353   22.5431 C   0  0  0  0  0  0
  -19.5746  -26.6362   21.5216 C   0  0  0  0  0  0
  -18.1904  -26.7896   22.1609 C   0  0  0  0  0  0
  -19.1519  -28.8796   23.2910 C   0  0  0  0  0  0
  -18.9450  -30.1398   23.8917 C   0  0  0  0  0  0
  -17.6460  -30.6548   24.0535 C   0  0  0  0  0  0
  -25.9077  -34.9468   23.5134 C   0  0  0  0  0  0
  -16.5345  -29.9051   23.6313 C   0  0  0  0  0  0
  -16.7267  -28.6464   23.0347 C   0  0  0  0  0  0
  -26.4461  -31.6582   25.0711 C   0  0  0  0  0  0
  -25.3711  -31.3623   26.1428 C   0  0  0  0  0  0
  -27.0304  -30.3038   24.6061 C   0  0  0  0  0  0
  -27.6059  -32.4282   25.7436 C   0  0  0  0  0  0
  -27.5604  -37.1796   24.8442 C   0  0  0  0  0  0
  -21.4145  -29.3012   22.3737 N   0  0  0  0  0  0
  -26.4308  -37.3788   23.9400 N   0  0  0  0  0  0
  -24.6639  -31.0840   22.1022 N   0  0  0  0  0  0
  -23.4167  -28.8239   23.3087 O   0  0  0  0  0  0
  -28.3853  -26.7146   20.1024 O   0  0  0  0  0  0
  -26.5665  -34.8908   22.4712 O   0  0  0  0  0  0
  -23.5333  -32.1456   23.7545 O   0  0  0  0  0  0
  -29.9710  -22.7147   22.6139 C   0  0  0  0  0  0
  -30.9864  -21.7532   22.7638 C   0  0  0  0  0  0
  -28.7280  -22.3247   22.0796 C   0  0  0  0  0  0
  -30.7277  -20.4297   22.3665 C   0  0  0  0  0  0
  -28.5301  -20.9522   21.7875 C   0  0  0  0  0  0
  -25.7005  -17.7564   22.6060 C   0  0  0  0  0  0
  -24.0230  -19.4169   23.4933 C   0  0  0  0  0  0
  -27.6522  -23.3864   21.8658 C   0  0  0  0  0  0
  -27.1818  -20.3654   21.3928 C   0  0  0  0  0  0
  -31.8099  -19.3583   22.3954 C   0  0  0  0  0  0
  -27.9711  -24.3631   20.7134 C   0  0  0  0  0  0
  -26.2504  -20.2327   22.6161 C   0  0  0  0  0  0
  -31.5412  -15.5307   22.8224 C   0  0  0  0  0  0
  -32.1505  -16.8876   22.3946 C   0  0  0  0  0  0
  -28.4281  -25.7645   21.1715 C   0  0  0  0  0  0
  -25.1364  -19.1796   22.4638 C   0  0  0  0  0  0
  -29.5118  -20.0344   21.9275 N   0  0  0  0  0  0
  -30.5394  -14.9350   21.9278 N   0  0  0  0  0  0
  -31.1985  -18.0168   22.4771 N   0  3  0  0  0  0
  -31.4543  -12.4312   19.0822 H   0  0  0  0  0  0
  -30.3237  -11.3019   19.7691 H   0  0  0  0  0  0
  -29.7213  -11.8365   17.3932 H   0  0  0  0  0  0
  -29.6323  -13.5374   17.7792 H   0  0  0  0  0  0
  -27.8281  -11.3150   18.8041 H   0  0  0  0  0  0
  -27.3483  -12.6465   17.7854 H   0  0  0  0  0  0
  -27.7064  -14.2562   19.5759 H   0  0  0  0  0  0
  -28.6622  -11.9540   21.3433 H   0  0  0  0  0  0
  -28.4333  -13.5999   21.8529 H   0  0  0  0  0  0
  -25.2758   -9.5695   22.4740 H   0  0  0  0  0  0
  -24.0010   -7.4629   22.7461 H   0  0  0  0  0  0
  -21.0833   -8.8756   19.8935 H   0  0  0  0  0  0
  -22.3677  -10.9666   19.6152 H   0  0  0  0  0  0
  -21.2001   -7.6146   23.9711 H   0  0  0  0  0  0
  -21.1486   -6.0525   25.9077 H   0  0  0  0  0  0
  -22.0598   -2.7610   23.2845 H   0  0  0  0  0  0
  -22.4135  -11.9900   22.4811 H   0  0  0  0  0  0
  -21.1113  -13.1222   22.2604 H   0  0  0  0  0  0
  -24.6718  -15.8477   20.5016 H   0  0  0  0  0  0
  -26.2934  -15.6127   20.0853 H   0  0  0  0  0  0
  -26.7077  -32.5559   23.1142 H   0  0  0  0  0  0
  -24.9910  -33.9765   25.0375 H   0  0  0  0  0  0
  -22.6938  -31.3127   21.4134 H   0  0  0  0  0  0
  -23.3778  -35.9655   23.3271 H   0  0  0  0  0  0
  -24.3617  -36.8993   22.2061 H   0  0  0  0  0  0
  -23.7266  -37.6507   23.6694 H   0  0  0  0  0  0
  -26.0558  -31.6196   20.6116 H   0  0  0  0  0  0
  -26.8105  -30.8814   21.9952 H   0  0  0  0  0  0
  -28.0985  -29.1219   21.1746 H   0  0  0  0  0  0
  -26.0767  -25.9980   18.9929 H   0  0  0  0  0  0
  -23.9767  -27.2817   19.0634 H   0  0  0  0  0  0
  -23.7086  -30.6007   19.4068 H   0  0  0  0  0  0
  -22.7320  -29.2442   19.8767 H   0  0  0  0  0  0
  -25.1300  -36.1973   25.0814 H   0  0  0  0  0  0
  -20.9948  -28.3193   24.1465 H   0  0  0  0  0  0
  -20.5723  -26.2217   23.3616 H   0  0  0  0  0  0
  -21.6640  -26.7465   22.1174 H   0  0  0  0  0  0
  -19.6949  -25.6299   21.1188 H   0  0  0  0  0  0
  -19.6681  -27.3239   20.6784 H   0  0  0  0  0  0
  -17.4208  -26.6655   21.3979 H   0  0  0  0  0  0
  -18.0267  -26.0045   22.9010 H   0  0  0  0  0  0
  -19.7952  -30.7159   24.2333 H   0  0  0  0  0  0
  -17.5035  -31.6263   24.5094 H   0  0  0  0  0  0
  -15.5338  -30.2925   23.7672 H   0  0  0  0  0  0
  -15.8683  -28.0770   22.7064 H   0  0  0  0  0  0
  -24.5906  -30.6983   25.7672 H   0  0  0  0  0  0
  -24.8849  -32.2732   26.4929 H   0  0  0  0  0  0
  -25.8014  -30.8702   27.0151 H   0  0  0  0  0  0
  -26.2840  -29.6758   24.1182 H   0  0  0  0  0  0
  -27.4160  -29.7298   25.4504 H   0  0  0  0  0  0
  -27.8638  -30.4365   23.9154 H   0  0  0  0  0  0
  -27.2743  -33.3593   26.2044 H   0  0  0  0  0  0
  -28.3829  -32.6831   25.0207 H   0  0  0  0  0  0
  -28.0776  -31.8378   26.5310 H   0  0  0  0  0  0
  -28.2557  -38.0164   24.7595 H   0  0  0  0  0  0
  -28.1174  -36.2694   24.6154 H   0  0  0  0  0  0
  -27.2327  -37.1304   25.8842 H   0  0  0  0  0  0
  -20.9337  -29.8730   21.6933 H   0  0  0  0  0  0
  -26.0211  -38.2867   24.1408 H   0  0  0  0  0  0
  -30.1511  -23.7388   22.9027 H   0  0  0  0  0  0
  -31.9509  -22.0458   23.1601 H   0  0  0  0  0  0
  -24.9053  -17.0113   22.5966 H   0  0  0  0  0  0
  -26.2508  -17.6379   23.5406 H   0  0  0  0  0  0
  -26.3856  -17.5129   21.7922 H   0  0  0  0  0  0
  -23.2356  -18.6677   23.4090 H   0  0  0  0  0  0
  -23.5606  -20.3965   23.3500 H   0  0  0  0  0  0
  -24.4118  -19.3773   24.5120 H   0  0  0  0  0  0
  -27.4863  -23.9204   22.8019 H   0  0  0  0  0  0
  -26.6952  -22.9193   21.6485 H   0  0  0  0  0  0
  -27.3576  -19.3836   20.9529 H   0  0  0  0  0  0
  -26.7134  -20.9439   20.5975 H   0  0  0  0  0  0
  -32.4815  -19.5246   23.2387 H   0  0  0  0  0  0
  -32.4038  -19.4545   21.4853 H   0  0  0  0  0  0
  -27.0502  -24.4671   20.1465 H   0  0  0  0  0  0
  -28.6841  -23.9335   20.0060 H   0  0  0  0  0  0
  -25.8199  -21.2083   22.8374 H   0  0  0  0  0  0
  -26.8418  -19.9759   23.4962 H   0  0  0  0  0  0
  -31.1021  -15.6230   23.8172 H   0  0  0  0  0  0
  -32.3530  -14.8087   22.9376 H   0  0  0  0  0  0
  -32.5892  -16.8355   21.3989 H   0  0  0  0  0  0
  -32.9794  -17.1002   23.0720 H   0  0  0  0  0  0
  -29.4496  -25.7170   21.5517 H   0  0  0  0  0  0
  -27.8175  -26.1050   22.0114 H   0  0  0  0  0  0
  -24.6865  -19.2796   21.4736 H   0  0  0  0  0  0
  -29.6909  -14.6138   22.3718 H   0  0  0  0  0  0
  -30.5089  -17.9892   21.7417 H   0  0  0  0  0  0
  -30.6960  -17.9957   23.3459 H   0  0  0  0  0  0
  1 25  1  0  0  0
  1 30  2  0  0  0
  1 88  1  0  0  0
  2  3  1  0  0  0
  2 25  1  0  0  0
  2 90  1  0  0  0
  2 91  1  0  0  0
  3  4  1  0  0  0
  3 92  1  0  0  0
  3 93  1  0  0  0
  4  5  1  0  0  0
  4 94  1  0  0  0
  4 95  1  0  0  0
  5  6  1  0  0  0
  5 26  1  0  0  0
  5 96  1  0  0  0
  6 25  1  0  0  0
  6 97  1  0  0  0
  6 98  1  0  0  0
  7  8  2  0  0  0
  7 26  1  0  0  0
  7 29  1  0  0  0
  8  9  1  0  0  0
  8 22  1  0  0  0
  9 10  1  0  0  0
  9 27  2  0  0  0
 10 11  2  0  0  0
 10 15  1  0  0  0
 11 12  1  0  0  0
 11 99  1  0  0  0
 12 13  2  0  0  0
 12100  1  0  0  0
 13 14  1  0  0  0
 13 31  1  0  0  0
 14 15  2  0  0  0
 14101  1  0  0  0
 15102  1  0  0  0
 16 17  2  0  0  0
 16 21  1  0  0  0
 16 31  1  0  0  0
 17 18  1  0  0  0
 17103  1  0  0  0
 18 19  2  0  0  0
 18104  1  0  0  0
 19 20  1  0  0  0
 19 24  1  0  0  0
 20 21  2  0  0  0
 20105  1  0  0  0
 21 23  1  0  0  0
 22 28  1  0  0  0
 22 32  2  0  0  0
 26 27  1  0  0  0
 28106  1  0  0  0
 28107  1  0  0  0
 29108  1  0  0  0
 29109  1  0  0  0
 33 34  1  0  0  0
 33 66  1  0  0  0
 33 70  2  0  0  0
 34 36  1  0  0  0
 34 59  1  0  0  0
 34110  1  0  0  0
 35 44  2  0  0  0
 35 45  1  0  0  0
 35 68  1  0  0  0
 36 56  1  0  0  0
 36111  1  0  0  0
 37 39  1  0  0  0
 37 47  1  0  0  0
 37 66  1  0  0  0
 37112  1  0  0  0
 38 43  2  0  0  0
 38 46  1  0  0  0
 38 47  1  0  0  0
 39 64  1  0  0  0
 39 67  2  0  0  0
 40 52  1  0  0  0
 40 53  2  0  0  0
 40 58  1  0  0  0
 41113  1  0  0  0
 41114  1  0  0  0
 41115  1  0  0  0
 41 48  1  0  0  0
 42 43  1  0  0  0
 42 66  1  0  0  0
 42116  1  0  0  0
 42117  1  0  0  0
 43 44  1  0  0  0
 44118  1  0  0  0
 45 46  2  0  0  0
 45119  1  0  0  0
 46120  1  0  0  0
 47121  1  0  0  0
 47122  1  0  0  0
 48 56  1  0  0  0
 48 65  1  0  0  0
 48123  1  0  0  0
 49 50  1  0  0  0
 49 53  1  0  0  0
 49 64  1  0  0  0
 49124  1  0  0  0
 50 51  1  0  0  0
 50125  1  0  0  0
 50126  1  0  0  0
 51 52  1  0  0  0
 51127  1  0  0  0
 51128  1  0  0  0
 52129  1  0  0  0
 52130  1  0  0  0
 53 54  1  0  0  0
 54 55  2  0  0  0
 54131  1  0  0  0
 55 57  1  0  0  0
 55132  1  0  0  0
 56 69  2  0  0  0
 57 58  2  0  0  0
 57133  1  0  0  0
 58134  1  0  0  0
 59 60  1  0  0  0
 59 61  1  0  0  0
 59 62  1  0  0  0
 60135  1  0  0  0
 60136  1  0  0  0
 60137  1  0  0  0
 61138  1  0  0  0
 61139  1  0  0  0
 61140  1  0  0  0
 62141  1  0  0  0
 62142  1  0  0  0
 62143  1  0  0  0
 63 65  1  0  0  0
 63144  1  0  0  0
 63145  1  0  0  0
 63146  1  0  0  0
 64147  1  0  0  0
 65148  1  0  0  0
 68 85  1  0  0  0
 71 72  2  0  0  0
 71 73  1  0  0  0
 71149  1  0  0  0
 72 74  1  0  0  0
 72150  1  0  0  0
 73 75  2  0  0  0
 73 78  1  0  0  0
 74 80  1  0  0  0
 74 87  2  0  0  0
 75 79  1  0  0  0
 75 87  1  0  0  0
 76151  1  0  0  0
 76152  1  0  0  0
 76153  1  0  0  0
 76 86  1  0  0  0
 77 86  1  0  0  0
 77154  1  0  0  0
 77155  1  0  0  0
 77156  1  0  0  0
 78 81  1  0  0  0
 78157  1  0  0  0
 78158  1  0  0  0
 79 82  1  0  0  0
 79159  1  0  0  0
 79160  1  0  0  0
 80 89  1  0  0  0
 80161  1  0  0  0
 80162  1  0  0  0
 81 85  1  0  0  0
 81163  1  0  0  0
 81164  1  0  0  0
 82 86  1  0  0  0
 82165  1  0  0  0
 82166  1  0  0  0
 83 84  1  0  0  0
 83 88  1  0  0  0
 83167  1  0  0  0
 83168  1  0  0  0
 84 89  1  0  0  0
 84169  1  0  0  0
 84170  1  0  0  0
 85171  1  0  0  0
 85172  1  0  0  0
 86173  1  0  0  0
 88174  1  0  0  0
 89175  1  0  0  0
 89176  1  0  0  0
M  CHG  1  89   1
M  ISO  4   1 100  68 101  85 101  88 100
M  END
> <chiral flag>
0

> <version>
0

> <s_m_source_file>
/data/baiqing/PycharmProjects/Reinvent-master-3.2/result/LINK_invent/BTK/process_docking_weight1_custom_sum_contain_oxygen_bond_distance_aromatic_linkinvent_7_9_3/rearranged_h_0097.sdf

> <i_m_source_file_index>
6

> <r_mmod_Potential_Energy-OPLS-2005>
-497.367401123047

> <r_mmod_Stretch_Energy-OPLS-2005>
32.8922233581543

> <r_mmod_Bend_Energy-OPLS-2005>
97.7637634277344

> <r_mmod_Torsional_Energy-OPLS-2005>
278.306030273438

> <r_mmod_Improper_Torsional_Energy-OPLS-2005>
5.087562084198

> <r_mmod_Van_der_Waal_Energy-OPLS-2005>
155.684432983398

> <r_mmod_Electrostatic_Energy-OPLS-2005>
-637.481262207031

> <r_mmod_Solvation_Energy-OPLS-2005>
-438.759399414062

> <b_mmod_Minimization_Converged-OPLS-2005>
0

> <r_mmod_RMS_Derivative-OPLS-2005>
3.70372295379639

$$$$
6
                    3D
 Structure written by MMmdl.
159167  0  0  1  0            999 V2000
  -30.6132  -14.7708   20.4542 C   0  0  0  0  0  0
  -30.4339  -12.4708   19.4813 C   0  0  0  0  0  0
  -29.5146  -12.5086   18.2409 C   0  0  0  0  0  0
  -28.0408  -12.3299   18.6532 C   0  0  0  0  0  0
  -27.6415  -13.2352   19.8496 C   0  0  2  0  0  0
  -28.6864  -13.1850   20.9858 C   0  0  0  0  0  0
  -25.2509  -13.8204   20.5695 C   0  0  0  0  0  0
  -24.1805  -13.0445   20.9210 C   0  0  0  0  0  0
  -24.6398  -11.6923   20.8749 C   0  0  0  0  0  0
  -23.9077  -10.4297   21.0406 C   0  0  0  0  0  0
  -24.3626   -9.4212   21.9183 C   0  0  0  0  0  0
  -23.6299   -8.2247   22.0751 C   0  0  0  0  0  0
  -22.4282   -8.0282   21.3539 C   0  0  0  0  0  0
  -21.9920   -9.0260   20.4644 C   0  0  0  0  0  0
  -22.7249  -10.2139   20.3055 C   0  0  0  0  0  0
  -21.6854   -6.0737   22.5276 C   0  0  0  0  0  0
  -21.4017   -6.5641   23.8211 C   0  0  0  0  0  0
  -21.3662   -5.6790   24.9174 C   0  0  0  0  0  0
  -21.6044   -4.3051   24.7221 C   0  0  0  0  0  0
  -21.8820   -3.8145   23.4342 C   0  0  0  0  0  0
  -21.9195   -4.6965   22.3400 C   0  0  0  0  0  0
  -22.7823  -13.5226   21.1862 C   0  0  0  0  0  0
  -22.1659   -4.2152   21.0975 F   0  0  0  0  0  0
  -21.5634   -3.4533   25.7734 F   0  0  0  0  0  0
  -29.9842  -13.5437   20.4009 N   0  0  0  0  0  0
  -26.2941  -12.9417   20.3279 N   0  0  0  0  0  0
  -25.9332  -11.6557   20.5754 N   0  0  0  0  0  0
  -22.0464  -12.8220   22.0417 N   0  0  0  0  0  0
  -25.4191  -15.1928   20.4111 N   0  0  0  0  0  0
  -31.8043  -14.8544   20.1439 O   0  0  0  0  0  0
  -21.6641   -6.8880   21.4237 O   0  0  0  0  0  0
  -22.3510  -14.5529   20.6705 O   0  0  0  0  0  0
  -24.6350  -31.8538   23.1978 C   0  0  0  0  0  0
  -25.9163  -32.4743   23.8330 C   0  0  1  0  0  0
  -27.2138  -27.2294   20.1259 C   0  0  0  0  0  0
  -25.5946  -33.8546   24.2245 N   0  0  0  0  0  0
  -23.4326  -30.4784   21.5427 C   0  0  2  0  0  0
  -24.8788  -28.9273   20.1095 C   0  0  0  0  0  0
  -22.7519  -29.4599   22.4901 C   0  0  0  0  0  0
  -18.0298  -28.1390   22.8481 C   0  0  0  0  0  0
  -24.1494  -36.7280   23.2639 C   0  0  0  0  0  0
  -25.9838  -30.7554   21.3854 C   0  0  0  0  0  0
  -26.0547  -29.3776   20.7229 C   0  0  0  0  0  0
  -27.2242  -28.5425   20.7207 C   0  0  0  0  0  0
  -26.0102  -26.8664   19.4739 C   0  0  0  0  0  0
  -24.8643  -27.6806   19.4733 C   0  0  0  0  0  0
  -23.6519  -29.8170   20.1584 C   0  0  0  0  0  0
  -25.4123  -36.3062   24.0321 C   0  0  1  0  0  0
  -20.5904  -28.3707   23.1255 C   0  0  2  0  0  0
  -20.6787  -26.9420   22.5402 C   0  0  0  0  0  0
  -19.5761  -26.6381   21.5210 C   0  0  0  0  0  0
  -18.1942  -26.7931   22.1622 C   0  0  0  0  0  0
  -19.1552  -28.8867   23.2862 C   0  0  0  0  0  0
  -18.9470  -30.1466   23.8882 C   0  0  0  0  0  0
  -17.6469  -30.6590   24.0558 C   0  0  0  0  0  0
  -25.9065  -34.9432   23.5086 C   0  0  0  0  0  0
  -16.5360  -29.9083   23.6334 C   0  0  0  0  0  0
  -16.7283  -28.6502   23.0355 C   0  0  0  0  0  0
  -26.4511  -31.6579   25.0736 C   0  0  0  0  0  0
  -25.3713  -31.3744   26.1440 C   0  0  0  0  0  0
  -27.0365  -30.2984   24.6263 C   0  0  0  0  0  0
  -27.6053  -32.4329   25.7517 C   0  0  0  0  0  0
  -27.5580  -37.1800   24.8464 C   0  0  0  0  0  0
  -21.4224  -29.3049   22.3639 N   0  0  0  0  0  0
  -26.4295  -37.3762   23.9401 N   0  0  0  0  0  0
  -24.7031  -31.0476   22.0973 N   0  0  0  0  0  0
  -23.4206  -28.8137   23.3010 O   0  0  0  0  0  0
  -28.2851  -26.2897   20.1966 O   0  0  0  0  0  0
  -26.5638  -34.8909   22.4655 O   0  0  0  0  0  0
  -23.5491  -32.1378   23.7248 O   0  0  0  0  0  0
  -28.7462  -22.5935   21.3665 C   0  0  0  0  0  0
  -28.8270  -22.4688   18.8951 C   0  0  0  0  0  0
  -29.5336  -21.1952   21.4585 C   0  0  0  0  0  0
  -28.6094  -20.9212   19.1981 C   0  0  0  0  0  0
  -28.9394  -23.4986   20.0908 C   0  0  1  0  0  0
  -29.5868  -20.2166   20.2040 C   0  0  1  0  0  0
  -31.0030  -20.2688   19.5951 C   0  0  0  0  0  0
  -27.9853  -24.8292   19.9108 C   0  0  0  0  0  0
  -29.2095  -18.6253   20.4632 C   0  0  0  0  0  0
  -30.2957  -17.3996   20.5075 C   0  0  0  0  0  0
  -29.8578  -15.9271   20.6413 N   0  0  0  0  0  0
  -31.4751  -12.5939   19.1792 H   0  0  0  0  0  0
  -30.3795  -11.4988   19.9747 H   0  0  0  0  0  0
  -29.8036  -11.7314   17.5324 H   0  0  0  0  0  0
  -29.6384  -13.4596   17.7202 H   0  0  0  0  0  0
  -27.9014  -11.2822   18.9221 H   0  0  0  0  0  0
  -27.3845  -12.5147   17.8022 H   0  0  0  0  0  0
  -27.6317  -14.2544   19.4628 H   0  0  0  0  0  0
  -28.7286  -12.1912   21.4339 H   0  0  0  0  0  0
  -28.4188  -13.8731   21.7892 H   0  0  0  0  0  0
  -25.2769   -9.5691   22.4762 H   0  0  0  0  0  0
  -24.0005   -7.4642   22.7476 H   0  0  0  0  0  0
  -21.0848   -8.8782   19.8955 H   0  0  0  0  0  0
  -22.3702  -10.9680   19.6168 H   0  0  0  0  0  0
  -21.2004   -7.6148   23.9718 H   0  0  0  0  0  0
  -21.1485   -6.0516   25.9078 H   0  0  0  0  0  0
  -22.0597   -2.7607   23.2839 H   0  0  0  0  0  0
  -22.4071  -11.9885   22.4815 H   0  0  0  0  0  0
  -21.1083  -13.1254   22.2618 H   0  0  0  0  0  0
  -24.6503  -15.8450   20.5230 H   0  0  0  0  0  0
  -26.2632  -15.6333   20.0683 H   0  0  0  0  0  0
  -26.7228  -32.5377   23.1065 H   0  0  0  0  0  0
  -25.0076  -33.9679   25.0379 H   0  0  0  0  0  0
  -22.7306  -31.3022   21.3974 H   0  0  0  0  0  0
  -23.3755  -35.9613   23.3301 H   0  0  0  0  0  0
  -24.3580  -36.8909   22.2054 H   0  0  0  0  0  0
  -23.7251  -37.6480   23.6670 H   0  0  0  0  0  0
  -26.1321  -31.5171   20.6188 H   0  0  0  0  0  0
  -26.8573  -30.7987   22.0242 H   0  0  0  0  0  0
  -28.1200  -28.8806   21.2227 H   0  0  0  0  0  0
  -25.9031  -25.9201   18.9675 H   0  0  0  0  0  0
  -23.9662  -27.3313   18.9826 H   0  0  0  0  0  0
  -23.7781  -30.5950   19.4047 H   0  0  0  0  0  0
  -22.7691  -29.2535   19.8511 H   0  0  0  0  0  0
  -25.1307  -36.1907   25.0814 H   0  0  0  0  0  0
  -20.9995  -28.3290   24.1375 H   0  0  0  0  0  0
  -20.5695  -26.2317   23.3610 H   0  0  0  0  0  0
  -21.6655  -26.7446   22.1191 H   0  0  0  0  0  0
  -19.6924  -25.6287   21.1253 H   0  0  0  0  0  0
  -19.6701  -27.3180   20.6732 H   0  0  0  0  0  0
  -17.4210  -26.6673   21.4025 H   0  0  0  0  0  0
  -18.0345  -26.0076   22.9022 H   0  0  0  0  0  0
  -19.7948  -30.7286   24.2242 H   0  0  0  0  0  0
  -17.5024  -31.6270   24.5159 H   0  0  0  0  0  0
  -15.5360  -30.2979   23.7671 H   0  0  0  0  0  0
  -15.8682  -28.0814   22.7081 H   0  0  0  0  0  0
  -24.5893  -30.7093   25.7759 H   0  0  0  0  0  0
  -24.8901  -32.2918   26.4837 H   0  0  0  0  0  0
  -25.8009  -30.8933   27.0236 H   0  0  0  0  0  0
  -26.2967  -29.6722   24.1265 H   0  0  0  0  0  0
  -27.3995  -29.7262   25.4812 H   0  0  0  0  0  0
  -27.8869  -30.4238   23.9556 H   0  0  0  0  0  0
  -27.2650  -33.3635   26.2074 H   0  0  0  0  0  0
  -28.3878  -32.6883   25.0358 H   0  0  0  0  0  0
  -28.0706  -31.8470   26.5454 H   0  0  0  0  0  0
  -28.2595  -38.0099   24.7504 H   0  0  0  0  0  0
  -28.1079  -36.2628   24.6301 H   0  0  0  0  0  0
  -27.2293  -37.1459   25.8865 H   0  0  0  0  0  0
  -20.9417  -29.8766   21.6835 H   0  0  0  0  0  0
  -26.0173  -38.2836   24.1393 H   0  0  0  0  0  0
  -28.9822  -23.1851   22.2517 H   0  0  0  0  0  0
  -27.6811  -22.3749   21.4558 H   0  0  0  0  0  0
  -28.0048  -22.7666   18.2442 H   0  0  0  0  0  0
  -29.7131  -22.5810   18.2698 H   0  0  0  0  0  0
  -29.1126  -20.6484   22.3028 H   0  0  0  0  0  0
  -30.5542  -21.4146   21.7752 H   0  0  0  0  0  0
  -28.6301  -20.3833   18.2491 H   0  0  0  0  0  0
  -27.5901  -20.7895   19.5657 H   0  0  0  0  0  0
  -29.9707  -23.8536   20.0998 H   0  0  0  0  0  0
  -31.3267  -21.2915   19.4000 H   0  0  0  0  0  0
  -31.0507  -19.7272   18.6496 H   0  0  0  0  0  0
  -31.7408  -19.8278   20.2662 H   0  0  0  0  0  0
  -27.0467  -24.5843   20.4095 H   0  0  0  0  0  0
  -27.7539  -24.8484   18.8464 H   0  0  0  0  0  0
  -28.5098  -18.3495   19.6735 H   0  0  0  0  0  0
  -28.6083  -18.5684   21.3710 H   0  0  0  0  0  0
  -30.9935  -17.5961   21.3222 H   0  0  0  0  0  0
  -30.8966  -17.4548   19.5987 H   0  0  0  0  0  0
  -28.8828  -15.7704   20.8493 H   0  0  0  0  0  0
  1 25  1  0  0  0
  1 30  2  0  0  0
  1 81  1  0  0  0
  2  3  1  0  0  0
  2 25  1  0  0  0
  2 82  1  0  0  0
  2 83  1  0  0  0
  3  4  1  0  0  0
  3 84  1  0  0  0
  3 85  1  0  0  0
  4  5  1  0  0  0
  4 86  1  0  0  0
  4 87  1  0  0  0
  5  6  1  0  0  0
  5 26  1  0  0  0
  5 88  1  0  0  0
  6 25  1  0  0  0
  6 89  1  0  0  0
  6 90  1  0  0  0
  7  8  2  0  0  0
  7 26  1  0  0  0
  7 29  1  0  0  0
  8  9  1  0  0  0
  8 22  1  0  0  0
  9 10  1  0  0  0
  9 27  2  0  0  0
 10 11  2  0  0  0
 10 15  1  0  0  0
 11 12  1  0  0  0
 11 91  1  0  0  0
 12 13  2  0  0  0
 12 92  1  0  0  0
 13 14  1  0  0  0
 13 31  1  0  0  0
 14 15  2  0  0  0
 14 93  1  0  0  0
 15 94  1  0  0  0
 16 17  2  0  0  0
 16 21  1  0  0  0
 16 31  1  0  0  0
 17 18  1  0  0  0
 17 95  1  0  0  0
 18 19  2  0  0  0
 18 96  1  0  0  0
 19 20  1  0  0  0
 19 24  1  0  0  0
 20 21  2  0  0  0
 20 97  1  0  0  0
 21 23  1  0  0  0
 22 28  1  0  0  0
 22 32  2  0  0  0
 26 27  1  0  0  0
 28 98  1  0  0  0
 28 99  1  0  0  0
 29100  1  0  0  0
 29101  1  0  0  0
 33 34  1  0  0  0
 33 66  1  0  0  0
 33 70  2  0  0  0
 34 36  1  0  0  0
 34 59  1  0  0  0
 34102  1  0  0  0
 35 44  2  0  0  0
 35 45  1  0  0  0
 35 68  1  0  0  0
 36 56  1  0  0  0
 36103  1  0  0  0
 37 39  1  0  0  0
 37 47  1  0  0  0
 37 66  1  0  0  0
 37104  1  0  0  0
 38 43  2  0  0  0
 38 46  1  0  0  0
 38 47  1  0  0  0
 39 64  1  0  0  0
 39 67  2  0  0  0
 40 52  1  0  0  0
 40 53  2  0  0  0
 40 58  1  0  0  0
 41105  1  0  0  0
 41106  1  0  0  0
 41107  1  0  0  0
 41 48  1  0  0  0
 42 43  1  0  0  0
 42 66  1  0  0  0
 42108  1  0  0  0
 42109  1  0  0  0
 43 44  1  0  0  0
 44110  1  0  0  0
 45 46  2  0  0  0
 45111  1  0  0  0
 46112  1  0  0  0
 47113  1  0  0  0
 47114  1  0  0  0
 48 56  1  0  0  0
 48 65  1  0  0  0
 48115  1  0  0  0
 49 50  1  0  0  0
 49 53  1  0  0  0
 49 64  1  0  0  0
 49116  1  0  0  0
 50 51  1  0  0  0
 50117  1  0  0  0
 50118  1  0  0  0
 51 52  1  0  0  0
 51119  1  0  0  0
 51120  1  0  0  0
 52121  1  0  0  0
 52122  1  0  0  0
 53 54  1  0  0  0
 54 55  2  0  0  0
 54123  1  0  0  0
 55 57  1  0  0  0
 55124  1  0  0  0
 56 69  2  0  0  0
 57 58  2  0  0  0
 57125  1  0  0  0
 58126  1  0  0  0
 59 60  1  0  0  0
 59 61  1  0  0  0
 59 62  1  0  0  0
 60127  1  0  0  0
 60128  1  0  0  0
 60129  1  0  0  0
 61130  1  0  0  0
 61131  1  0  0  0
 61132  1  0  0  0
 62133  1  0  0  0
 62134  1  0  0  0
 62135  1  0  0  0
 63 65  1  0  0  0
 63136  1  0  0  0
 63137  1  0  0  0
 63138  1  0  0  0
 64139  1  0  0  0
 65140  1  0  0  0
 68 78  1  0  0  0
 71 73  1  0  0  0
 71 75  1  0  0  0
 71141  1  0  0  0
 71142  1  0  0  0
 72 74  1  0  0  0
 72 75  1  0  0  0
 72143  1  0  0  0
 72144  1  0  0  0
 73 76  1  0  0  0
 73145  1  0  0  0
 73146  1  0  0  0
 74 76  1  0  0  0
 74147  1  0  0  0
 74148  1  0  0  0
 75 78  1  0  0  0
 75149  1  0  0  0
 76 77  1  0  0  0
 76 79  1  0  0  0
 77150  1  0  0  0
 77151  1  0  0  0
 77152  1  0  0  0
 78153  1  0  0  0
 78154  1  0  0  0
 79 80  1  0  0  0
 79155  1  0  0  0
 79156  1  0  0  0
 80 81  1  0  0  0
 80157  1  0  0  0
 80158  1  0  0  0
 81159  1  0  0  0
M  ISO  4   1 100  68 101  78 101  81 100
M  END
> <chiral flag>
0

> <version>
0

> <s_m_source_file>
/data/baiqing/PycharmProjects/Reinvent-master-3.2/result/LINK_invent/BTK/process_docking_weight1_custom_sum_contain_oxygen_bond_distance_aromatic_linkinvent_7_9_3/rearranged_h_0097.sdf

> <i_m_source_file_index>
7

> <r_mmod_Potential_Energy-OPLS-2005>
324.605194091797

> <r_mmod_Stretch_Energy-OPLS-2005>
153.281326293945

> <r_mmod_Bend_Energy-OPLS-2005>
211.946060180664

> <r_mmod_Torsional_Energy-OPLS-2005>
276.269927978516

> <r_mmod_Improper_Torsional_Energy-OPLS-2005>
4.73716020584106

> <r_mmod_Van_der_Waal_Energy-OPLS-2005>
137.283294677734

> <r_mmod_Electrostatic_Energy-OPLS-2005>
-362.577575683594

> <r_mmod_Solvation_Energy-OPLS-2005>
-199.945983886719

> <b_mmod_Minimization_Converged-OPLS-2005>
0

> <r_mmod_RMS_Derivative-OPLS-2005>
0.619369506835938

$$$$
7
                    3D
 Structure written by MMmdl.
172180  0  0  1  0            999 V2000
  -30.7268  -14.4844   20.5439 C   0  0  0  0  0  0
  -30.4271  -12.3016   19.4262 C   0  0  0  0  0  0
  -29.4962  -12.4661   18.2062 C   0  0  0  0  0  0
  -28.0170  -12.3504   18.6248 C   0  0  0  0  0  0
  -27.6694  -13.2097   19.8709 C   0  0  2  0  0  0
  -28.7203  -13.0072   20.9876 C   0  0  0  0  0  0
  -25.2636  -13.8171   20.5728 C   0  0  0  0  0  0
  -24.1910  -13.0441   20.9216 C   0  0  0  0  0  0
  -24.6480  -11.6895   20.8807 C   0  0  0  0  0  0
  -23.9147  -10.4301   21.0438 C   0  0  0  0  0  0
  -24.3669   -9.4193   21.9225 C   0  0  0  0  0  0
  -23.6316   -8.2226   22.0781 C   0  0  0  0  0  0
  -22.4302   -8.0292   21.3537 C   0  0  0  0  0  0
  -21.9964   -9.0293   20.4645 C   0  0  0  0  0  0
  -22.7309  -10.2153   20.3076 C   0  0  0  0  0  0
  -21.6835   -6.0755   22.5307 C   0  0  0  0  0  0
  -21.3987   -6.5659   23.8249 C   0  0  0  0  0  0
  -21.3639   -5.6815   24.9213 C   0  0  0  0  0  0
  -21.6028   -4.3079   24.7261 C   0  0  0  0  0  0
  -21.8827   -3.8162   23.4395 C   0  0  0  0  0  0
  -21.9182   -4.6980   22.3433 C   0  0  0  0  0  0
  -22.7893  -13.5202   21.1832 C   0  0  0  0  0  0
  -22.1650   -4.2156   21.1005 F   0  0  0  0  0  0
  -21.5635   -3.4566   25.7778 F   0  0  0  0  0  0
  -30.0476  -13.3074   20.4301 N   0  0  0  0  0  0
  -26.3121  -12.9358   20.3415 N   0  0  0  0  0  0
  -25.9420  -11.6519   20.5847 N   0  0  0  0  0  0
  -22.0499  -12.8218   22.0375 N   0  0  0  0  0  0
  -25.4349  -15.1901   20.4136 N   0  0  0  0  0  0
  -31.8424  -14.6592   20.0512 O   0  0  0  0  0  0
  -21.6628   -6.8902   21.4264 O   0  0  0  0  0  0
  -22.3579  -14.5479   20.6644 O   0  0  0  0  0  0
  -24.6150  -31.8652   23.2097 C   0  0  0  0  0  0
  -25.9014  -32.4845   23.8398 C   0  0  1  0  0  0
  -27.2421  -27.4468   20.0971 C   0  0  0  0  0  0
  -25.5868  -33.8643   24.2311 N   0  0  0  0  0  0
  -23.4028  -30.4802   21.5603 C   0  0  2  0  0  0
  -24.8485  -28.9482   20.1203 C   0  0  0  0  0  0
  -22.7427  -29.4557   22.5112 C   0  0  0  0  0  0
  -18.0226  -28.1358   22.8488 C   0  0  0  0  0  0
  -24.1472  -36.7350   23.2627 C   0  0  0  0  0  0
  -25.9271  -30.8391   21.3496 C   0  0  0  0  0  0
  -26.0093  -29.4724   20.7042 C   0  0  0  0  0  0
  -27.2126  -28.7299   20.6832 C   0  0  0  0  0  0
  -26.0626  -26.9260   19.5237 C   0  0  0  0  0  0
  -24.8686  -27.6723   19.5308 C   0  0  0  0  0  0
  -23.6054  -29.8099   20.1750 C   0  0  0  0  0  0
  -25.4096  -36.3144   24.0320 C   0  0  1  0  0  0
  -20.5828  -28.3587   23.1404 C   0  0  2  0  0  0
  -20.6752  -26.9349   22.5450 C   0  0  0  0  0  0
  -19.5740  -26.6370   21.5236 C   0  0  0  0  0  0
  -18.1880  -26.7901   22.1604 C   0  0  0  0  0  0
  -19.1486  -28.8800   23.2910 C   0  0  0  0  0  0
  -18.9401  -30.1405   23.8919 C   0  0  0  0  0  0
  -17.6408  -30.6576   24.0540 C   0  0  0  0  0  0
  -25.9020  -34.9510   23.5120 C   0  0  0  0  0  0
  -16.5304  -29.9071   23.6337 C   0  0  0  0  0  0
  -16.7214  -28.6490   23.0350 C   0  0  0  0  0  0
  -26.4436  -31.6634   25.0737 C   0  0  0  0  0  0
  -25.3701  -31.3708   26.1488 C   0  0  0  0  0  0
  -27.0240  -30.3116   24.6011 C   0  0  0  0  0  0
  -27.6028  -32.4356   25.7493 C   0  0  0  0  0  0
  -27.5576  -37.1796   24.8431 C   0  0  0  0  0  0
  -21.4154  -29.2957   22.3873 N   0  0  0  0  0  0
  -26.4277  -37.3841   23.9407 N   0  0  0  0  0  0
  -24.6687  -31.0735   22.1001 N   0  0  0  0  0  0
  -23.4212  -28.8088   23.3127 O   0  0  0  0  0  0
  -28.4179  -26.7330   20.0704 O   0  0  0  0  0  0
  -26.5599  -34.8948   22.4684 O   0  0  0  0  0  0
  -23.5339  -32.1388   23.7487 O   0  0  0  0  0  0
  -27.3985  -21.7899   18.4151 C   0  0  0  0  0  0
  -27.7606  -20.6332   17.6835 C   0  0  0  0  0  0
  -28.1899  -22.0286   19.5611 C   0  0  0  0  0  0
  -29.2299  -20.0256   19.3143 C   0  0  0  0  0  0
  -25.8773  -19.3499   16.5985 C   0  0  0  0  0  0
  -26.4048  -23.7694   17.0411 C   0  0  0  0  0  0
  -25.2735  -23.0068   19.2429 C   0  0  0  0  0  0
  -31.5079  -19.3670   19.3040 C   0  0  0  0  0  0
  -27.1084  -20.2392   16.3692 C   0  0  0  0  0  0
  -30.4417  -16.9349   21.0437 C   0  0  0  0  0  0
  -29.7330  -17.7068   19.9006 C   0  0  0  0  0  0
  -28.3966  -25.4814   20.7694 C   0  0  0  0  0  0
  -28.7687  -24.2932   19.8674 C   0  0  0  0  0  0
  -26.1564  -22.6230   18.0375 C   0  0  0  0  0  0
  -28.6612  -19.7508   18.1541 N   0  0  0  0  0  0
  -29.0876  -21.1359   20.0161 N   0  0  0  0  0  0
  -30.0530  -15.5118   21.0956 N   0  0  0  0  0  0
  -30.1522  -19.1121   19.7946 N   0  0  0  0  0  0
  -28.0633  -23.1467   20.3410 O   0  0  0  0  0  0
  -31.4746  -12.3824   19.1285 H   0  0  0  0  0  0
  -30.3167  -11.3027   19.8498 H   0  0  0  0  0  0
  -29.7207  -11.6907   17.4714 H   0  0  0  0  0  0
  -29.6761  -13.4215   17.7089 H   0  0  0  0  0  0
  -27.8245  -11.2974   18.8361 H   0  0  0  0  0  0
  -27.3693  -12.6118   17.7873 H   0  0  0  0  0  0
  -27.7098  -14.2532   19.5539 H   0  0  0  0  0  0
  -28.7105  -11.9725   21.3320 H   0  0  0  0  0  0
  -28.4987  -13.6185   21.8622 H   0  0  0  0  0  0
  -25.2817   -9.5640   22.4815 H   0  0  0  0  0  0
  -23.9996   -7.4623   22.7517 H   0  0  0  0  0  0
  -21.0890   -8.8838   19.8955 H   0  0  0  0  0  0
  -22.3803  -10.9720   19.6188 H   0  0  0  0  0  0
  -21.1955   -7.6163   23.9751 H   0  0  0  0  0  0
  -21.1446   -6.0550   25.9110 H   0  0  0  0  0  0
  -22.0614   -2.7619   23.2921 H   0  0  0  0  0  0
  -22.4081  -11.9875   22.4778 H   0  0  0  0  0  0
  -21.1115  -13.1254   22.2525 H   0  0  0  0  0  0
  -24.6600  -15.8414   20.4940 H   0  0  0  0  0  0
  -26.2892  -15.6288   20.0975 H   0  0  0  0  0  0
  -26.7109  -32.5558   23.1189 H   0  0  0  0  0  0
  -25.0023  -33.9835   25.0465 H   0  0  0  0  0  0
  -22.6866  -31.2911   21.4246 H   0  0  0  0  0  0
  -23.3765  -35.9642   23.3244 H   0  0  0  0  0  0
  -24.3580  -36.9032   22.2051 H   0  0  0  0  0  0
  -23.7170  -37.6513   23.6696 H   0  0  0  0  0  0
  -26.0053  -31.5948   20.5686 H   0  0  0  0  0  0
  -26.8290  -30.9197   21.9439 H   0  0  0  0  0  0
  -28.1163  -29.1255   21.1233 H   0  0  0  0  0  0
  -26.0591  -25.9439   19.0763 H   0  0  0  0  0  0
  -23.9733  -27.2515   19.0916 H   0  0  0  0  0  0
  -23.6975  -30.5865   19.4146 H   0  0  0  0  0  0
  -22.7290  -29.2243   19.8904 H   0  0  0  0  0  0
  -25.1258  -36.2038   25.0812 H   0  0  0  0  0  0
  -20.9817  -28.3098   24.1559 H   0  0  0  0  0  0
  -20.5758  -26.2122   23.3566 H   0  0  0  0  0  0
  -21.6601  -26.7472   22.1161 H   0  0  0  0  0  0
  -19.6916  -25.6307   21.1195 H   0  0  0  0  0  0
  -19.6730  -27.3239   20.6818 H   0  0  0  0  0  0
  -17.4173  -26.6653   21.3974 H   0  0  0  0  0  0
  -18.0243  -26.0041   22.8989 H   0  0  0  0  0  0
  -19.7873  -30.7194   24.2339 H   0  0  0  0  0  0
  -17.4965  -31.6279   24.5077 H   0  0  0  0  0  0
  -15.5308  -30.2966   23.7698 H   0  0  0  0  0  0
  -15.8585  -28.0841   22.7073 H   0  0  0  0  0  0
  -24.5882  -30.7049   25.7818 H   0  0  0  0  0  0
  -24.8861  -32.2835   26.4988 H   0  0  0  0  0  0
  -25.8045  -30.8848   27.0233 H   0  0  0  0  0  0
  -26.2726  -29.6935   24.1088 H   0  0  0  0  0  0
  -27.4094  -29.7304   25.4395 H   0  0  0  0  0  0
  -27.8518  -30.4516   23.9055 H   0  0  0  0  0  0
  -27.2683  -33.3690   26.2049 H   0  0  0  0  0  0
  -28.3849  -32.6869   25.0316 H   0  0  0  0  0  0
  -28.0677  -31.8484   26.5433 H   0  0  0  0  0  0
  -28.2533  -38.0155   24.7620 H   0  0  0  0  0  0
  -28.1138  -36.2703   24.6111 H   0  0  0  0  0  0
  -27.2302  -37.1270   25.8827 H   0  0  0  0  0  0
  -20.9335  -29.8694   21.7108 H   0  0  0  0  0  0
  -26.0180  -38.2890   24.1546 H   0  0  0  0  0  0
  -25.3932  -19.1019   15.6559 H   0  0  0  0  0  0
  -25.1460  -19.8581   17.2228 H   0  0  0  0  0  0
  -26.1352  -18.4215   17.1083 H   0  0  0  0  0  0
  -26.9801  -23.4350   16.1770 H   0  0  0  0  0  0
  -26.9073  -24.6360   17.4619 H   0  0  0  0  0  0
  -25.4505  -24.1223   16.6476 H   0  0  0  0  0  0
  -24.9729  -22.1131   19.7934 H   0  0  0  0  0  0
  -24.3557  -23.4983   18.9180 H   0  0  0  0  0  0
  -25.7558  -23.6751   19.9524 H   0  0  0  0  0  0
  -31.7106  -20.4402   19.2628 H   0  0  0  0  0  0
  -31.6299  -18.9714   18.2935 H   0  0  0  0  0  0
  -32.2727  -18.9234   19.9387 H   0  0  0  0  0  0
  -27.8367  -19.7248   15.7364 H   0  0  0  0  0  0
  -26.8399  -21.1312   15.8046 H   0  0  0  0  0  0
  -30.1907  -17.3952   22.0019 H   0  0  0  0  0  0
  -31.5234  -17.0248   20.9351 H   0  0  0  0  0  0
  -28.6482  -17.6567   20.0294 H   0  0  0  0  0  0
  -29.9383  -17.2336   18.9412 H   0  0  0  0  0  0
  -29.1050  -25.5287   21.5964 H   0  0  0  0  0  0
  -27.4263  -25.2957   21.2315 H   0  0  0  0  0  0
  -29.8470  -24.1240   19.8736 H   0  0  0  0  0  0
  -28.5091  -24.5115   18.8362 H   0  0  0  0  0  0
  -25.5032  -21.9567   17.4838 H   0  0  0  0  0  0
  -29.1714  -15.3002   21.5368 H   0  0  0  0  0  0
  1 25  1  0  0  0
  1 30  2  0  0  0
  1 87  1  0  0  0
  2  3  1  0  0  0
  2 25  1  0  0  0
  2 90  1  0  0  0
  2 91  1  0  0  0
  3  4  1  0  0  0
  3 92  1  0  0  0
  3 93  1  0  0  0
  4  5  1  0  0  0
  4 94  1  0  0  0
  4 95  1  0  0  0
  5  6  1  0  0  0
  5 26  1  0  0  0
  5 96  1  0  0  0
  6 25  1  0  0  0
  6 97  1  0  0  0
  6 98  1  0  0  0
  7  8  2  0  0  0
  7 26  1  0  0  0
  7 29  1  0  0  0
  8  9  1  0  0  0
  8 22  1  0  0  0
  9 10  1  0  0  0
  9 27  2  0  0  0
 10 11  2  0  0  0
 10 15  1  0  0  0
 11 12  1  0  0  0
 11 99  1  0  0  0
 12 13  2  0  0  0
 12100  1  0  0  0
 13 14  1  0  0  0
 13 31  1  0  0  0
 14 15  2  0  0  0
 14101  1  0  0  0
 15102  1  0  0  0
 16 17  2  0  0  0
 16 21  1  0  0  0
 16 31  1  0  0  0
 17 18  1  0  0  0
 17103  1  0  0  0
 18 19  2  0  0  0
 18104  1  0  0  0
 19 20  1  0  0  0
 19 24  1  0  0  0
 20 21  2  0  0  0
 20105  1  0  0  0
 21 23  1  0  0  0
 22 28  1  0  0  0
 22 32  2  0  0  0
 26 27  1  0  0  0
 28106  1  0  0  0
 28107  1  0  0  0
 29108  1  0  0  0
 29109  1  0  0  0
 33 34  1  0  0  0
 33 66  1  0  0  0
 33 70  2  0  0  0
 34 36  1  0  0  0
 34 59  1  0  0  0
 34110  1  0  0  0
 35 44  2  0  0  0
 35 45  1  0  0  0
 35 68  1  0  0  0
 36 56  1  0  0  0
 36111  1  0  0  0
 37 39  1  0  0  0
 37 47  1  0  0  0
 37 66  1  0  0  0
 37112  1  0  0  0
 38 43  2  0  0  0
 38 46  1  0  0  0
 38 47  1  0  0  0
 39 64  1  0  0  0
 39 67  2  0  0  0
 40 52  1  0  0  0
 40 53  2  0  0  0
 40 58  1  0  0  0
 41113  1  0  0  0
 41114  1  0  0  0
 41115  1  0  0  0
 41 48  1  0  0  0
 42 43  1  0  0  0
 42 66  1  0  0  0
 42116  1  0  0  0
 42117  1  0  0  0
 43 44  1  0  0  0
 44118  1  0  0  0
 45 46  2  0  0  0
 45119  1  0  0  0
 46120  1  0  0  0
 47121  1  0  0  0
 47122  1  0  0  0
 48 56  1  0  0  0
 48 65  1  0  0  0
 48123  1  0  0  0
 49 50  1  0  0  0
 49 53  1  0  0  0
 49 64  1  0  0  0
 49124  1  0  0  0
 50 51  1  0  0  0
 50125  1  0  0  0
 50126  1  0  0  0
 51 52  1  0  0  0
 51127  1  0  0  0
 51128  1  0  0  0
 52129  1  0  0  0
 52130  1  0  0  0
 53 54  1  0  0  0
 54 55  2  0  0  0
 54131  1  0  0  0
 55 57  1  0  0  0
 55132  1  0  0  0
 56 69  2  0  0  0
 57 58  2  0  0  0
 57133  1  0  0  0
 58134  1  0  0  0
 59 60  1  0  0  0
 59 61  1  0  0  0
 59 62  1  0  0  0
 60135  1  0  0  0
 60136  1  0  0  0
 60137  1  0  0  0
 61138  1  0  0  0
 61139  1  0  0  0
 61140  1  0  0  0
 62141  1  0  0  0
 62142  1  0  0  0
 62143  1  0  0  0
 63 65  1  0  0  0
 63144  1  0  0  0
 63145  1  0  0  0
 63146  1  0  0  0
 64147  1  0  0  0
 65148  1  0  0  0
 68 82  1  0  0  0
 71 72  2  0  0  0
 71 73  1  0  0  0
 71 84  1  0  0  0
 72 79  1  0  0  0
 72 85  1  0  0  0
 73 86  2  0  0  0
 73 89  1  0  0  0
 74 85  2  0  0  0
 74 86  1  0  0  0
 74 88  1  0  0  0
 75 79  1  0  0  0
 75149  1  0  0  0
 75150  1  0  0  0
 75151  1  0  0  0
 76152  1  0  0  0
 76153  1  0  0  0
 76154  1  0  0  0
 76 84  1  0  0  0
 77 84  1  0  0  0
 77155  1  0  0  0
 77156  1  0  0  0
 77157  1  0  0  0
 78 88  1  0  0  0
 78158  1  0  0  0
 78159  1  0  0  0
 78160  1  0  0  0
 79161  1  0  0  0
 79162  1  0  0  0
 80 81  1  0  0  0
 80 87  1  0  0  0
 80163  1  0  0  0
 80164  1  0  0  0
 81 88  1  0  0  0
 81165  1  0  0  0
 81166  1  0  0  0
 82 83  1  0  0  0
 82167  1  0  0  0
 82168  1  0  0  0
 83 89  1  0  0  0
 83169  1  0  0  0
 83170  1  0  0  0
 84171  1  0  0  0
 87172  1  0  0  0
M  ISO  4   1 100  68 101  82 101  87 100
M  END
> <chiral flag>
0

> <version>
0

> <s_m_source_file>
/data/baiqing/PycharmProjects/Reinvent-master-3.2/result/LINK_invent/BTK/process_docking_weight1_custom_sum_contain_oxygen_bond_distance_aromatic_linkinvent_7_9_3/rearranged_h_0097.sdf

> <i_m_source_file_index>
8

> <r_mmod_Potential_Energy-OPLS-2005>
-600.343078613281

> <r_mmod_Stretch_Energy-OPLS-2005>
37.8932418823242

> <r_mmod_Bend_Energy-OPLS-2005>
107.180450439453

> <r_mmod_Torsional_Energy-OPLS-2005>
269.896820068359

> <r_mmod_Improper_Torsional_Energy-OPLS-2005>
7.57137632369995

> <r_mmod_Van_der_Waal_Energy-OPLS-2005>
155.641937255859

> <r_mmod_Electrostatic_Energy-OPLS-2005>
-955.768737792969

> <r_mmod_Solvation_Energy-OPLS-2005>
-236.204132080078

> <b_mmod_Minimization_Converged-OPLS-2005>
0

> <r_mmod_RMS_Derivative-OPLS-2005>
5.6788330078125

$$$$
8
                    3D
 Structure written by MMmdl.
164171  0  0  1  0            999 V2000
  -30.6484  -14.5345   20.6106 C   0  0  0  0  0  0
  -30.4090  -12.3558   19.4442 C   0  0  0  0  0  0
  -29.4931  -12.5118   18.2104 C   0  0  0  0  0  0
  -28.0187  -12.3345   18.6178 C   0  0  0  0  0  0
  -27.6441  -13.2031   19.8478 C   0  0  2  0  0  0
  -28.6707  -13.0202   20.9877 C   0  0  0  0  0  0
  -25.2560  -13.8163   20.5570 C   0  0  0  0  0  0
  -24.1831  -13.0429   20.9177 C   0  0  0  0  0  0
  -24.6385  -11.6914   20.8733 C   0  0  0  0  0  0
  -23.9063  -10.4287   21.0421 C   0  0  0  0  0  0
  -24.3635   -9.4223   21.9188 C   0  0  0  0  0  0
  -23.6335   -8.2247   22.0750 C   0  0  0  0  0  0
  -22.4295   -8.0300   21.3534 C   0  0  0  0  0  0
  -21.9926   -9.0274   20.4629 C   0  0  0  0  0  0
  -22.7254  -10.2154   20.3056 C   0  0  0  0  0  0
  -21.6850   -6.0773   22.5287 C   0  0  0  0  0  0
  -21.4013   -6.5676   23.8230 C   0  0  0  0  0  0
  -21.3656   -5.6817   24.9190 C   0  0  0  0  0  0
  -21.6053   -4.3081   24.7217 C   0  0  0  0  0  0
  -21.8827   -3.8188   23.4334 C   0  0  0  0  0  0
  -21.9193   -4.7006   22.3405 C   0  0  0  0  0  0
  -22.7864  -13.5257   21.1849 C   0  0  0  0  0  0
  -22.1660   -4.2206   21.0974 F   0  0  0  0  0  0
  -21.5626   -3.4553   25.7723 F   0  0  0  0  0  0
  -29.9992  -13.3458   20.4525 N   0  0  0  0  0  0
  -26.2918  -12.9295   20.3179 N   0  0  0  0  0  0
  -25.9278  -11.6467   20.5681 N   0  0  0  0  0  0
  -22.0537  -12.8225   22.0416 N   0  0  0  0  0  0
  -25.4337  -15.1862   20.3854 N   0  0  0  0  0  0
  -31.7835  -14.7308   20.1711 O   0  0  0  0  0  0
  -21.6652   -6.8911   21.4237 O   0  0  0  0  0  0
  -22.3563  -14.5562   20.6739 O   0  0  0  0  0  0
  -24.6165  -31.8731   23.2037 C   0  0  0  0  0  0
  -25.9041  -32.4849   23.8420 C   0  0  1  0  0  0
  -27.2360  -27.3908   20.1012 C   0  0  0  0  0  0
  -25.5904  -33.8653   24.2352 N   0  0  0  0  0  0
  -23.4047  -30.4874   21.5525 C   0  0  2  0  0  0
  -24.8484  -28.9425   20.1206 C   0  0  0  0  0  0
  -22.7428  -29.4667   22.5062 C   0  0  0  0  0  0
  -18.0311  -28.1408   22.8447 C   0  0  0  0  0  0
  -24.1486  -36.7302   23.2648 C   0  0  0  0  0  0
  -25.9349  -30.8203   21.3619 C   0  0  0  0  0  0
  -26.0120  -29.4481   20.7122 C   0  0  0  0  0  0
  -27.2061  -28.6805   20.6962 C   0  0  0  0  0  0
  -26.0436  -26.9076   19.5131 C   0  0  0  0  0  0
  -24.8625  -27.6722   19.5209 C   0  0  0  0  0  0
  -23.6088  -29.8119   20.1699 C   0  0  0  0  0  0
  -25.4099  -36.3125   24.0361 C   0  0  1  0  0  0
  -20.5885  -28.3654   23.1354 C   0  0  2  0  0  0
  -20.6779  -26.9362   22.5464 C   0  0  0  0  0  0
  -19.5774  -26.6243   21.5260 C   0  0  0  0  0  0
  -18.1921  -26.7917   22.1611 C   0  0  0  0  0  0
  -19.1565  -28.8854   23.2870 C   0  0  0  0  0  0
  -18.9484  -30.1470   23.8867 C   0  0  0  0  0  0
  -17.6473  -30.6618   24.0482 C   0  0  0  0  0  0
  -25.9064  -34.9497   23.5174 C   0  0  0  0  0  0
  -16.5358  -29.9111   23.6279 C   0  0  0  0  0  0
  -16.7302  -28.6515   23.0330 C   0  0  0  0  0  0
  -26.4436  -31.6636   25.0782 C   0  0  0  0  0  0
  -25.3680  -31.3738   26.1522 C   0  0  0  0  0  0
  -27.0257  -30.3090   24.6151 C   0  0  0  0  0  0
  -27.6062  -32.4333   25.7471 C   0  0  0  0  0  0
  -27.5589  -37.1779   24.8472 C   0  0  0  0  0  0
  -21.4172  -29.3003   22.3743 N   0  0  0  0  0  0
  -26.4289  -37.3804   23.9432 N   0  0  0  0  0  0
  -24.6704  -31.0786   22.0957 N   0  0  0  0  0  0
  -23.4201  -28.8315   23.3200 O   0  0  0  0  0  0
  -28.4223  -26.6625   20.1058 O   0  0  0  0  0  0
  -26.5618  -34.8943   22.4726 O   0  0  0  0  0  0
  -23.5328  -32.1507   23.7378 O   0  0  0  0  0  0
  -27.3859  -22.3413   22.2749 C   0  0  0  0  0  0
  -26.3695  -22.8779   20.0660 C   0  0  0  0  0  0
  -27.8583  -19.9829   18.9034 C   0  0  0  0  0  0
  -29.1729  -17.9463   20.7562 C   0  0  0  0  0  0
  -28.2015  -24.3277   21.0088 C   0  0  0  0  0  0
  -30.2759  -16.9718   21.2883 C   0  0  0  0  0  0
  -29.5504  -19.4762   20.6351 C   0  0  0  0  0  0
  -28.7711  -21.8794   20.1876 C   0  0  0  0  0  0
  -28.4468  -25.2468   19.7703 C   0  0  0  0  0  0
  -27.7018  -22.8425   20.8441 C   0  0  0  0  0  0
  -29.9096  -15.5371   21.1504 N   0  0  0  0  0  0
  -28.4313  -20.4014   20.2058 N   0  3  1  0  0  0
  -31.4587  -12.4658   19.1712 H   0  0  0  0  0  0
  -30.2982  -11.3556   19.8663 H   0  0  0  0  0  0
  -29.7626  -11.7845   17.4438 H   0  0  0  0  0  0
  -29.6329  -13.4948   17.7624 H   0  0  0  0  0  0
  -27.8598  -11.2778   18.8442 H   0  0  0  0  0  0
  -27.3630  -12.5642   17.7779 H   0  0  0  0  0  0
  -27.6687  -14.2383   19.5077 H   0  0  0  0  0  0
  -28.6650  -11.9897   21.3388 H   0  0  0  0  0  0
  -28.4026  -13.6258   21.8546 H   0  0  0  0  0  0
  -25.2762   -9.5741   22.4777 H   0  0  0  0  0  0
  -24.0069   -7.4632   22.7450 H   0  0  0  0  0  0
  -21.0882   -8.8803   19.8911 H   0  0  0  0  0  0
  -22.3716  -10.9719   19.6205 H   0  0  0  0  0  0
  -21.2002   -7.6170   23.9750 H   0  0  0  0  0  0
  -21.1458   -6.0530   25.9085 H   0  0  0  0  0  0
  -22.0591   -2.7647   23.2815 H   0  0  0  0  0  0
  -22.4138  -11.9866   22.4771 H   0  0  0  0  0  0
  -21.1161  -13.1267   22.2609 H   0  0  0  0  0  0
  -24.6517  -15.8311   20.4035 H   0  0  0  0  0  0
  -26.2769  -15.5893   20.0016 H   0  0  0  0  0  0
  -26.7128  -32.5540   23.1189 H   0  0  0  0  0  0
  -24.9956  -33.9820   25.0428 H   0  0  0  0  0  0
  -22.6891  -31.3002   21.4098 H   0  0  0  0  0  0
  -23.3780  -35.9615   23.3294 H   0  0  0  0  0  0
  -24.3607  -36.8921   22.2080 H   0  0  0  0  0  0
  -23.7217  -37.6497   23.6648 H   0  0  0  0  0  0
  -26.0552  -31.5833   20.5910 H   0  0  0  0  0  0
  -26.8175  -30.8799   21.9840 H   0  0  0  0  0  0
  -28.1029  -29.0774   21.1549 H   0  0  0  0  0  0
  -25.9895  -25.9391   19.0455 H   0  0  0  0  0  0
  -23.9668  -27.2695   19.0691 H   0  0  0  0  0  0
  -23.7113  -30.5847   19.4073 H   0  0  0  0  0  0
  -22.7306  -29.2304   19.8828 H   0  0  0  0  0  0
  -25.1268  -36.1975   25.0861 H   0  0  0  0  0  0
  -20.9897  -28.3235   24.1512 H   0  0  0  0  0  0
  -20.5645  -26.2223   23.3634 H   0  0  0  0  0  0
  -21.6690  -26.7382   22.1403 H   0  0  0  0  0  0
  -19.6927  -25.6088   21.1445 H   0  0  0  0  0  0
  -19.6844  -27.2895   20.6682 H   0  0  0  0  0  0
  -17.4158  -26.6630   21.4008 H   0  0  0  0  0  0
  -18.0312  -26.0146   22.9097 H   0  0  0  0  0  0
  -19.7913  -30.7345   24.2251 H   0  0  0  0  0  0
  -17.5029  -31.6337   24.5005 H   0  0  0  0  0  0
  -15.5346  -30.3006   23.7660 H   0  0  0  0  0  0
  -15.8710  -28.0766   22.7130 H   0  0  0  0  0  0
  -24.5851  -30.7102   25.7827 H   0  0  0  0  0  0
  -24.8855  -32.2885   26.4988 H   0  0  0  0  0  0
  -25.8026  -30.8888   27.0272 H   0  0  0  0  0  0
  -26.2806  -29.6852   24.1202 H   0  0  0  0  0  0
  -27.4049  -29.7343   25.4607 H   0  0  0  0  0  0
  -27.8634  -30.4460   23.9307 H   0  0  0  0  0  0
  -27.2773  -33.3626   26.2105 H   0  0  0  0  0  0
  -28.3775  -32.6885   25.0208 H   0  0  0  0  0  0
  -28.0818  -31.8427   26.5289 H   0  0  0  0  0  0
  -28.2601  -38.0071   24.7545 H   0  0  0  0  0  0
  -28.1081  -36.2625   24.6230 H   0  0  0  0  0  0
  -27.2347  -37.1372   25.8882 H   0  0  0  0  0  0
  -20.9382  -29.8554   21.6815 H   0  0  0  0  0  0
  -26.0184  -38.2905   24.1375 H   0  0  0  0  0  0
  -26.6790  -23.0015   22.7784 H   0  0  0  0  0  0
  -28.2803  -22.3165   22.8988 H   0  0  0  0  0  0
  -26.9406  -21.3461   22.2902 H   0  0  0  0  0  0
  -25.7230  -23.6640   20.4620 H   0  0  0  0  0  0
  -25.8022  -21.9496   20.1471 H   0  0  0  0  0  0
  -26.5220  -23.0926   19.0092 H   0  0  0  0  0  0
  -27.5471  -18.9413   18.8968 H   0  0  0  0  0  0
  -28.5945  -20.1190   18.1084 H   0  0  0  0  0  0
  -26.9747  -20.5512   18.6327 H   0  0  0  0  0  0
  -28.2810  -17.8576   21.3805 H   0  0  0  0  0  0
  -28.9043  -17.5589   19.7764 H   0  0  0  0  0  0
  -27.4674  -24.8472   21.6239 H   0  0  0  0  0  0
  -29.1115  -24.3198   21.6094 H   0  0  0  0  0  0
  -30.4585  -17.1643   22.3478 H   0  0  0  0  0  0
  -31.2232  -17.1764   20.7870 H   0  0  0  0  0  0
  -30.3687  -19.5664   19.9190 H   0  0  0  0  0  0
  -29.9484  -19.8243   21.5891 H   0  0  0  0  0  0
  -29.7319  -22.0329   20.6820 H   0  0  0  0  0  0
  -28.9433  -22.2084   19.1581 H   0  0  0  0  0  0
  -27.8129  -25.0041   18.9219 H   0  0  0  0  0  0
  -29.4526  -25.0352   19.4036 H   0  0  0  0  0  0
  -28.9855  -15.2751   21.4635 H   0  0  0  0  0  0
  -27.7056  -20.3006   20.9027 H   0  0  0  0  0  0
  1 25  1  0  0  0
  1 30  2  0  0  0
  1 81  1  0  0  0
  2  3  1  0  0  0
  2 25  1  0  0  0
  2 83  1  0  0  0
  2 84  1  0  0  0
  3  4  1  0  0  0
  3 85  1  0  0  0
  3 86  1  0  0  0
  4  5  1  0  0  0
  4 87  1  0  0  0
  4 88  1  0  0  0
  5  6  1  0  0  0
  5 26  1  0  0  0
  5 89  1  0  0  0
  6 25  1  0  0  0
  6 90  1  0  0  0
  6 91  1  0  0  0
  7  8  2  0  0  0
  7 26  1  0  0  0
  7 29  1  0  0  0
  8  9  1  0  0  0
  8 22  1  0  0  0
  9 10  1  0  0  0
  9 27  2  0  0  0
 10 11  2  0  0  0
 10 15  1  0  0  0
 11 12  1  0  0  0
 11 92  1  0  0  0
 12 13  2  0  0  0
 12 93  1  0  0  0
 13 14  1  0  0  0
 13 31  1  0  0  0
 14 15  2  0  0  0
 14 94  1  0  0  0
 15 95  1  0  0  0
 16 17  2  0  0  0
 16 21  1  0  0  0
 16 31  1  0  0  0
 17 18  1  0  0  0
 17 96  1  0  0  0
 18 19  2  0  0  0
 18 97  1  0  0  0
 19 20  1  0  0  0
 19 24  1  0  0  0
 20 21  2  0  0  0
 20 98  1  0  0  0
 21 23  1  0  0  0
 22 28  1  0  0  0
 22 32  2  0  0  0
 26 27  1  0  0  0
 28 99  1  0  0  0
 28100  1  0  0  0
 29101  1  0  0  0
 29102  1  0  0  0
 33 34  1  0  0  0
 33 66  1  0  0  0
 33 70  2  0  0  0
 34 36  1  0  0  0
 34 59  1  0  0  0
 34103  1  0  0  0
 35 44  2  0  0  0
 35 45  1  0  0  0
 35 68  1  0  0  0
 36 56  1  0  0  0
 36104  1  0  0  0
 37 39  1  0  0  0
 37 47  1  0  0  0
 37 66  1  0  0  0
 37105  1  0  0  0
 38 43  2  0  0  0
 38 46  1  0  0  0
 38 47  1  0  0  0
 39 64  1  0  0  0
 39 67  2  0  0  0
 40 52  1  0  0  0
 40 53  2  0  0  0
 40 58  1  0  0  0
 41106  1  0  0  0
 41107  1  0  0  0
 41108  1  0  0  0
 41 48  1  0  0  0
 42 43  1  0  0  0
 42 66  1  0  0  0
 42109  1  0  0  0
 42110  1  0  0  0
 43 44  1  0  0  0
 44111  1  0  0  0
 45 46  2  0  0  0
 45112  1  0  0  0
 46113  1  0  0  0
 47114  1  0  0  0
 47115  1  0  0  0
 48 56  1  0  0  0
 48 65  1  0  0  0
 48116  1  0  0  0
 49 50  1  0  0  0
 49 53  1  0  0  0
 49 64  1  0  0  0
 49117  1  0  0  0
 50 51  1  0  0  0
 50118  1  0  0  0
 50119  1  0  0  0
 51 52  1  0  0  0
 51120  1  0  0  0
 51121  1  0  0  0
 52122  1  0  0  0
 52123  1  0  0  0
 53 54  1  0  0  0
 54 55  2  0  0  0
 54124  1  0  0  0
 55 57  1  0  0  0
 55125  1  0  0  0
 56 69  2  0  0  0
 57 58  2  0  0  0
 57126  1  0  0  0
 58127  1  0  0  0
 59 60  1  0  0  0
 59 61  1  0  0  0
 59 62  1  0  0  0
 60128  1  0  0  0
 60129  1  0  0  0
 60130  1  0  0  0
 61131  1  0  0  0
 61132  1  0  0  0
 61133  1  0  0  0
 62134  1  0  0  0
 62135  1  0  0  0
 62136  1  0  0  0
 63 65  1  0  0  0
 63137  1  0  0  0
 63138  1  0  0  0
 63139  1  0  0  0
 64140  1  0  0  0
 65141  1  0  0  0
 68 79  1  0  0  0
 71142  1  0  0  0
 71143  1  0  0  0
 71144  1  0  0  0
 71 80  1  0  0  0
 72 80  1  0  0  0
 72145  1  0  0  0
 72146  1  0  0  0
 72147  1  0  0  0
 73148  1  0  0  0
 73149  1  0  0  0
 73150  1  0  0  0
 73 82  1  0  0  0
 74 76  1  0  0  0
 74 77  1  0  0  0
 74151  1  0  0  0
 74152  1  0  0  0
 75 79  1  0  0  0
 75 80  1  0  0  0
 75153  1  0  0  0
 75154  1  0  0  0
 76 81  1  0  0  0
 76155  1  0  0  0
 76156  1  0  0  0
 77 82  1  0  0  0
 77157  1  0  0  0
 77158  1  0  0  0
 78 80  1  0  0  0
 78 82  1  0  0  0
 78159  1  0  0  0
 78160  1  0  0  0
 79161  1  0  0  0
 79162  1  0  0  0
 81163  1  0  0  0
 82164  1  0  0  0
M  CHG  1  82   1
M  ISO  4   1 100  68 101  79 101  81 100
M  END
> <chiral flag>
0

> <version>
0

> <s_m_source_file>
/data/baiqing/PycharmProjects/Reinvent-master-3.2/result/LINK_invent/BTK/process_docking_weight1_custom_sum_contain_oxygen_bond_distance_aromatic_linkinvent_7_9_3/rearranged_h_0097.sdf

> <i_m_source_file_index>
9

> <r_mmod_Potential_Energy-OPLS-2005>
-101.222587585449

> <r_mmod_Stretch_Energy-OPLS-2005>
56.2760810852051

> <r_mmod_Bend_Energy-OPLS-2005>
127.798583984375

> <r_mmod_Torsional_Energy-OPLS-2005>
225.747848510742

> <r_mmod_Improper_Torsional_Energy-OPLS-2005>
3.78349542617798

> <r_mmod_Van_der_Waal_Energy-OPLS-2005>
133.511474609375

> <r_mmod_Electrostatic_Energy-OPLS-2005>
-223.614547729492

> <r_mmod_Solvation_Energy-OPLS-2005>
-447.211944580078

> <b_mmod_Minimization_Converged-OPLS-2005>
0

> <r_mmod_RMS_Derivative-OPLS-2005>
7.37609481811523

$$$$
9
                    3D
 Structure written by MMmdl.
143150  0  0  1  0            999 V2000
  -30.1599  -16.0065   20.3092 C   0  0  0  0  0  0
  -30.3935  -13.3731   19.5187 C   0  0  0  0  0  0
  -29.5598  -12.7500   18.3505 C   0  0  0  0  0  0
  -28.1676  -12.3099   18.8210 C   0  0  0  0  0  0
  -27.5835  -13.3433   19.8034 C   0  0  2  0  0  0
  -28.5790  -13.8376   20.8884 C   0  0  0  0  0  0
  -25.2276  -13.8328   20.5855 C   0  0  0  0  0  0
  -24.1698  -13.0433   20.9315 C   0  0  0  0  0  0
  -24.6450  -11.6959   20.8763 C   0  0  0  0  0  0
  -23.9156  -10.4293   21.0382 C   0  0  0  0  0  0
  -24.3676   -9.4205   21.9172 C   0  0  0  0  0  0
  -23.6325   -8.2252   22.0752 C   0  0  0  0  0  0
  -22.4304   -8.0294   21.3544 C   0  0  0  0  0  0
  -21.9959   -9.0272   20.4641 C   0  0  0  0  0  0
  -22.7315  -10.2137   20.3040 C   0  0  0  0  0  0
  -21.6864   -6.0746   22.5278 C   0  0  0  0  0  0
  -21.4023   -6.5646   23.8213 C   0  0  0  0  0  0
  -21.3661   -5.6796   24.9173 C   0  0  0  0  0  0
  -21.6043   -4.3059   24.7223 C   0  0  0  0  0  0
  -21.8818   -3.8152   23.4343 C   0  0  0  0  0  0
  -21.9196   -4.6971   22.3400 C   0  0  0  0  0  0
  -22.7700  -13.5135   21.1936 C   0  0  0  0  0  0
  -22.1661   -4.2155   21.0978 F   0  0  0  0  0  0
  -21.5626   -3.4540   25.7734 F   0  0  0  0  0  0
  -29.6765  -14.5824   20.1908 N   0  0  0  0  0  0
  -26.2769  -12.9729   20.3291 N   0  0  0  0  0  0
  -25.9413  -11.6759   20.5683 N   0  0  0  0  0  0
  -22.0375  -12.8102   22.0487 N   0  0  0  0  0  0
  -25.3813  -15.2077   20.4302 N   0  0  0  0  0  0
  -31.4074  -15.8745   20.2870 O   0  0  0  0  0  0
  -21.6655   -6.8897   21.4243 O   0  0  0  0  0  0
  -22.3364  -14.5430   20.6772 O   0  0  0  0  0  0
  -24.7088  -31.7706   23.1300 C   0  0  0  0  0  0
  -25.9546  -32.4324   23.7941 C   0  0  1  0  0  0
  -27.2351  -26.4397   20.2498 C   0  0  0  0  0  0
  -25.6017  -33.8161   24.1804 N   0  0  0  0  0  0
  -23.5464  -30.3611   21.4912 C   0  0  2  0  0  0
  -25.0042  -28.6432   20.1351 C   0  0  0  0  0  0
  -22.7877  -29.4165   22.4652 C   0  0  0  0  0  0
  -18.0356  -28.1437   22.8444 C   0  0  0  0  0  0
  -24.1495  -36.7090   23.2660 C   0  0  0  0  0  0
  -26.1378  -30.4180   21.4325 C   0  0  0  0  0  0
  -26.2003  -28.9512   20.7933 C   0  0  0  0  0  0
  -27.2910  -27.8892   20.8034 C   0  0  0  0  0  0
  -25.9989  -26.4062   19.5352 C   0  0  0  0  0  0
  -24.9576  -27.3983   19.4806 C   0  0  0  0  0  0
  -23.8150  -29.6324   20.1399 C   0  0  0  0  0  0
  -25.4155  -36.2810   24.0263 C   0  0  1  0  0  0
  -20.6002  -28.3808   23.1097 C   0  0  2  0  0  0
  -20.6809  -26.9445   22.5407 C   0  0  0  0  0  0
  -19.5788  -26.6365   21.5221 C   0  0  0  0  0  0
  -18.1971  -26.7960   22.1618 C   0  0  0  0  0  0
  -19.1628  -28.8953   23.2743 C   0  0  0  0  0  0
  -18.9529  -30.1529   23.8801 C   0  0  0  0  0  0
  -17.6516  -30.6613   24.0547 C   0  0  0  0  0  0
  -25.9151  -34.9209   23.4888 C   0  0  0  0  0  0
  -16.5404  -29.9089   23.6358 C   0  0  0  0  0  0
  -16.7334  -28.6513   23.0374 C   0  0  0  0  0  0
  -26.4637  -31.6464   25.0670 C   0  0  0  0  0  0
  -25.3632  -31.3855   26.1237 C   0  0  0  0  0  0
  -27.0608  -30.2776   24.6751 C   0  0  0  0  0  0
  -27.6035  -32.4384   25.7504 C   0  0  0  0  0  0
  -27.5552  -37.1703   24.8469 C   0  0  0  0  0  0
  -21.4502  -29.3008   22.3393 N   0  0  0  0  0  0
  -26.4259  -37.3599   23.9406 N   0  0  0  0  0  0
  -24.8245  -30.8895   22.0697 N   0  0  0  0  0  0
  -23.4199  -28.7806   23.3115 O   0  0  0  0  0  0
  -28.1914  -25.1207   20.2210 O   0  0  0  0  0  0
  -26.5825  -34.8839   22.4530 O   0  0  0  0  0  0
  -23.6051  -32.0900   23.6090 O   0  0  0  0  0  0
  -28.4216  -23.2845   22.0223 C   0  0  0  0  0  0
  -28.7925  -21.2930   20.0002 C   0  0  0  0  0  0
  -29.3429  -19.3540   20.6135 C   0  0  0  0  0  0
  -28.1751  -23.2455   20.5121 C   0  0  2  0  0  0
  -29.4056  -17.4715   20.2727 N   0  0  0  0  0  0
  -31.3452  -13.7045   19.1023 H   0  0  0  0  0  0
  -30.6649  -12.6111   20.2517 H   0  0  0  0  0  0
  -30.0922  -11.9093   17.9040 H   0  0  0  0  0  0
  -29.4499  -13.4960   17.5621 H   0  0  0  0  0  0
  -28.2674  -11.3482   19.3260 H   0  0  0  0  0  0
  -27.5011  -12.1497   17.9724 H   0  0  0  0  0  0
  -27.3919  -14.2096   19.1681 H   0  0  0  0  0  0
  -28.9347  -13.0228   21.5213 H   0  0  0  0  0  0
  -28.0766  -14.5368   21.5582 H   0  0  0  0  0  0
  -25.2812   -9.5676   22.4762 H   0  0  0  0  0  0
  -24.0019   -7.4647   22.7484 H   0  0  0  0  0  0
  -21.0886   -8.8807   19.8949 H   0  0  0  0  0  0
  -22.3774  -10.9680   19.6153 H   0  0  0  0  0  0
  -21.2021   -7.6154   23.9718 H   0  0  0  0  0  0
  -21.1482   -6.0525   25.9076 H   0  0  0  0  0  0
  -22.0594   -2.7614   23.2843 H   0  0  0  0  0  0
  -22.4032  -11.9782   22.4878 H   0  0  0  0  0  0
  -21.0976  -13.1082   22.2684 H   0  0  0  0  0  0
  -24.6087  -15.8546   20.5472 H   0  0  0  0  0  0
  -26.2272  -15.6549   20.1031 H   0  0  0  0  0  0
  -26.7655  -32.4735   23.0669 H   0  0  0  0  0  0
  -25.0040  -33.9150   24.9877 H   0  0  0  0  0  0
  -22.8868  -31.2048   21.2777 H   0  0  0  0  0  0
  -23.3778  -35.9396   23.3257 H   0  0  0  0  0  0
  -24.3553  -36.8832   22.2088 H   0  0  0  0  0  0
  -23.7238  -37.6235   23.6799 H   0  0  0  0  0  0
  -26.3643  -31.1220   20.6307 H   0  0  0  0  0  0
  -26.9807  -30.4993   22.1059 H   0  0  0  0  0  0
  -28.1959  -28.1515   21.3333 H   0  0  0  0  0  0
  -25.7912  -25.4857   19.0078 H   0  0  0  0  0  0
  -24.0634  -27.1476   18.9263 H   0  0  0  0  0  0
  -24.0156  -30.3794   19.3710 H   0  0  0  0  0  0
  -22.9138  -29.1139   19.8081 H   0  0  0  0  0  0
  -25.1378  -36.1535   25.0752 H   0  0  0  0  0  0
  -21.0077  -28.3451   24.1226 H   0  0  0  0  0  0
  -20.5652  -26.2441   23.3691 H   0  0  0  0  0  0
  -21.6668  -26.7350   22.1239 H   0  0  0  0  0  0
  -19.6939  -25.6249   21.1314 H   0  0  0  0  0  0
  -19.6736  -27.3123   20.6710 H   0  0  0  0  0  0
  -17.4241  -26.6707   21.4018 H   0  0  0  0  0  0
  -18.0348  -26.0126   22.9035 H   0  0  0  0  0  0
  -19.8004  -30.7370   24.2129 H   0  0  0  0  0  0
  -17.5065  -31.6283   24.5168 H   0  0  0  0  0  0
  -15.5400  -30.2961   23.7737 H   0  0  0  0  0  0
  -15.8735  -28.0798   22.7145 H   0  0  0  0  0  0
  -24.5860  -30.7164   25.7527 H   0  0  0  0  0  0
  -24.8779  -32.3100   26.4375 H   0  0  0  0  0  0
  -25.7750  -30.9204   27.0202 H   0  0  0  0  0  0
  -26.3374  -29.6311   24.1777 H   0  0  0  0  0  0
  -27.3970  -29.7326   25.5582 H   0  0  0  0  0  0
  -27.9376  -30.3845   24.0364 H   0  0  0  0  0  0
  -27.2545  -33.3786   26.1785 H   0  0  0  0  0  0
  -28.3997  -32.6783   25.0445 H   0  0  0  0  0  0
  -28.0537  -31.8717   26.5665 H   0  0  0  0  0  0
  -28.2531  -38.0031   24.7505 H   0  0  0  0  0  0
  -28.1084  -36.2550   24.6312 H   0  0  0  0  0  0
  -27.2265  -37.1355   25.8870 H   0  0  0  0  0  0
  -20.9868  -29.8624   21.6385 H   0  0  0  0  0  0
  -26.0063  -38.2635   24.1418 H   0  0  0  0  0  0
  -28.1887  -22.3246   22.4837 H   0  0  0  0  0  0
  -27.8031  -24.0409   22.5061 H   0  0  0  0  0  0
  -29.4646  -23.5151   22.2391 H   0  0  0  0  0  0
  -28.0253  -21.0494   19.2652 H   0  0  0  0  0  0
  -29.6493  -21.5319   19.3702 H   0  0  0  0  0  0
  -28.7841  -19.3052   21.5485 H   0  0  0  0  0  0
  -30.3661  -19.5183   20.9524 H   0  0  0  0  0  0
  -27.0994  -23.1024   20.4048 H   0  0  0  0  0  0
  -28.4475  -17.2145   20.0756 H   0  0  0  0  0  0
  1 25  1  0  0  0
  1 30  2  0  0  0
  1 75  1  0  0  0
  2  3  1  0  0  0
  2 25  1  0  0  0
  2 76  1  0  0  0
  2 77  1  0  0  0
  3  4  1  0  0  0
  3 78  1  0  0  0
  3 79  1  0  0  0
  4  5  1  0  0  0
  4 80  1  0  0  0
  4 81  1  0  0  0
  5  6  1  0  0  0
  5 26  1  0  0  0
  5 82  1  0  0  0
  6 25  1  0  0  0
  6 83  1  0  0  0
  6 84  1  0  0  0
  7  8  2  0  0  0
  7 26  1  0  0  0
  7 29  1  0  0  0
  8  9  1  0  0  0
  8 22  1  0  0  0
  9 10  1  0  0  0
  9 27  2  0  0  0
 10 11  2  0  0  0
 10 15  1  0  0  0
 11 12  1  0  0  0
 11 85  1  0  0  0
 12 13  2  0  0  0
 12 86  1  0  0  0
 13 14  1  0  0  0
 13 31  1  0  0  0
 14 15  2  0  0  0
 14 87  1  0  0  0
 15 88  1  0  0  0
 16 17  2  0  0  0
 16 21  1  0  0  0
 16 31  1  0  0  0
 17 18  1  0  0  0
 17 89  1  0  0  0
 18 19  2  0  0  0
 18 90  1  0  0  0
 19 20  1  0  0  0
 19 24  1  0  0  0
 20 21  2  0  0  0
 20 91  1  0  0  0
 21 23  1  0  0  0
 22 28  1  0  0  0
 22 32  2  0  0  0
 26 27  1  0  0  0
 28 92  1  0  0  0
 28 93  1  0  0  0
 29 94  1  0  0  0
 29 95  1  0  0  0
 33 34  1  0  0  0
 33 66  1  0  0  0
 33 70  2  0  0  0
 34 36  1  0  0  0
 34 59  1  0  0  0
 34 96  1  0  0  0
 35 44  2  0  0  0
 35 45  1  0  0  0
 35 68  1  0  0  0
 36 56  1  0  0  0
 36 97  1  0  0  0
 37 39  1  0  0  0
 37 47  1  0  0  0
 37 66  1  0  0  0
 37 98  1  0  0  0
 38 43  2  0  0  0
 38 46  1  0  0  0
 38 47  1  0  0  0
 39 64  1  0  0  0
 39 67  2  0  0  0
 40 52  1  0  0  0
 40 53  2  0  0  0
 40 58  1  0  0  0
 41 99  1  0  0  0
 41100  1  0  0  0
 41101  1  0  0  0
 41 48  1  0  0  0
 42 43  1  0  0  0
 42 66  1  0  0  0
 42102  1  0  0  0
 42103  1  0  0  0
 43 44  1  0  0  0
 44104  1  0  0  0
 45 46  2  0  0  0
 45105  1  0  0  0
 46106  1  0  0  0
 47107  1  0  0  0
 47108  1  0  0  0
 48 56  1  0  0  0
 48 65  1  0  0  0
 48109  1  0  0  0
 49 50  1  0  0  0
 49 53  1  0  0  0
 49 64  1  0  0  0
 49110  1  0  0  0
 50 51  1  0  0  0
 50111  1  0  0  0
 50112  1  0  0  0
 51 52  1  0  0  0
 51113  1  0  0  0
 51114  1  0  0  0
 52115  1  0  0  0
 52116  1  0  0  0
 53 54  1  0  0  0
 54 55  2  0  0  0
 54117  1  0  0  0
 55 57  1  0  0  0
 55118  1  0  0  0
 56 69  2  0  0  0
 57 58  2  0  0  0
 57119  1  0  0  0
 58120  1  0  0  0
 59 60  1  0  0  0
 59 61  1  0  0  0
 59 62  1  0  0  0
 60121  1  0  0  0
 60122  1  0  0  0
 60123  1  0  0  0
 61124  1  0  0  0
 61125  1  0  0  0
 61126  1  0  0  0
 62127  1  0  0  0
 62128  1  0  0  0
 62129  1  0  0  0
 63 65  1  0  0  0
 63130  1  0  0  0
 63131  1  0  0  0
 63132  1  0  0  0
 64133  1  0  0  0
 65134  1  0  0  0
 68 74  1  0  0  0
 71135  1  0  0  0
 71136  1  0  0  0
 71137  1  0  0  0
 71 74  1  0  0  0
 72 73  1  0  0  0
 72 74  1  0  0  0
 72138  1  0  0  0
 72139  1  0  0  0
 73 75  1  0  0  0
 73140  1  0  0  0
 73141  1  0  0  0
 74142  1  0  0  0
 75143  1  0  0  0
M  ISO  4   1 100  68 101  74 101  75 100
M  END
> <chiral flag>
0

> <version>
0

> <s_m_source_file>
/data/baiqing/PycharmProjects/Reinvent-master-3.2/result/LINK_invent/BTK/process_docking_weight1_custom_sum_contain_oxygen_bond_distance_aromatic_linkinvent_7_9_3/rearranged_h_0097.sdf

> <i_m_source_file_index>
10

> <r_mmod_Potential_Energy-OPLS-2005>
4163.64404296875

> <r_mmod_Stretch_Energy-OPLS-2005>
1928.9091796875

> <r_mmod_Bend_Energy-OPLS-2005>
898.639953613281

> <r_mmod_Torsional_Energy-OPLS-2005>
250.23063659668

> <r_mmod_Improper_Torsional_Energy-OPLS-2005>
5.06112670898438

> <r_mmod_Van_der_Waal_Energy-OPLS-2005>
111.411064147949

> <r_mmod_Electrostatic_Energy-OPLS-2005>
-349.921966552734

> <r_mmod_Solvation_Energy-OPLS-2005>
-219.875640869141

> <b_mmod_Minimization_Converged-OPLS-2005>
0

> <r_mmod_RMS_Derivative-OPLS-2005>
0.312528491020203

$$$$
10
                    3D
 Structure written by MMmdl.
176184  0  0  1  0            999 V2000
  -30.5246  -15.0300   20.3979 C   0  0  0  0  0  0
  -30.4411  -12.6421   19.5048 C   0  0  0  0  0  0
  -29.5220  -12.5304   18.2654 C   0  0  0  0  0  0
  -28.0650  -12.2859   18.7003 C   0  0  0  0  0  0
  -27.6248  -13.2497   19.8300 C   0  0  2  0  0  0
  -28.6656  -13.3335   20.9681 C   0  0  0  0  0  0
  -25.2449  -13.8237   20.5700 C   0  0  0  0  0  0
  -24.1776  -13.0444   20.9219 C   0  0  0  0  0  0
  -24.6404  -11.6929   20.8753 C   0  0  0  0  0  0
  -23.9095  -10.4288   21.0417 C   0  0  0  0  0  0
  -24.3634   -9.4189   21.9191 C   0  0  0  0  0  0
  -23.6276   -8.2242   22.0779 C   0  0  0  0  0  0
  -22.4263   -8.0293   21.3559 C   0  0  0  0  0  0
  -21.9911   -9.0276   20.4660 C   0  0  0  0  0  0
  -22.7264  -10.2131   20.3050 C   0  0  0  0  0  0
  -21.6850   -6.0727   22.5265 C   0  0  0  0  0  0
  -21.4023   -6.5639   23.8191 C   0  0  0  0  0  0
  -21.3648   -5.6793   24.9156 C   0  0  0  0  0  0
  -21.6035   -4.3054   24.7214 C   0  0  0  0  0  0
  -21.8819   -3.8140   23.4334 C   0  0  0  0  0  0
  -21.9195   -4.6955   22.3396 C   0  0  0  0  0  0
  -22.7786  -13.5203   21.1859 C   0  0  0  0  0  0
  -22.1652   -4.2139   21.0972 F   0  0  0  0  0  0
  -21.5627   -3.4535   25.7732 F   0  0  0  0  0  0
  -29.9329  -13.7608   20.3608 N   0  0  0  0  0  0
  -26.2873  -12.9459   20.3240 N   0  0  0  0  0  0
  -25.9339  -11.6585   20.5756 N   0  0  0  0  0  0
  -22.0431  -12.8206   22.0425 N   0  0  0  0  0  0
  -25.4135  -15.1966   20.4112 N   0  0  0  0  0  0
  -31.7370  -15.0439   20.1480 O   0  0  0  0  0  0
  -21.6631   -6.8886   21.4233 O   0  0  0  0  0  0
  -22.3467  -14.5505   20.6703 O   0  0  0  0  0  0
  -24.6453  -31.8370   23.1820 C   0  0  0  0  0  0
  -25.9207  -32.4664   23.8248 C   0  0  1  0  0  0
  -27.2221  -27.1003   20.1639 C   0  0  0  0  0  0
  -25.5957  -33.8485   24.2142 N   0  0  0  0  0  0
  -23.4512  -30.4503   21.5263 C   0  0  2  0  0  0
  -24.9037  -28.8694   20.0966 C   0  0  0  0  0  0
  -22.7580  -29.4489   22.4842 C   0  0  0  0  0  0
  -18.0279  -28.1365   22.8454 C   0  0  0  0  0  0
  -24.1492  -36.7255   23.2654 C   0  0  0  0  0  0
  -26.0069  -30.6994   21.3833 C   0  0  0  0  0  0
  -26.0739  -29.3060   20.7258 C   0  0  0  0  0  0
  -27.2244  -28.4344   20.7475 C   0  0  0  0  0  0
  -26.0369  -26.7662   19.4800 C   0  0  0  0  0  0
  -24.9013  -27.6146   19.4552 C   0  0  0  0  0  0
  -23.6763  -29.7699   20.1450 C   0  0  0  0  0  0
  -25.4115  -36.3004   24.0309 C   0  0  1  0  0  0
  -20.5901  -28.3691   23.1237 C   0  0  2  0  0  0
  -20.6769  -26.9391   22.5406 C   0  0  0  0  0  0
  -19.5745  -26.6339   21.5224 C   0  0  0  0  0  0
  -18.1910  -26.7900   22.1602 C   0  0  0  0  0  0
  -19.1544  -28.8842   23.2832 C   0  0  0  0  0  0
  -18.9477  -30.1444   23.8852 C   0  0  0  0  0  0
  -17.6480  -30.6570   24.0546 C   0  0  0  0  0  0
  -25.9075  -34.9400   23.5032 C   0  0  0  0  0  0
  -16.5363  -29.9062   23.6347 C   0  0  0  0  0  0
  -16.7270  -28.6479   23.0358 C   0  0  0  0  0  0
  -26.4510  -31.6570   25.0728 C   0  0  0  0  0  0
  -25.3691  -31.3795   26.1425 C   0  0  0  0  0  0
  -27.0413  -30.2985   24.6327 C   0  0  0  0  0  0
  -27.6051  -32.4360   25.7489 C   0  0  0  0  0  0
  -27.5556  -37.1758   24.8445 C   0  0  0  0  0  0
  -21.4265  -29.3039   22.3633 N   0  0  0  0  0  0
  -26.4244  -37.3743   23.9432 N   0  0  0  0  0  0
  -24.7214  -31.0184   22.0861 N   0  0  0  0  0  0
  -23.4205  -28.8047   23.3021 O   0  0  0  0  0  0
  -28.2761  -26.1286   20.3479 O   0  0  0  0  0  0
  -26.5684  -34.8899   22.4628 O   0  0  0  0  0  0
  -23.5570  -32.1274   23.7001 O   0  0  0  0  0  0
  -29.1129  -18.9220   20.5480 C   0  0  0  0  0  0
  -29.4815  -20.3741   20.4873 C   0  0  0  0  0  0
  -30.8842  -20.5568   20.3252 C   0  0  0  0  0  0
  -31.7301  -19.4250   20.0975 C   0  0  0  0  0  0
  -30.0467  -17.7600   20.3929 C   0  0  0  0  0  0
  -33.6067  -18.9728   18.4459 C   0  0  0  0  0  0
  -34.0787  -18.8751   20.9461 C   0  0  0  0  0  0
  -34.0239  -24.4774   24.0971 C   0  0  0  0  0  0
  -31.6737  -24.0697   24.6247 C   0  0  0  0  0  0
  -28.5552  -21.7130   20.8716 C   0  0  0  0  0  0
  -31.4852  -21.9509   20.5653 C   0  0  0  0  0  0
  -28.0164  -23.0836   19.9934 C   0  0  0  0  0  0
  -31.9204  -22.1109   22.0425 C   0  0  0  0  0  0
  -32.5507  -23.4780   22.3796 C   0  0  0  0  0  0
  -28.5065  -24.7028   19.7320 C   0  0  0  0  0  0
  -33.2422  -19.5311   19.8321 C   0  0  0  0  0  0
  -31.3110  -18.1330   20.1229 N   0  0  0  0  0  0
  -29.7476  -16.2413   20.5200 N   0  0  0  0  0  0
  -32.8439  -23.6252   23.8316 N   0  3  0  0  0  0
  -31.4698  -12.8090   19.1833 H   0  0  0  0  0  0
  -30.4565  -11.7057   20.0647 H   0  0  0  0  0  0
  -29.8603  -11.7252   17.6100 H   0  0  0  0  0  0
  -29.5826  -13.4496   17.6807 H   0  0  0  0  0  0
  -28.0033  -11.2576   19.0583 H   0  0  0  0  0  0
  -27.3904  -12.3512   17.8468 H   0  0  0  0  0  0
  -27.5712  -14.2352   19.3655 H   0  0  0  0  0  0
  -28.7768  -12.3760   21.4796 H   0  0  0  0  0  0
  -28.3509  -14.0551   21.7243 H   0  0  0  0  0  0
  -25.2783   -9.5654   22.4770 H   0  0  0  0  0  0
  -23.9961   -7.4646   22.7526 H   0  0  0  0  0  0
  -21.0837   -8.8800   19.8988 H   0  0  0  0  0  0
  -22.3740  -10.9666   19.6154 H   0  0  0  0  0  0
  -21.2020   -7.6146   23.9696 H   0  0  0  0  0  0
  -21.1464   -6.0525   25.9064 H   0  0  0  0  0  0
  -22.0615   -2.7603   23.2836 H   0  0  0  0  0  0
  -22.4009  -11.9835   22.4781 H   0  0  0  0  0  0
  -21.1068  -13.1276   22.2648 H   0  0  0  0  0  0
  -24.6466  -15.8515   20.5208 H   0  0  0  0  0  0
  -26.2565  -15.6363   20.0664 H   0  0  0  0  0  0
  -26.7274  -32.5240   23.0974 H   0  0  0  0  0  0
  -25.0141  -33.9651   25.0306 H   0  0  0  0  0  0
  -22.7559  -31.2753   21.3619 H   0  0  0  0  0  0
  -23.3785  -35.9558   23.3226 H   0  0  0  0  0  0
  -24.3603  -36.8970   22.2090 H   0  0  0  0  0  0
  -23.7185  -37.6402   23.6754 H   0  0  0  0  0  0
  -26.1600  -31.4489   20.6058 H   0  0  0  0  0  0
  -26.8820  -30.7549   22.0180 H   0  0  0  0  0  0
  -28.1120  -28.7556   21.2744 H   0  0  0  0  0  0
  -25.9621  -25.8007   19.0008 H   0  0  0  0  0  0
  -24.0074  -27.2729   18.9540 H   0  0  0  0  0  0
  -23.7973  -30.5420   19.3835 H   0  0  0  0  0  0
  -22.7933  -29.2023   19.8473 H   0  0  0  0  0  0
  -25.1275  -36.1811   25.0792 H   0  0  0  0  0  0
  -20.9966  -28.3250   24.1373 H   0  0  0  0  0  0
  -20.5664  -26.2309   23.3625 H   0  0  0  0  0  0
  -21.6625  -26.7374   22.1197 H   0  0  0  0  0  0
  -19.6946  -25.6257   21.1243 H   0  0  0  0  0  0
  -19.6690  -27.3168   20.6780 H   0  0  0  0  0  0
  -17.4193  -26.6674   21.3988 H   0  0  0  0  0  0
  -18.0248  -26.0036   22.8981 H   0  0  0  0  0  0
  -19.7979  -30.7249   24.2191 H   0  0  0  0  0  0
  -17.5051  -31.6260   24.5141 H   0  0  0  0  0  0
  -15.5370  -30.2962   23.7716 H   0  0  0  0  0  0
  -15.8648  -28.0804   22.7108 H   0  0  0  0  0  0
  -24.5867  -30.7114   25.7758 H   0  0  0  0  0  0
  -24.8904  -32.3015   26.4768 H   0  0  0  0  0  0
  -25.7974  -30.9027   27.0259 H   0  0  0  0  0  0
  -26.3063  -29.6678   24.1308 H   0  0  0  0  0  0
  -27.4033  -29.7264   25.4886 H   0  0  0  0  0  0
  -27.8930  -30.4241   23.9634 H   0  0  0  0  0  0
  -27.2670  -33.3743   26.1884 H   0  0  0  0  0  0
  -28.3947  -32.6770   25.0360 H   0  0  0  0  0  0
  -28.0611  -31.8598   26.5539 H   0  0  0  0  0  0
  -28.2482  -38.0146   24.7582 H   0  0  0  0  0  0
  -28.1118  -36.2675   24.6105 H   0  0  0  0  0  0
  -27.2314  -37.1175   25.8854 H   0  0  0  0  0  0
  -20.9455  -29.8804   21.6855 H   0  0  0  0  0  0
  -26.0089  -38.2784   24.1531 H   0  0  0  0  0  0
  -28.0820  -18.6918   20.7785 H   0  0  0  0  0  0
  -33.0395  -19.4756   17.6629 H   0  0  0  0  0  0
  -33.3925  -17.9066   18.3814 H   0  0  0  0  0  0
  -34.6642  -19.1150   18.2283 H   0  0  0  0  0  0
  -33.9424  -19.3886   21.8974 H   0  0  0  0  0  0
  -35.1416  -18.9042   20.7078 H   0  0  0  0  0  0
  -33.8026  -17.8307   21.0876 H   0  0  0  0  0  0
  -34.2391  -24.5216   25.1665 H   0  0  0  0  0  0
  -33.8600  -25.4963   23.7446 H   0  0  0  0  0  0
  -34.9117  -24.0814   23.6042 H   0  0  0  0  0  0
  -31.9279  -24.1433   25.6825 H   0  0  0  0  0  0
  -30.8398  -23.3748   24.5406 H   0  0  0  0  0  0
  -31.3283  -25.0523   24.3029 H   0  0  0  0  0  0
  -28.9170  -22.0807   21.8302 H   0  0  0  0  0  0
  -27.6193  -21.2253   21.1444 H   0  0  0  0  0  0
  -30.7743  -22.7303   20.3060 H   0  0  0  0  0  0
  -32.3109  -22.1612   19.8889 H   0  0  0  0  0  0
  -26.9920  -23.2227   20.3415 H   0  0  0  0  0  0
  -27.8678  -22.6847   18.9895 H   0  0  0  0  0  0
  -32.6402  -21.3281   22.2841 H   0  0  0  0  0  0
  -31.0597  -21.9321   22.6906 H   0  0  0  0  0  0
  -31.9199  -24.3018   22.0436 H   0  0  0  0  0  0
  -33.4761  -23.5595   21.8090 H   0  0  0  0  0  0
  -28.2022  -24.8830   18.7002 H   0  0  0  0  0  0
  -29.5930  -24.6441   19.6473 H   0  0  0  0  0  0
  -33.5661  -20.5645   19.8091 H   0  0  0  0  0  0
  -28.7773  -16.0472   20.7092 H   0  0  0  0  0  0
  -33.0933  -22.7101   24.1766 H   0  0  0  0  0  0
  1 25  1  0  0  0
  1 30  2  0  0  0
  1 88  1  0  0  0
  2  3  1  0  0  0
  2 25  1  0  0  0
  2 90  1  0  0  0
  2 91  1  0  0  0
  3  4  1  0  0  0
  3 92  1  0  0  0
  3 93  1  0  0  0
  4  5  1  0  0  0
  4 94  1  0  0  0
  4 95  1  0  0  0
  5  6  1  0  0  0
  5 26  1  0  0  0
  5 96  1  0  0  0
  6 25  1  0  0  0
  6 97  1  0  0  0
  6 98  1  0  0  0
  7  8  2  0  0  0
  7 26  1  0  0  0
  7 29  1  0  0  0
  8  9  1  0  0  0
  8 22  1  0  0  0
  9 10  1  0  0  0
  9 27  2  0  0  0
 10 11  2  0  0  0
 10 15  1  0  0  0
 11 12  1  0  0  0
 11 99  1  0  0  0
 12 13  2  0  0  0
 12100  1  0  0  0
 13 14  1  0  0  0
 13 31  1  0  0  0
 14 15  2  0  0  0
 14101  1  0  0  0
 15102  1  0  0  0
 16 17  2  0  0  0
 16 21  1  0  0  0
 16 31  1  0  0  0
 17 18  1  0  0  0
 17103  1  0  0  0
 18 19  2  0  0  0
 18104  1  0  0  0
 19 20  1  0  0  0
 19 24  1  0  0  0
 20 21  2  0  0  0
 20105  1  0  0  0
 21 23  1  0  0  0
 22 28  1  0  0  0
 22 32  2  0  0  0
 26 27  1  0  0  0
 28106  1  0  0  0
 28107  1  0  0  0
 29108  1  0  0  0
 29109  1  0  0  0
 33 34  1  0  0  0
 33 66  1  0  0  0
 33 70  2  0  0  0
 34 36  1  0  0  0
 34 59  1  0  0  0
 34110  1  0  0  0
 35 44  2  0  0  0
 35 45  1  0  0  0
 35 68  1  0  0  0
 36 56  1  0  0  0
 36111  1  0  0  0
 37 39  1  0  0  0
 37 47  1  0  0  0
 37 66  1  0  0  0
 37112  1  0  0  0
 38 43  2  0  0  0
 38 46  1  0  0  0
 38 47  1  0  0  0
 39 64  1  0  0  0
 39 67  2  0  0  0
 40 52  1  0  0  0
 40 53  2  0  0  0
 40 58  1  0  0  0
 41113  1  0  0  0
 41114  1  0  0  0
 41115  1  0  0  0
 41 48  1  0  0  0
 42 43  1  0  0  0
 42 66  1  0  0  0
 42116  1  0  0  0
 42117  1  0  0  0
 43 44  1  0  0  0
 44118  1  0  0  0
 45 46  2  0  0  0
 45119  1  0  0  0
 46120  1  0  0  0
 47121  1  0  0  0
 47122  1  0  0  0
 48 56  1  0  0  0
 48 65  1  0  0  0
 48123  1  0  0  0
 49 50  1  0  0  0
 49 53  1  0  0  0
 49 64  1  0  0  0
 49124  1  0  0  0
 50 51  1  0  0  0
 50125  1  0  0  0
 50126  1  0  0  0
 51 52  1  0  0  0
 51127  1  0  0  0
 51128  1  0  0  0
 52129  1  0  0  0
 52130  1  0  0  0
 53 54  1  0  0  0
 54 55  2  0  0  0
 54131  1  0  0  0
 55 57  1  0  0  0
 55132  1  0  0  0
 56 69  2  0  0  0
 57 58  2  0  0  0
 57133  1  0  0  0
 58134  1  0  0  0
 59 60  1  0  0  0
 59 61  1  0  0  0
 59 62  1  0  0  0
 60135  1  0  0  0
 60136  1  0  0  0
 60137  1  0  0  0
 61138  1  0  0  0
 61139  1  0  0  0
 61140  1  0  0  0
 62141  1  0  0  0
 62142  1  0  0  0
 62143  1  0  0  0
 63 65  1  0  0  0
 63144  1  0  0  0
 63145  1  0  0  0
 63146  1  0  0  0
 64147  1  0  0  0
 65148  1  0  0  0
 68 85  1  0  0  0
 71 72  2  0  0  0
 71 75  1  0  0  0
 71149  1  0  0  0
 72 73  1  0  0  0
 72 80  1  0  0  0
 73 74  2  0  0  0
 73 81  1  0  0  0
 74 86  1  0  0  0
 74 87  1  0  0  0
 75 87  2  0  0  0
 75 88  1  0  0  0
 76150  1  0  0  0
 76151  1  0  0  0
 76152  1  0  0  0
 76 86  1  0  0  0
 77 86  1  0  0  0
 77153  1  0  0  0
 77154  1  0  0  0
 77155  1  0  0  0
 78156  1  0  0  0
 78157  1  0  0  0
 78158  1  0  0  0
 78 89  1  0  0  0
 79 89  1  0  0  0
 79159  1  0  0  0
 79160  1  0  0  0
 79161  1  0  0  0
 80 82  1  0  0  0
 80162  1  0  0  0
 80163  1  0  0  0
 81 83  1  0  0  0
 81164  1  0  0  0
 81165  1  0  0  0
 82 85  1  0  0  0
 82166  1  0  0  0
 82167  1  0  0  0
 83 84  1  0  0  0
 83168  1  0  0  0
 83169  1  0  0  0
 84 89  1  0  0  0
 84170  1  0  0  0
 84171  1  0  0  0
 85172  1  0  0  0
 85173  1  0  0  0
 86174  1  0  0  0
 88175  1  0  0  0
 89176  1  0  0  0
M  CHG  1  89   1
M  ISO  4   1 100  68 101  85 101  88 100
M  END
> <chiral flag>
0

> <version>
0

> <s_m_source_file>
/data/baiqing/PycharmProjects/Reinvent-master-3.2/result/LINK_invent/BTK/process_docking_weight1_custom_sum_contain_oxygen_bond_distance_aromatic_linkinvent_7_9_3/rearranged_h_0097.sdf

> <i_m_source_file_index>
11

> <r_mmod_Potential_Energy-OPLS-2005>
430.658447265625

> <r_mmod_Stretch_Energy-OPLS-2005>
316.733551025391

> <r_mmod_Bend_Energy-OPLS-2005>
406.792175292969

> <r_mmod_Torsional_Energy-OPLS-2005>
213.081344604492

> <r_mmod_Improper_Torsional_Energy-OPLS-2005>
6.75381565093994

> <r_mmod_Van_der_Waal_Energy-OPLS-2005>
133.012145996094

> <r_mmod_Electrostatic_Energy-OPLS-2005>
-414.418853759766

> <r_mmod_Solvation_Energy-OPLS-2005>
-475.11376953125

> <b_mmod_Minimization_Converged-OPLS-2005>
0

> <r_mmod_RMS_Derivative-OPLS-2005>
4.06587266921997

$$$$
11
                    3D
 Structure written by MMmdl.
175183  0  0  1  0            999 V2000
  -30.5895  -14.7578   20.4594 C   0  0  0  0  0  0
  -30.4346  -12.4622   19.4948 C   0  0  0  0  0  0
  -29.5256  -12.5348   18.2470 C   0  0  0  0  0  0
  -28.0479  -12.3439   18.6453 C   0  0  0  0  0  0
  -27.6440  -13.2323   19.8555 C   0  0  2  0  0  0
  -28.6776  -13.1613   21.0007 C   0  0  0  0  0  0
  -25.2475  -13.8175   20.5608 C   0  0  0  0  0  0
  -24.1763  -13.0433   20.9136 C   0  0  0  0  0  0
  -24.6369  -11.6919   20.8680 C   0  0  0  0  0  0
  -23.9055  -10.4297   21.0358 C   0  0  0  0  0  0
  -24.3620   -9.4223   21.9137 C   0  0  0  0  0  0
  -23.6297   -8.2258   22.0728 C   0  0  0  0  0  0
  -22.4277   -8.0274   21.3539 C   0  0  0  0  0  0
  -21.9897   -9.0238   20.4620 C   0  0  0  0  0  0
  -22.7216  -10.2123   20.3014 C   0  0  0  0  0  0
  -21.6839   -6.0723   22.5273 C   0  0  0  0  0  0
  -21.4010   -6.5646   23.8203 C   0  0  0  0  0  0
  -21.3666   -5.6804   24.9170 C   0  0  0  0  0  0
  -21.6038   -4.3063   24.7216 C   0  0  0  0  0  0
  -21.8827   -3.8156   23.4345 C   0  0  0  0  0  0
  -21.9188   -4.6958   22.3402 C   0  0  0  0  0  0
  -22.7789  -13.5183   21.1850 C   0  0  0  0  0  0
  -22.1663   -4.2151   21.0970 F   0  0  0  0  0  0
  -21.5620   -3.4544   25.7730 F   0  0  0  0  0  0
  -29.9892  -13.5143   20.4405 N   0  0  0  0  0  0
  -26.2926  -12.9389   20.3215 N   0  0  0  0  0  0
  -25.9318  -11.6544   20.5676 N   0  0  0  0  0  0
  -22.0489  -12.8148   22.0433 N   0  0  0  0  0  0
  -25.4175  -15.1896   20.3996 N   0  0  0  0  0  0
  -31.7537  -14.8754   20.0692 O   0  0  0  0  0  0
  -21.6637   -6.8870   21.4242 O   0  0  0  0  0  0
  -22.3459  -14.5510   20.6723 O   0  0  0  0  0  0
  -24.6336  -31.8533   23.1909 C   0  0  0  0  0  0
  -25.9132  -32.4726   23.8336 C   0  0  1  0  0  0
  -27.2382  -27.2408   20.1754 C   0  0  0  0  0  0
  -25.5870  -33.8510   24.2245 N   0  0  0  0  0  0
  -23.4383  -30.4723   21.5338 C   0  0  2  0  0  0
  -24.8930  -28.9063   20.1205 C   0  0  0  0  0  0
  -22.7555  -29.4561   22.4830 C   0  0  0  0  0  0
  -18.0311  -28.1426   22.8469 C   0  0  0  0  0  0
  -24.1486  -36.7285   23.2649 C   0  0  0  0  0  0
  -25.9826  -30.7721   21.3681 C   0  0  0  0  0  0
  -26.0631  -29.3836   20.7237 C   0  0  0  0  0  0
  -27.2418  -28.5686   20.7276 C   0  0  0  0  0  0
  -26.0434  -26.8234   19.5541 C   0  0  0  0  0  0
  -24.8868  -27.6297   19.5252 C   0  0  0  0  0  0
  -23.6675  -29.8040   20.1522 C   0  0  0  0  0  0
  -25.4087  -36.3010   24.0326 C   0  0  1  0  0  0
  -20.5908  -28.3713   23.1207 C   0  0  2  0  0  0
  -20.6782  -26.9406   22.5402 C   0  0  0  0  0  0
  -19.5759  -26.6376   21.5201 C   0  0  0  0  0  0
  -18.1945  -26.7961   22.1617 C   0  0  0  0  0  0
  -19.1572  -28.8871   23.2827 C   0  0  0  0  0  0
  -18.9511  -30.1482   23.8845 C   0  0  0  0  0  0
  -17.6516  -30.6601   24.0559 C   0  0  0  0  0  0
  -25.9026  -34.9389   23.5100 C   0  0  0  0  0  0
  -16.5390  -29.9121   23.6334 C   0  0  0  0  0  0
  -16.7290  -28.6547   23.0307 C   0  0  0  0  0  0
  -26.4481  -31.6570   25.0736 C   0  0  0  0  0  0
  -25.3683  -31.3768   26.1466 C   0  0  0  0  0  0
  -27.0388  -30.2977   24.6263 C   0  0  0  0  0  0
  -27.6032  -32.4369   25.7521 C   0  0  0  0  0  0
  -27.5553  -37.1759   24.8448 C   0  0  0  0  0  0
  -21.4256  -29.3060   22.3605 N   0  0  0  0  0  0
  -26.4240  -37.3712   23.9422 N   0  0  0  0  0  0
  -24.7043  -31.0491   22.0900 N   0  0  0  0  0  0
  -23.4266  -28.8003   23.2856 O   0  0  0  0  0  0
  -28.3486  -26.3536   20.1609 O   0  0  0  0  0  0
  -26.5647  -34.8871   22.4695 O   0  0  0  0  0  0
  -23.5467  -32.1364   23.7178 O   0  0  0  0  0  0
  -30.5092  -18.9257   21.9221 C   0  0  0  0  0  0
  -29.3012  -19.9070   20.3590 C   0  0  0  0  0  0
  -29.8316  -18.6488   20.7146 C   0  0  0  0  0  0
  -30.5082  -20.2736   22.1933 C   0  0  0  0  0  0
  -37.0065  -17.8084   23.3488 C   0  0  0  0  0  0
  -35.2598  -17.3048   21.6026 C   0  0  0  0  0  0
  -27.3225  -25.0251   22.0523 C   0  0  0  0  0  0
  -29.8408  -17.2334   19.9843 C   0  0  0  0  0  0
  -31.2491  -20.8997   23.3576 C   0  0  0  0  0  0
  -32.8084  -20.8387   23.2930 C   0  0  0  0  0  0
  -33.4294  -19.4489   22.9944 C   0  0  0  0  0  0
  -34.9659  -19.3465   23.1598 C   0  0  0  0  0  0
  -28.7305  -23.5542   20.3854 C   0  0  0  0  0  0
  -29.2692  -22.4406   21.4515 C   0  0  0  0  0  0
  -35.5095  -17.9006   23.0014 C   0  0  0  0  0  0
  -28.4289  -25.0719   20.9774 C   0  0  1  0  0  0
  -29.6787  -20.9479   21.2648 N   0  0  0  0  0  0
  -29.7948  -15.8725   20.6863 N   0  0  0  0  0  0
  -31.4776  -12.5883   19.1957 H   0  0  0  0  0  0
  -30.3760  -11.4819   19.9675 H   0  0  0  0  0  0
  -29.8269  -11.7840   17.5151 H   0  0  0  0  0  0
  -29.6505  -13.5046   17.7634 H   0  0  0  0  0  0
  -27.9072  -11.2891   18.8922 H   0  0  0  0  0  0
  -27.4004  -12.5473   17.7914 H   0  0  0  0  0  0
  -27.6394  -14.2570   19.4839 H   0  0  0  0  0  0
  -28.7034  -12.1618   21.4391 H   0  0  0  0  0  0
  -28.3949  -13.8362   21.8095 H   0  0  0  0  0  0
  -25.2788   -9.5682   22.4675 H   0  0  0  0  0  0
  -24.0007   -7.4640   22.7451 H   0  0  0  0  0  0
  -21.0836   -8.8743   19.8920 H   0  0  0  0  0  0
  -22.3679  -10.9643   19.6105 H   0  0  0  0  0  0
  -21.2016   -7.6152   23.9698 H   0  0  0  0  0  0
  -21.1470   -6.0531   25.9052 H   0  0  0  0  0  0
  -22.0597   -2.7617   23.2841 H   0  0  0  0  0  0
  -22.4182  -11.9847   22.4834 H   0  0  0  0  0  0
  -21.1079  -13.1089   22.2653 H   0  0  0  0  0  0
  -24.6423  -15.8377   20.4698 H   0  0  0  0  0  0
  -26.2679  -15.6291   20.0714 H   0  0  0  0  0  0
  -26.7267  -32.5402   23.1155 H   0  0  0  0  0  0
  -24.9779  -33.9675   25.0222 H   0  0  0  0  0  0
  -22.7368  -31.2958   21.3803 H   0  0  0  0  0  0
  -23.3677  -35.9690   23.3278 H   0  0  0  0  0  0
  -24.3575  -36.8956   22.2082 H   0  0  0  0  0  0
  -23.7367  -37.6506   23.6723 H   0  0  0  0  0  0
  -26.1152  -31.5315   20.5950 H   0  0  0  0  0  0
  -26.8635  -30.8365   21.9982 H   0  0  0  0  0  0
  -28.1440  -28.9376   21.1918 H   0  0  0  0  0  0
  -25.9995  -25.8351   19.1168 H   0  0  0  0  0  0
  -23.9890  -27.2432   19.0667 H   0  0  0  0  0  0
  -23.8223  -30.5935   19.4154 H   0  0  0  0  0  0
  -22.7827  -29.2559   19.8220 H   0  0  0  0  0  0
  -25.1289  -36.1827   25.0817 H   0  0  0  0  0  0
  -21.0026  -28.3305   24.1307 H   0  0  0  0  0  0
  -20.5691  -26.2326   23.3645 H   0  0  0  0  0  0
  -21.6625  -26.7437   22.1155 H   0  0  0  0  0  0
  -19.6906  -25.6275   21.1275 H   0  0  0  0  0  0
  -19.6646  -27.3134   20.6679 H   0  0  0  0  0  0
  -17.4202  -26.6686   21.4034 H   0  0  0  0  0  0
  -18.0304  -26.0132   22.9029 H   0  0  0  0  0  0
  -19.8001  -30.7303   24.2134 H   0  0  0  0  0  0
  -17.5088  -31.6249   24.5220 H   0  0  0  0  0  0
  -15.5402  -30.3002   23.7700 H   0  0  0  0  0  0
  -15.8694  -28.0906   22.6949 H   0  0  0  0  0  0
  -24.5810  -30.7142   25.7831 H   0  0  0  0  0  0
  -24.8908  -32.2965   26.4879 H   0  0  0  0  0  0
  -25.7971  -30.8976   27.0280 H   0  0  0  0  0  0
  -26.3026  -29.6669   24.1229 H   0  0  0  0  0  0
  -27.4010  -29.7270   25.4819 H   0  0  0  0  0  0
  -27.8915  -30.4223   23.9570 H   0  0  0  0  0  0
  -27.2594  -33.3668   26.2050 H   0  0  0  0  0  0
  -28.3836  -32.6928   25.0354 H   0  0  0  0  0  0
  -28.0688  -31.8552   26.5493 H   0  0  0  0  0  0
  -28.2493  -38.0102   24.7449 H   0  0  0  0  0  0
  -28.1084  -36.2604   24.6284 H   0  0  0  0  0  0
  -27.2278  -37.1427   25.8844 H   0  0  0  0  0  0
  -20.9475  -29.8901   21.6880 H   0  0  0  0  0  0
  -26.0080  -38.2764   24.1408 H   0  0  0  0  0  0
  -31.0326  -18.1931   22.5174 H   0  0  0  0  0  0
  -28.6738  -20.1506   19.5115 H   0  0  0  0  0  0
  -37.3668  -16.7797   23.2770 H   0  0  0  0  0  0
  -37.2021  -18.1407   24.3687 H   0  0  0  0  0  0
  -37.6208  -18.4151   22.6799 H   0  0  0  0  0  0
  -35.6612  -16.2936   21.5444 H   0  0  0  0  0  0
  -35.7345  -17.8885   20.8107 H   0  0  0  0  0  0
  -34.1953  -17.2363   21.3782 H   0  0  0  0  0  0
  -27.1849  -25.9890   22.5402 H   0  0  0  0  0  0
  -26.3649  -24.7294   21.6237 H   0  0  0  0  0  0
  -27.5649  -24.3230   22.8454 H   0  0  0  0  0  0
  -30.7350  -17.2418   19.3622 H   0  0  0  0  0  0
  -29.0115  -17.2431   19.2767 H   0  0  0  0  0  0
  -30.9314  -20.3792   24.2653 H   0  0  0  0  0  0
  -30.9411  -21.9274   23.5345 H   0  0  0  0  0  0
  -33.1951  -21.2054   24.2446 H   0  0  0  0  0  0
  -33.1639  -21.5357   22.5374 H   0  0  0  0  0  0
  -33.1872  -19.1825   21.9655 H   0  0  0  0  0  0
  -32.9568  -18.7016   23.6322 H   0  0  0  0  0  0
  -35.2407  -19.7124   24.1499 H   0  0  0  0  0  0
  -35.4625  -20.0068   22.4482 H   0  0  0  0  0  0
  -27.8231  -23.1721   19.9193 H   0  0  0  0  0  0
  -29.4609  -23.6308   19.5797 H   0  0  0  0  0  0
  -28.5525  -22.4218   22.2700 H   0  0  0  0  0  0
  -30.1445  -22.9286   21.8721 H   0  0  0  0  0  0
  -34.9787  -17.2676   23.7169 H   0  0  0  0  0  0
  -29.3382  -25.2862   21.5433 H   0  0  0  0  0  0
  -28.8954  -15.6504   21.0837 H   0  0  0  0  0  0
  1 25  1  0  0  0
  1 30  2  0  0  0
  1 88  1  0  0  0
  2  3  1  0  0  0
  2 25  1  0  0  0
  2 89  1  0  0  0
  2 90  1  0  0  0
  3  4  1  0  0  0
  3 91  1  0  0  0
  3 92  1  0  0  0
  4  5  1  0  0  0
  4 93  1  0  0  0
  4 94  1  0  0  0
  5  6  1  0  0  0
  5 26  1  0  0  0
  5 95  1  0  0  0
  6 25  1  0  0  0
  6 96  1  0  0  0
  6 97  1  0  0  0
  7  8  2  0  0  0
  7 26  1  0  0  0
  7 29  1  0  0  0
  8  9  1  0  0  0
  8 22  1  0  0  0
  9 10  1  0  0  0
  9 27  2  0  0  0
 10 11  2  0  0  0
 10 15  1  0  0  0
 11 12  1  0  0  0
 11 98  1  0  0  0
 12 13  2  0  0  0
 12 99  1  0  0  0
 13 14  1  0  0  0
 13 31  1  0  0  0
 14 15  2  0  0  0
 14100  1  0  0  0
 15101  1  0  0  0
 16 17  2  0  0  0
 16 21  1  0  0  0
 16 31  1  0  0  0
 17 18  1  0  0  0
 17102  1  0  0  0
 18 19  2  0  0  0
 18103  1  0  0  0
 19 20  1  0  0  0
 19 24  1  0  0  0
 20 21  2  0  0  0
 20104  1  0  0  0
 21 23  1  0  0  0
 22 28  1  0  0  0
 22 32  2  0  0  0
 26 27  1  0  0  0
 28105  1  0  0  0
 28106  1  0  0  0
 29107  1  0  0  0
 29108  1  0  0  0
 33 34  1  0  0  0
 33 66  1  0  0  0
 33 70  2  0  0  0
 34 36  1  0  0  0
 34 59  1  0  0  0
 34109  1  0  0  0
 35 44  2  0  0  0
 35 45  1  0  0  0
 35 68  1  0  0  0
 36 56  1  0  0  0
 36110  1  0  0  0
 37 39  1  0  0  0
 37 47  1  0  0  0
 37 66  1  0  0  0
 37111  1  0  0  0
 38 43  2  0  0  0
 38 46  1  0  0  0
 38 47  1  0  0  0
 39 64  1  0  0  0
 39 67  2  0  0  0
 40 52  1  0  0  0
 40 53  2  0  0  0
 40 58  1  0  0  0
 41112  1  0  0  0
 41113  1  0  0  0
 41114  1  0  0  0
 41 48  1  0  0  0
 42 43  1  0  0  0
 42 66  1  0  0  0
 42115  1  0  0  0
 42116  1  0  0  0
 43 44  1  0  0  0
 44117  1  0  0  0
 45 46  2  0  0  0
 45118  1  0  0  0
 46119  1  0  0  0
 47120  1  0  0  0
 47121  1  0  0  0
 48 56  1  0  0  0
 48 65  1  0  0  0
 48122  1  0  0  0
 49 50  1  0  0  0
 49 53  1  0  0  0
 49 64  1  0  0  0
 49123  1  0  0  0
 50 51  1  0  0  0
 50124  1  0  0  0
 50125  1  0  0  0
 51 52  1  0  0  0
 51126  1  0  0  0
 51127  1  0  0  0
 52128  1  0  0  0
 52129  1  0  0  0
 53 54  1  0  0  0
 54 55  2  0  0  0
 54130  1  0  0  0
 55 57  1  0  0  0
 55131  1  0  0  0
 56 69  2  0  0  0
 57 58  2  0  0  0
 57132  1  0  0  0
 58133  1  0  0  0
 59 60  1  0  0  0
 59 61  1  0  0  0
 59 62  1  0  0  0
 60134  1  0  0  0
 60135  1  0  0  0
 60136  1  0  0  0
 61137  1  0  0  0
 61138  1  0  0  0
 61139  1  0  0  0
 62140  1  0  0  0
 62141  1  0  0  0
 62142  1  0  0  0
 63 65  1  0  0  0
 63143  1  0  0  0
 63144  1  0  0  0
 63145  1  0  0  0
 64146  1  0  0  0
 65147  1  0  0  0
 68 86  1  0  0  0
 71 73  1  0  0  0
 71 74  2  0  0  0
 71148  1  0  0  0
 72 73  2  0  0  0
 72 87  1  0  0  0
 72149  1  0  0  0
 73 78  1  0  0  0
 74 79  1  0  0  0
 74 87  1  0  0  0
 75150  1  0  0  0
 75151  1  0  0  0
 75152  1  0  0  0
 75 85  1  0  0  0
 76 85  1  0  0  0
 76153  1  0  0  0
 76154  1  0  0  0
 76155  1  0  0  0
 77156  1  0  0  0
 77157  1  0  0  0
 77158  1  0  0  0
 77 86  1  0  0  0
 78 88  1  0  0  0
 78159  1  0  0  0
 78160  1  0  0  0
 79 80  1  0  0  0
 79161  1  0  0  0
 79162  1  0  0  0
 80 81  1  0  0  0
 80163  1  0  0  0
 80164  1  0  0  0
 81 82  1  0  0  0
 81165  1  0  0  0
 81166  1  0  0  0
 82 85  1  0  0  0
 82167  1  0  0  0
 82168  1  0  0  0
 83 84  1  0  0  0
 83 86  1  0  0  0
 83169  1  0  0  0
 83170  1  0  0  0
 84 87  1  0  0  0
 84171  1  0  0  0
 84172  1  0  0  0
 85173  1  0  0  0
 86174  1  0  0  0
 88175  1  0  0  0
M  ISO  4   1 100  68 101  86 101  88 100
M  END
> <chiral flag>
0

> <version>
0

> <s_m_source_file>
/data/baiqing/PycharmProjects/Reinvent-master-3.2/result/LINK_invent/BTK/process_docking_weight1_custom_sum_contain_oxygen_bond_distance_aromatic_linkinvent_7_9_3/rearranged_h_0097.sdf

> <i_m_source_file_index>
12

> <r_mmod_Potential_Energy-OPLS-2005>
247.787109375

> <r_mmod_Stretch_Energy-OPLS-2005>
152.163284301758

> <r_mmod_Bend_Energy-OPLS-2005>
246.352508544922

> <r_mmod_Torsional_Energy-OPLS-2005>
268.900573730469

> <r_mmod_Improper_Torsional_Energy-OPLS-2005>
8.47338390350342

> <r_mmod_Van_der_Waal_Energy-OPLS-2005>
111.19539642334

> <r_mmod_Electrostatic_Energy-OPLS-2005>
-426.054992675781

> <r_mmod_Solvation_Energy-OPLS-2005>
-205.222869873047

> <b_mmod_Minimization_Converged-OPLS-2005>
0

> <r_mmod_RMS_Derivative-OPLS-2005>
6.032057762146

$$$$
12
                    3D
 Structure written by MMmdl.
175183  0  0  1  0            999 V2000
  -30.7376  -14.4533   20.5923 C   0  0  0  0  0  0
  -30.4183  -12.2992   19.4371 C   0  0  0  0  0  0
  -29.4914  -12.5015   18.2189 C   0  0  0  0  0  0
  -28.0153  -12.3619   18.6324 C   0  0  0  0  0  0
  -27.6650  -13.2095   19.8825 C   0  0  2  0  0  0
  -28.7062  -13.0055   21.0069 C   0  0  0  0  0  0
  -25.2629  -13.8175   20.5713 C   0  0  0  0  0  0
  -24.1863  -13.0444   20.9169 C   0  0  0  0  0  0
  -24.6406  -11.6909   20.8736 C   0  0  0  0  0  0
  -23.9067  -10.4290   21.0391 C   0  0  0  0  0  0
  -24.3620   -9.4206   21.9165 C   0  0  0  0  0  0
  -23.6289   -8.2240   22.0738 C   0  0  0  0  0  0
  -22.4280   -8.0277   21.3527 C   0  0  0  0  0  0
  -21.9922   -9.0257   20.4629 C   0  0  0  0  0  0
  -22.7248  -10.2138   20.3035 C   0  0  0  0  0  0
  -21.6861   -6.0722   22.5271 C   0  0  0  0  0  0
  -21.4022   -6.5634   23.8205 C   0  0  0  0  0  0
  -21.3664   -5.6794   24.9172 C   0  0  0  0  0  0
  -21.6042   -4.3055   24.7228 C   0  0  0  0  0  0
  -21.8827   -3.8144   23.4350 C   0  0  0  0  0  0
  -21.9203   -4.6948   22.3396 C   0  0  0  0  0  0
  -22.7896  -13.5237   21.1842 C   0  0  0  0  0  0
  -22.1674   -4.2130   21.0979 F   0  0  0  0  0  0
  -21.5618   -3.4544   25.7741 F   0  0  0  0  0  0
  -30.0442  -13.2887   20.4575 N   0  0  0  0  0  0
  -26.3054  -12.9338   20.3415 N   0  0  0  0  0  0
  -25.9349  -11.6498   20.5808 N   0  0  0  0  0  0
  -22.0544  -12.8178   22.0372 N   0  0  0  0  0  0
  -25.4387  -15.1890   20.4147 N   0  0  0  0  0  0
  -31.8339  -14.6463   20.0642 O   0  0  0  0  0  0
  -21.6651   -6.8871   21.4226 O   0  0  0  0  0  0
  -22.3557  -14.5537   20.6714 O   0  0  0  0  0  0
  -24.6096  -31.8688   23.2116 C   0  0  0  0  0  0
  -25.9000  -32.4832   23.8401 C   0  0  1  0  0  0
  -27.2567  -27.4676   20.1089 C   0  0  0  0  0  0
  -25.5859  -33.8633   24.2330 N   0  0  0  0  0  0
  -23.3994  -30.4875   21.5496 C   0  0  2  0  0  0
  -24.8537  -28.9537   20.1181 C   0  0  0  0  0  0
  -22.7383  -29.4654   22.5014 C   0  0  0  0  0  0
  -18.0265  -28.1363   22.8511 C   0  0  0  0  0  0
  -24.1485  -36.7327   23.2648 C   0  0  0  0  0  0
  -25.9197  -30.8478   21.3563 C   0  0  0  0  0  0
  -26.0061  -29.4793   20.7167 C   0  0  0  0  0  0
  -27.2090  -28.7425   20.7158 C   0  0  0  0  0  0
  -26.0969  -26.9543   19.4950 C   0  0  0  0  0  0
  -24.8927  -27.6864   19.5042 C   0  0  0  0  0  0
  -23.6081  -29.8116   20.1655 C   0  0  0  0  0  0
  -25.4100  -36.3119   24.0350 C   0  0  1  0  0  0
  -20.5849  -28.3647   23.1331 C   0  0  2  0  0  0
  -20.6742  -26.9390   22.5423 C   0  0  0  0  0  0
  -19.5726  -26.6381   21.5214 C   0  0  0  0  0  0
  -18.1908  -26.7916   22.1630 C   0  0  0  0  0  0
  -19.1518  -28.8824   23.2916 C   0  0  0  0  0  0
  -18.9439  -30.1436   23.8927 C   0  0  0  0  0  0
  -17.6443  -30.6583   24.0567 C   0  0  0  0  0  0
  -25.9021  -34.9490   23.5146 C   0  0  0  0  0  0
  -16.5337  -29.9088   23.6330 C   0  0  0  0  0  0
  -16.7251  -28.6498   23.0361 C   0  0  0  0  0  0
  -26.4443  -31.6589   25.0712 C   0  0  0  0  0  0
  -25.3736  -31.3674   26.1474 C   0  0  0  0  0  0
  -27.0256  -30.3046   24.6031 C   0  0  0  0  0  0
  -27.6024  -32.4294   25.7458 C   0  0  0  0  0  0
  -27.5577  -37.1817   24.8466 C   0  0  0  0  0  0
  -21.4120  -29.3018   22.3746 N   0  0  0  0  0  0
  -26.4287  -37.3797   23.9420 N   0  0  0  0  0  0
  -24.6608  -31.0806   22.1000 N   0  0  0  0  0  0
  -23.4157  -28.8218   23.3074 O   0  0  0  0  0  0
  -28.4161  -26.7274   20.0485 O   0  0  0  0  0  0
  -26.5594  -34.8938   22.4718 O   0  0  0  0  0  0
  -23.5291  -32.1418   23.7525 O   0  0  0  0  0  0
  -28.9712  -20.1745   20.8795 C   0  0  0  0  0  0
  -29.6368  -19.1679   20.2371 C   0  0  0  0  0  0
  -30.4827  -19.8035   19.2716 C   0  0  0  0  0  0
  -30.2343  -21.1561   19.3112 C   0  0  0  0  0  0
  -30.6936  -18.6209   17.0494 C   0  0  0  0  0  0
  -32.6402  -23.9631   18.0127 C   0  0  0  0  0  0
  -28.8250  -24.7567   23.2248 C   0  0  0  0  0  0
  -29.3876  -17.6780   20.4429 C   0  0  0  0  0  0
  -31.4204  -19.1165   18.3049 C   0  0  0  0  0  0
  -30.7866  -22.2357   18.4190 C   0  0  0  0  0  0
  -32.1099  -22.8436   18.9197 C   0  0  0  0  0  0
  -29.4399  -23.8885   20.9227 C   0  0  0  0  0  0
  -28.5812  -22.6341   20.6468 C   0  0  0  0  0  0
  -30.4641  -16.8765   21.2063 C   0  0  0  0  0  0
  -29.0343  -26.4131   21.2990 C   0  0  0  0  0  0
  -28.6600  -24.9708   21.7106 C   0  0  2  0  0  0
  -29.2883  -21.3931   20.3050 N   0  0  0  0  0  0
  -30.1015  -15.4460   21.2380 N   0  0  0  0  0  0
  -31.4649  -12.3792   19.1338 H   0  0  0  0  0  0
  -30.3061  -11.2938   19.8447 H   0  0  0  0  0  0
  -29.7261  -11.7739   17.4404 H   0  0  0  0  0  0
  -29.6599  -13.4869   17.7838 H   0  0  0  0  0  0
  -27.8297  -11.3067   18.8407 H   0  0  0  0  0  0
  -27.3610  -12.6290   17.8011 H   0  0  0  0  0  0
  -27.7091  -14.2545   19.5759 H   0  0  0  0  0  0
  -28.6712  -11.9802   21.3757 H   0  0  0  0  0  0
  -28.4657  -13.6284   21.8693 H   0  0  0  0  0  0
  -25.2771   -9.5672   22.4733 H   0  0  0  0  0  0
  -23.9996   -7.4639   22.7469 H   0  0  0  0  0  0
  -21.0846   -8.8804   19.8922 H   0  0  0  0  0  0
  -22.3733  -10.9686   19.6143 H   0  0  0  0  0  0
  -21.2027   -7.6148   23.9693 H   0  0  0  0  0  0
  -21.1467   -6.0531   25.9073 H   0  0  0  0  0  0
  -22.0601   -2.7594   23.2873 H   0  0  0  0  0  0
  -22.4250  -11.9843   22.4703 H   0  0  0  0  0  0
  -21.1159  -13.1150   22.2644 H   0  0  0  0  0  0
  -24.6754  -15.8515   20.5056 H   0  0  0  0  0  0
  -26.2971  -15.6144   20.0874 H   0  0  0  0  0  0
  -26.7093  -32.5567   23.1186 H   0  0  0  0  0  0
  -24.9992  -33.9795   25.0456 H   0  0  0  0  0  0
  -22.6882  -31.3036   21.4070 H   0  0  0  0  0  0
  -23.3733  -35.9667   23.3308 H   0  0  0  0  0  0
  -24.3591  -36.8935   22.2063 H   0  0  0  0  0  0
  -23.7242  -37.6543   23.6649 H   0  0  0  0  0  0
  -26.0150  -31.6097   20.5809 H   0  0  0  0  0  0
  -26.8141  -30.9151   21.9641 H   0  0  0  0  0  0
  -28.0994  -29.1605   21.1636 H   0  0  0  0  0  0
  -26.1309  -25.9857   19.0148 H   0  0  0  0  0  0
  -24.0131  -27.2739   19.0324 H   0  0  0  0  0  0
  -23.7094  -30.5825   19.4002 H   0  0  0  0  0  0
  -22.7365  -29.2206   19.8781 H   0  0  0  0  0  0
  -25.1269  -36.1994   25.0836 H   0  0  0  0  0  0
  -20.9944  -28.3205   24.1451 H   0  0  0  0  0  0
  -20.5633  -26.2265   23.3608 H   0  0  0  0  0  0
  -21.6617  -26.7440   22.1236 H   0  0  0  0  0  0
  -19.6898  -25.6302   21.1230 H   0  0  0  0  0  0
  -19.6653  -27.3202   20.6752 H   0  0  0  0  0  0
  -17.4180  -26.6678   21.4024 H   0  0  0  0  0  0
  -18.0301  -26.0035   22.9005 H   0  0  0  0  0  0
  -19.7917  -30.7238   24.2306 H   0  0  0  0  0  0
  -17.5005  -31.6272   24.5153 H   0  0  0  0  0  0
  -15.5338  -30.2998   23.7636 H   0  0  0  0  0  0
  -15.8646  -28.0819   22.7068 H   0  0  0  0  0  0
  -24.5897  -30.7025   25.7820 H   0  0  0  0  0  0
  -24.8936  -32.2817   26.4969 H   0  0  0  0  0  0
  -25.8114  -30.8816   27.0200 H   0  0  0  0  0  0
  -26.2773  -29.6817   24.1111 H   0  0  0  0  0  0
  -27.4076  -29.7259   25.4445 H   0  0  0  0  0  0
  -27.8576  -30.4382   23.9116 H   0  0  0  0  0  0
  -27.2650  -33.3567   26.2091 H   0  0  0  0  0  0
  -28.3792  -32.6894   25.0263 H   0  0  0  0  0  0
  -28.0728  -31.8387   26.5322 H   0  0  0  0  0  0
  -28.2606  -38.0109   24.7520 H   0  0  0  0  0  0
  -28.1065  -36.2647   24.6266 H   0  0  0  0  0  0
  -27.2317  -37.1447   25.8877 H   0  0  0  0  0  0
  -20.9278  -29.8727   21.6956 H   0  0  0  0  0  0
  -26.0179  -38.2879   24.1402 H   0  0  0  0  0  0
  -28.2188  -20.1188   21.6568 H   0  0  0  0  0  0
  -31.3997  -18.1992   16.3351 H   0  0  0  0  0  0
  -30.1635  -19.4331   16.5468 H   0  0  0  0  0  0
  -29.9675  -17.8439   17.2912 H   0  0  0  0  0  0
  -33.6142  -24.3134   18.3555 H   0  0  0  0  0  0
  -31.9678  -24.8206   17.9995 H   0  0  0  0  0  0
  -32.7622  -23.6165   16.9863 H   0  0  0  0  0  0
  -28.5964  -23.7279   23.5047 H   0  0  0  0  0  0
  -28.1534  -25.4039   23.7907 H   0  0  0  0  0  0
  -29.8446  -24.9666   23.5512 H   0  0  0  0  0  0
  -29.2329  -17.2328   19.4600 H   0  0  0  0  0  0
  -28.4321  -17.5767   20.9642 H   0  0  0  0  0  0
  -31.9200  -18.2856   18.8047 H   0  0  0  0  0  0
  -32.2087  -19.8125   18.0165 H   0  0  0  0  0  0
  -30.0395  -23.0078   18.2486 H   0  0  0  0  0  0
  -30.9591  -21.8169   17.4263 H   0  0  0  0  0  0
  -31.9919  -23.2338   19.9289 H   0  0  0  0  0  0
  -32.8612  -22.0567   18.9886 H   0  0  0  0  0  0
  -29.7719  -24.3137   19.9765 H   0  0  0  0  0  0
  -30.3410  -23.6156   21.4703 H   0  0  0  0  0  0
  -27.8774  -22.8502   19.8435 H   0  0  0  0  0  0
  -27.9650  -22.4285   21.5224 H   0  0  0  0  0  0
  -30.5515  -17.2485   22.2280 H   0  0  0  0  0  0
  -31.4404  -17.0342   20.7453 H   0  0  0  0  0  0
  -30.1164  -26.5127   21.2001 H   0  0  0  0  0  0
  -28.7377  -27.1105   22.0856 H   0  0  0  0  0  0
  -27.5989  -24.8539   21.4876 H   0  0  0  0  0  0
  -29.2194  -15.2032   21.6616 H   0  0  0  0  0  0
  1 25  1  0  0  0
  1 30  2  0  0  0
  1 88  1  0  0  0
  2  3  1  0  0  0
  2 25  1  0  0  0
  2 89  1  0  0  0
  2 90  1  0  0  0
  3  4  1  0  0  0
  3 91  1  0  0  0
  3 92  1  0  0  0
  4  5  1  0  0  0
  4 93  1  0  0  0
  4 94  1  0  0  0
  5  6  1  0  0  0
  5 26  1  0  0  0
  5 95  1  0  0  0
  6 25  1  0  0  0
  6 96  1  0  0  0
  6 97  1  0  0  0
  7  8  2  0  0  0
  7 26  1  0  0  0
  7 29  1  0  0  0
  8  9  1  0  0  0
  8 22  1  0  0  0
  9 10  1  0  0  0
  9 27  2  0  0  0
 10 11  2  0  0  0
 10 15  1  0  0  0
 11 12  1  0  0  0
 11 98  1  0  0  0
 12 13  2  0  0  0
 12 99  1  0  0  0
 13 14  1  0  0  0
 13 31  1  0  0  0
 14 15  2  0  0  0
 14100  1  0  0  0
 15101  1  0  0  0
 16 17  2  0  0  0
 16 21  1  0  0  0
 16 31  1  0  0  0
 17 18  1  0  0  0
 17102  1  0  0  0
 18 19  2  0  0  0
 18103  1  0  0  0
 19 20  1  0  0  0
 19 24  1  0  0  0
 20 21  2  0  0  0
 20104  1  0  0  0
 21 23  1  0  0  0
 22 28  1  0  0  0
 22 32  2  0  0  0
 26 27  1  0  0  0
 28105  1  0  0  0
 28106  1  0  0  0
 29107  1  0  0  0
 29108  1  0  0  0
 33 34  1  0  0  0
 33 66  1  0  0  0
 33 70  2  0  0  0
 34 36  1  0  0  0
 34 59  1  0  0  0
 34109  1  0  0  0
 35 44  2  0  0  0
 35 45  1  0  0  0
 35 68  1  0  0  0
 36 56  1  0  0  0
 36110  1  0  0  0
 37 39  1  0  0  0
 37 47  1  0  0  0
 37 66  1  0  0  0
 37111  1  0  0  0
 38 43  2  0  0  0
 38 46  1  0  0  0
 38 47  1  0  0  0
 39 64  1  0  0  0
 39 67  2  0  0  0
 40 52  1  0  0  0
 40 53  2  0  0  0
 40 58  1  0  0  0
 41112  1  0  0  0
 41113  1  0  0  0
 41114  1  0  0  0
 41 48  1  0  0  0
 42 43  1  0  0  0
 42 66  1  0  0  0
 42115  1  0  0  0
 42116  1  0  0  0
 43 44  1  0  0  0
 44117  1  0  0  0
 45 46  2  0  0  0
 45118  1  0  0  0
 46119  1  0  0  0
 47120  1  0  0  0
 47121  1  0  0  0
 48 56  1  0  0  0
 48 65  1  0  0  0
 48122  1  0  0  0
 49 50  1  0  0  0
 49 53  1  0  0  0
 49 64  1  0  0  0
 49123  1  0  0  0
 50 51  1  0  0  0
 50124  1  0  0  0
 50125  1  0  0  0
 51 52  1  0  0  0
 51126  1  0  0  0
 51127  1  0  0  0
 52128  1  0  0  0
 52129  1  0  0  0
 53 54  1  0  0  0
 54 55  2  0  0  0
 54130  1  0  0  0
 55 57  1  0  0  0
 55131  1  0  0  0
 56 69  2  0  0  0
 57 58  2  0  0  0
 57132  1  0  0  0
 58133  1  0  0  0
 59 60  1  0  0  0
 59 61  1  0  0  0
 59 62  1  0  0  0
 60134  1  0  0  0
 60135  1  0  0  0
 60136  1  0  0  0
 61137  1  0  0  0
 61138  1  0  0  0
 61139  1  0  0  0
 62140  1  0  0  0
 62141  1  0  0  0
 62142  1  0  0  0
 63 65  1  0  0  0
 63143  1  0  0  0
 63144  1  0  0  0
 63145  1  0  0  0
 64146  1  0  0  0
 65147  1  0  0  0
 68 85  1  0  0  0
 71 72  2  0  0  0
 71 87  1  0  0  0
 71148  1  0  0  0
 72 73  1  0  0  0
 72 78  1  0  0  0
 73 74  2  0  0  0
 73 79  1  0  0  0
 74 80  1  0  0  0
 74 87  1  0  0  0
 75 79  1  0  0  0
 75149  1  0  0  0
 75150  1  0  0  0
 75151  1  0  0  0
 76 81  1  0  0  0
 76152  1  0  0  0
 76153  1  0  0  0
 76154  1  0  0  0
 77155  1  0  0  0
 77156  1  0  0  0
 77157  1  0  0  0
 77 86  1  0  0  0
 78 84  1  0  0  0
 78158  1  0  0  0
 78159  1  0  0  0
 79160  1  0  0  0
 79161  1  0  0  0
 80 81  1  0  0  0
 80162  1  0  0  0
 80163  1  0  0  0
 81164  1  0  0  0
 81165  1  0  0  0
 82 83  1  0  0  0
 82 86  1  0  0  0
 82166  1  0  0  0
 82167  1  0  0  0
 83 87  1  0  0  0
 83168  1  0  0  0
 83169  1  0  0  0
 84 88  1  0  0  0
 84170  1  0  0  0
 84171  1  0  0  0
 85 86  1  0  0  0
 85172  1  0  0  0
 85173  1  0  0  0
 86174  1  0  0  0
 88175  1  0  0  0
M  ISO  4   1 100  68 101  85 101  88 100
M  END
> <chiral flag>
0

> <version>
0

> <s_m_source_file>
/data/baiqing/PycharmProjects/Reinvent-master-3.2/result/LINK_invent/BTK/process_docking_weight1_custom_sum_contain_oxygen_bond_distance_aromatic_linkinvent_7_9_3/rearranged_h_0097.sdf

> <i_m_source_file_index>
13

> <r_mmod_Potential_Energy-OPLS-2005>
-98.1234512329102

> <r_mmod_Stretch_Energy-OPLS-2005>
34.8709869384766

> <r_mmod_Bend_Energy-OPLS-2005>
105.361183166504

> <r_mmod_Torsional_Energy-OPLS-2005>
244.557373046875

> <r_mmod_Improper_Torsional_Energy-OPLS-2005>
4.64255428314209

> <r_mmod_Van_der_Waal_Energy-OPLS-2005>
116.363479614258

> <r_mmod_Electrostatic_Energy-OPLS-2005>
-410.826019287109

> <r_mmod_Solvation_Energy-OPLS-2005>
-202.194381713867

> <b_mmod_Minimization_Converged-OPLS-2005>
0

> <r_mmod_RMS_Derivative-OPLS-2005>
3.06576228141785

$$$$
13
                    3D
 Structure written by MMmdl.
169177  0  0  1  0            999 V2000
  -30.6471  -14.5872   20.5543 C   0  0  0  0  0  0
  -30.4406  -12.3700   19.4447 C   0  0  0  0  0  0
  -29.5051  -12.5052   18.2233 C   0  0  0  0  0  0
  -28.0272  -12.3524   18.6365 C   0  0  0  0  0  0
  -27.6588  -13.2107   19.8761 C   0  0  2  0  0  0
  -28.7052  -13.0290   21.0009 C   0  0  0  0  0  0
  -25.2459  -13.8079   20.5525 C   0  0  0  0  0  0
  -24.1784  -13.0373   20.9143 C   0  0  0  0  0  0
  -24.6374  -11.6857   20.8749 C   0  0  0  0  0  0
  -23.9034  -10.4258   21.0413 C   0  0  0  0  0  0
  -24.3590   -9.4171   21.9179 C   0  0  0  0  0  0
  -23.6270   -8.2210   22.0757 C   0  0  0  0  0  0
  -22.4259   -8.0253   21.3544 C   0  0  0  0  0  0
  -21.9878   -9.0232   20.4658 C   0  0  0  0  0  0
  -22.7206  -10.2106   20.3063 C   0  0  0  0  0  0
  -21.6862   -6.0703   22.5279 C   0  0  0  0  0  0
  -21.4021   -6.5620   23.8206 C   0  0  0  0  0  0
  -21.3669   -5.6790   24.9184 C   0  0  0  0  0  0
  -21.6067   -4.3050   24.7246 C   0  0  0  0  0  0
  -21.8830   -3.8111   23.4371 C   0  0  0  0  0  0
  -21.9192   -4.6921   22.3417 C   0  0  0  0  0  0
  -22.7811  -13.5158   21.1806 C   0  0  0  0  0  0
  -22.1676   -4.2092   21.1003 F   0  0  0  0  0  0
  -21.5618   -3.4548   25.7760 F   0  0  0  0  0  0
  -30.0266  -13.3713   20.4464 N   0  0  0  0  0  0
  -26.2991  -12.9318   20.3372 N   0  0  0  0  0  0
  -25.9315  -11.6472   20.5812 N   0  0  0  0  0  0
  -22.0461  -12.8192   22.0382 N   0  0  0  0  0  0
  -25.3949  -15.1764   20.3654 N   0  0  0  0  0  0
  -31.7834  -14.7894   20.1169 O   0  0  0  0  0  0
  -21.6640   -6.8845   21.4241 O   0  0  0  0  0  0
  -22.3489  -14.5445   20.6612 O   0  0  0  0  0  0
  -24.6188  -31.8634   23.2012 C   0  0  0  0  0  0
  -25.9059  -32.4795   23.8345 C   0  0  1  0  0  0
  -27.2354  -27.3722   20.1296 C   0  0  0  0  0  0
  -25.5905  -33.8602   24.2285 N   0  0  0  0  0  0
  -23.4102  -30.4844   21.5429 C   0  0  2  0  0  0
  -24.8586  -28.9318   20.1197 C   0  0  0  0  0  0
  -22.7430  -29.4642   22.4940 C   0  0  0  0  0  0
  -18.0291  -28.1382   22.8495 C   0  0  0  0  0  0
  -24.1480  -36.7307   23.2638 C   0  0  0  0  0  0
  -25.9433  -30.8116   21.3605 C   0  0  0  0  0  0
  -26.0198  -29.4368   20.7185 C   0  0  0  0  0  0
  -27.2121  -28.6671   20.7136 C   0  0  0  0  0  0
  -26.0575  -26.8905   19.5232 C   0  0  0  0  0  0
  -24.8743  -27.6606   19.5145 C   0  0  0  0  0  0
  -23.6242  -29.8089   20.1606 C   0  0  0  0  0  0
  -25.4105  -36.3100   24.0329 C   0  0  1  0  0  0
  -20.5886  -28.3675   23.1294 C   0  0  2  0  0  0
  -20.6787  -26.9403   22.5414 C   0  0  0  0  0  0
  -19.5764  -26.6374   21.5210 C   0  0  0  0  0  0
  -18.1939  -26.7934   22.1612 C   0  0  0  0  0  0
  -19.1545  -28.8843   23.2894 C   0  0  0  0  0  0
  -18.9468  -30.1450   23.8898 C   0  0  0  0  0  0
  -17.6468  -30.6584   24.0562 C   0  0  0  0  0  0
  -25.9033  -34.9471   23.5098 C   0  0  0  0  0  0
  -16.5357  -29.9081   23.6342 C   0  0  0  0  0  0
  -16.7276  -28.6502   23.0356 C   0  0  0  0  0  0
  -26.4483  -31.6586   25.0694 C   0  0  0  0  0  0
  -25.3746  -31.3726   26.1432 C   0  0  0  0  0  0
  -27.0300  -30.3019   24.6090 C   0  0  0  0  0  0
  -27.6035  -32.4303   25.7500 C   0  0  0  0  0  0
  -27.5573  -37.1803   24.8468 C   0  0  0  0  0  0
  -21.4155  -29.3030   22.3687 N   0  0  0  0  0  0
  -26.4281  -37.3792   23.9423 N   0  0  0  0  0  0
  -24.6767  -31.0695   22.0930 N   0  0  0  0  0  0
  -23.4184  -28.8185   23.2999 O   0  0  0  0  0  0
  -28.3998  -26.6181   20.0824 O   0  0  0  0  0  0
  -26.5591  -34.8931   22.4656 O   0  0  0  0  0  0
  -23.5365  -32.1388   23.7381 O   0  0  0  0  0  0
  -27.9612  -21.4602   21.9841 C   0  0  0  0  0  0
  -29.4403  -20.2515   20.8595 C   0  0  0  0  0  0
  -28.9767  -21.5542   21.0072 C   0  0  0  0  0  0
  -27.8212  -20.1654   22.4026 C   0  0  0  0  0  0
  -25.4231  -20.2842   23.1956 C   0  0  0  0  0  0
  -27.2995  -20.1611   24.8639 C   0  0  0  0  0  0
  -29.2316  -17.4678   23.2910 C   0  0  0  0  0  0
  -27.5679  -17.2101   21.3567 C   0  0  0  0  0  0
  -29.4364  -22.8761   20.3437 C   0  0  0  0  0  0
  -28.3627  -24.0148   20.0672 C   0  0  0  0  0  0
  -30.0193  -17.0995   20.9658 C   0  0  0  0  0  0
  -28.4778  -25.3798   20.8505 C   0  0  0  0  0  0
  -26.8327  -19.7335   23.4652 C   0  0  0  0  0  0
  -28.8998  -17.8432   21.8204 C   0  0  0  0  0  0
  -28.7482  -19.3556   21.7019 N   0  0  0  0  0  0
  -29.8630  -15.6021   21.0033 N   0  0  0  0  0  0
  -31.4794  -12.4999   19.1389 H   0  0  0  0  0  0
  -30.3773  -11.3642   19.8669 H   0  0  0  0  0  0
  -29.7586  -11.7546   17.4750 H   0  0  0  0  0  0
  -29.6567  -13.4749   17.7454 H   0  0  0  0  0  0
  -27.8573  -11.2985   18.8594 H   0  0  0  0  0  0
  -27.3690  -12.5984   17.8024 H   0  0  0  0  0  0
  -27.6908  -14.2545   19.5587 H   0  0  0  0  0  0
  -28.7106  -11.9986   21.3539 H   0  0  0  0  0  0
  -28.4569  -13.6326   21.8745 H   0  0  0  0  0  0
  -25.2751   -9.5648   22.4725 H   0  0  0  0  0  0
  -23.9975   -7.4602   22.7470 H   0  0  0  0  0  0
  -21.0788   -8.8748   19.8990 H   0  0  0  0  0  0
  -22.3641  -10.9643   19.6172 H   0  0  0  0  0  0
  -21.2012   -7.6122   23.9678 H   0  0  0  0  0  0
  -21.1498   -6.0537   25.9084 H   0  0  0  0  0  0
  -22.0583   -2.7564   23.2899 H   0  0  0  0  0  0
  -22.4117  -11.9912   22.4844 H   0  0  0  0  0  0
  -21.1052  -13.1187   22.2529 H   0  0  0  0  0  0
  -24.6087  -15.8106   20.4509 H   0  0  0  0  0  0
  -26.2347  -15.6291   20.0323 H   0  0  0  0  0  0
  -26.7138  -32.5493   23.1114 H   0  0  0  0  0  0
  -25.0128  -33.9774   25.0482 H   0  0  0  0  0  0
  -22.7008  -31.3025   21.3982 H   0  0  0  0  0  0
  -23.3733  -35.9645   23.3307 H   0  0  0  0  0  0
  -24.3577  -36.8914   22.2049 H   0  0  0  0  0  0
  -23.7228  -37.6508   23.6653 H   0  0  0  0  0  0
  -26.0540  -31.5641   20.5790 H   0  0  0  0  0  0
  -26.8326  -30.8759   21.9757 H   0  0  0  0  0  0
  -28.1109  -29.0590   21.1686 H   0  0  0  0  0  0
  -26.0568  -25.9203   19.0472 H   0  0  0  0  0  0
  -23.9842  -27.2705   19.0388 H   0  0  0  0  0  0
  -23.7423  -30.5825   19.4009 H   0  0  0  0  0  0
  -22.7456  -29.2353   19.8578 H   0  0  0  0  0  0
  -25.1282  -36.1951   25.0819 H   0  0  0  0  0  0
  -21.0002  -28.3248   24.1398 H   0  0  0  0  0  0
  -20.5701  -26.2276   23.3609 H   0  0  0  0  0  0
  -21.6658  -26.7441   22.1190 H   0  0  0  0  0  0
  -19.6926  -25.6281   21.1234 H   0  0  0  0  0  0
  -19.6712  -27.3197   20.6752 H   0  0  0  0  0  0
  -17.4221  -26.6699   21.3998 H   0  0  0  0  0  0
  -18.0320  -26.0070   22.8997 H   0  0  0  0  0  0
  -19.7944  -30.7274   24.2253 H   0  0  0  0  0  0
  -17.5022  -31.6266   24.5159 H   0  0  0  0  0  0
  -15.5362  -30.2976   23.7666 H   0  0  0  0  0  0
  -15.8677  -28.0809   22.7070 H   0  0  0  0  0  0
  -24.5944  -30.7037   25.7800 H   0  0  0  0  0  0
  -24.8909  -32.2888   26.4808 H   0  0  0  0  0  0
  -25.8089  -30.8964   27.0226 H   0  0  0  0  0  0
  -26.2825  -29.6784   24.1162 H   0  0  0  0  0  0
  -27.4076  -29.7260   25.4549 H   0  0  0  0  0  0
  -27.8674  -30.4327   23.9235 H   0  0  0  0  0  0
  -27.2631  -33.3601   26.2074 H   0  0  0  0  0  0
  -28.3882  -32.6843   25.0367 H   0  0  0  0  0  0
  -28.0661  -31.8415   26.5429 H   0  0  0  0  0  0
  -28.2589  -38.0101   24.7508 H   0  0  0  0  0  0
  -28.1059  -36.2622   24.6288 H   0  0  0  0  0  0
  -27.2299  -37.1459   25.8873 H   0  0  0  0  0  0
  -20.9307  -29.8711   21.6884 H   0  0  0  0  0  0
  -26.0155  -38.2866   24.1418 H   0  0  0  0  0  0
  -27.3758  -22.2866   22.3632 H   0  0  0  0  0  0
  -30.2234  -19.8747   20.2144 H   0  0  0  0  0  0
  -25.0588  -19.9675   22.2178 H   0  0  0  0  0  0
  -25.3981  -21.3743   23.2241 H   0  0  0  0  0  0
  -24.7142  -19.9220   23.9406 H   0  0  0  0  0  0
  -28.2697  -19.7306   25.1136 H   0  0  0  0  0  0
  -26.5930  -19.8384   25.6295 H   0  0  0  0  0  0
  -27.3956  -21.2454   24.9342 H   0  0  0  0  0  0
  -29.4274  -16.4028   23.4080 H   0  0  0  0  0  0
  -28.4484  -17.6790   24.0085 H   0  0  0  0  0  0
  -30.1267  -17.9912   23.6288 H   0  0  0  0  0  0
  -27.4379  -16.2096   21.7672 H   0  0  0  0  0  0
  -27.5393  -17.1377   20.2688 H   0  0  0  0  0  0
  -26.6785  -17.7732   21.6199 H   0  0  0  0  0  0
  -29.8936  -22.5990   19.3928 H   0  0  0  0  0  0
  -30.2545  -23.2809   20.9405 H   0  0  0  0  0  0
  -27.3524  -23.6175   20.1674 H   0  0  0  0  0  0
  -28.4439  -24.2673   19.0104 H   0  0  0  0  0  0
  -31.0148  -17.3773   21.3117 H   0  0  0  0  0  0
  -29.9605  -17.4131   19.9230 H   0  0  0  0  0  0
  -27.7627  -25.3961   21.6764 H   0  0  0  0  0  0
  -29.4579  -25.4122   21.3255 H   0  0  0  0  0  0
  -26.7104  -18.6576   23.4962 H   0  0  0  0  0  0
  -28.9594  -15.2985   21.3306 H   0  0  0  0  0  0
  1 25  1  0  0  0
  1 30  2  0  0  0
  1 86  1  0  0  0
  2  3  1  0  0  0
  2 25  1  0  0  0
  2 87  1  0  0  0
  2 88  1  0  0  0
  3  4  1  0  0  0
  3 89  1  0  0  0
  3 90  1  0  0  0
  4  5  1  0  0  0
  4 91  1  0  0  0
  4 92  1  0  0  0
  5  6  1  0  0  0
  5 26  1  0  0  0
  5 93  1  0  0  0
  6 25  1  0  0  0
  6 94  1  0  0  0
  6 95  1  0  0  0
  7  8  2  0  0  0
  7 26  1  0  0  0
  7 29  1  0  0  0
  8  9  1  0  0  0
  8 22  1  0  0  0
  9 10  1  0  0  0
  9 27  2  0  0  0
 10 11  2  0  0  0
 10 15  1  0  0  0
 11 12  1  0  0  0
 11 96  1  0  0  0
 12 13  2  0  0  0
 12 97  1  0  0  0
 13 14  1  0  0  0
 13 31  1  0  0  0
 14 15  2  0  0  0
 14 98  1  0  0  0
 15 99  1  0  0  0
 16 17  2  0  0  0
 16 21  1  0  0  0
 16 31  1  0  0  0
 17 18  1  0  0  0
 17100  1  0  0  0
 18 19  2  0  0  0
 18101  1  0  0  0
 19 20  1  0  0  0
 19 24  1  0  0  0
 20 21  2  0  0  0
 20102  1  0  0  0
 21 23  1  0  0  0
 22 28  1  0  0  0
 22 32  2  0  0  0
 26 27  1  0  0  0
 28103  1  0  0  0
 28104  1  0  0  0
 29105  1  0  0  0
 29106  1  0  0  0
 33 34  1  0  0  0
 33 66  1  0  0  0
 33 70  2  0  0  0
 34 36  1  0  0  0
 34 59  1  0  0  0
 34107  1  0  0  0
 35 44  2  0  0  0
 35 45  1  0  0  0
 35 68  1  0  0  0
 36 56  1  0  0  0
 36108  1  0  0  0
 37 39  1  0  0  0
 37 47  1  0  0  0
 37 66  1  0  0  0
 37109  1  0  0  0
 38 43  2  0  0  0
 38 46  1  0  0  0
 38 47  1  0  0  0
 39 64  1  0  0  0
 39 67  2  0  0  0
 40 52  1  0  0  0
 40 53  2  0  0  0
 40 58  1  0  0  0
 41110  1  0  0  0
 41111  1  0  0  0
 41112  1  0  0  0
 41 48  1  0  0  0
 42 43  1  0  0  0
 42 66  1  0  0  0
 42113  1  0  0  0
 42114  1  0  0  0
 43 44  1  0  0  0
 44115  1  0  0  0
 45 46  2  0  0  0
 45116  1  0  0  0
 46117  1  0  0  0
 47118  1  0  0  0
 47119  1  0  0  0
 48 56  1  0  0  0
 48 65  1  0  0  0
 48120  1  0  0  0
 49 50  1  0  0  0
 49 53  1  0  0  0
 49 64  1  0  0  0
 49121  1  0  0  0
 50 51  1  0  0  0
 50122  1  0  0  0
 50123  1  0  0  0
 51 52  1  0  0  0
 51124  1  0  0  0
 51125  1  0  0  0
 52126  1  0  0  0
 52127  1  0  0  0
 53 54  1  0  0  0
 54 55  2  0  0  0
 54128  1  0  0  0
 55 57  1  0  0  0
 55129  1  0  0  0
 56 69  2  0  0  0
 57 58  2  0  0  0
 57130  1  0  0  0
 58131  1  0  0  0
 59 60  1  0  0  0
 59 61  1  0  0  0
 59 62  1  0  0  0
 60132  1  0  0  0
 60133  1  0  0  0
 60134  1  0  0  0
 61135  1  0  0  0
 61136  1  0  0  0
 61137  1  0  0  0
 62138  1  0  0  0
 62139  1  0  0  0
 62140  1  0  0  0
 63 65  1  0  0  0
 63141  1  0  0  0
 63142  1  0  0  0
 63143  1  0  0  0
 64144  1  0  0  0
 65145  1  0  0  0
 68 82  1  0  0  0
 71 73  1  0  0  0
 71 74  2  0  0  0
 71146  1  0  0  0
 72 73  2  0  0  0
 72 85  1  0  0  0
 72147  1  0  0  0
 73 79  1  0  0  0
 74 83  1  0  0  0
 74 85  1  0  0  0
 75148  1  0  0  0
 75149  1  0  0  0
 75150  1  0  0  0
 75 83  1  0  0  0
 76 83  1  0  0  0
 76151  1  0  0  0
 76152  1  0  0  0
 76153  1  0  0  0
 77154  1  0  0  0
 77155  1  0  0  0
 77156  1  0  0  0
 77 84  1  0  0  0
 78 84  1  0  0  0
 78157  1  0  0  0
 78158  1  0  0  0
 78159  1  0  0  0
 79 80  1  0  0  0
 79160  1  0  0  0
 79161  1  0  0  0
 80 82  1  0  0  0
 80162  1  0  0  0
 80163  1  0  0  0
 81 84  1  0  0  0
 81 86  1  0  0  0
 81164  1  0  0  0
 81165  1  0  0  0
 82166  1  0  0  0
 82167  1  0  0  0
 83168  1  0  0  0
 84 85  1  0  0  0
 86169  1  0  0  0
M  ISO  4   1 100  68 101  82 101  86 100
M  END
> <chiral flag>
0

> <version>
0

> <s_m_source_file>
/data/baiqing/PycharmProjects/Reinvent-master-3.2/result/LINK_invent/BTK/process_docking_weight1_custom_sum_contain_oxygen_bond_distance_aromatic_linkinvent_7_9_3/rearranged_h_0097.sdf

> <i_m_source_file_index>
14

> <r_mmod_Potential_Energy-OPLS-2005>
4.31587266921997

> <r_mmod_Stretch_Energy-OPLS-2005>
72.8199920654297

> <r_mmod_Bend_Energy-OPLS-2005>
153.473480224609

> <r_mmod_Torsional_Energy-OPLS-2005>
300.395080566406

> <r_mmod_Improper_Torsional_Energy-OPLS-2005>
4.51676940917969

> <r_mmod_Van_der_Waal_Energy-OPLS-2005>
126.860481262207

> <r_mmod_Electrostatic_Energy-OPLS-2005>
-483.541870117188

> <r_mmod_Solvation_Energy-OPLS-2005>
-198.29460144043

> <b_mmod_Minimization_Converged-OPLS-2005>
0

> <r_mmod_RMS_Derivative-OPLS-2005>
3.05038142204285

$$$$
14
                    3D
 Structure written by MMmdl.
173181  0  0  1  0            999 V2000
  -30.6098  -14.7242   20.4830 C   0  0  0  0  0  0
  -30.4404  -12.4463   19.4773 C   0  0  0  0  0  0
  -29.5091  -12.4704   18.2457 C   0  0  0  0  0  0
  -28.0418  -12.2811   18.6736 C   0  0  0  0  0  0
  -27.6398  -13.2145   19.8450 C   0  0  2  0  0  0
  -28.6786  -13.1599   20.9852 C   0  0  0  0  0  0
  -25.2431  -13.8083   20.5492 C   0  0  0  0  0  0
  -24.1773  -13.0394   20.9182 C   0  0  0  0  0  0
  -24.6367  -11.6875   20.8795 C   0  0  0  0  0  0
  -23.9045  -10.4269   21.0449 C   0  0  0  0  0  0
  -24.3612   -9.4184   21.9217 C   0  0  0  0  0  0
  -23.6288   -8.2219   22.0764 C   0  0  0  0  0  0
  -22.4278   -8.0265   21.3536 C   0  0  0  0  0  0
  -21.9910   -9.0245   20.4644 C   0  0  0  0  0  0
  -22.7231  -10.2125   20.3077 C   0  0  0  0  0  0
  -21.6835   -6.0738   22.5272 C   0  0  0  0  0  0
  -21.3992   -6.5640   23.8215 C   0  0  0  0  0  0
  -21.3659   -5.6787   24.9179 C   0  0  0  0  0  0
  -21.6047   -4.3051   24.7222 C   0  0  0  0  0  0
  -21.8819   -3.8148   23.4344 C   0  0  0  0  0  0
  -21.9190   -4.6963   22.3404 C   0  0  0  0  0  0
  -22.7801  -13.5202   21.1848 C   0  0  0  0  0  0
  -22.1658   -4.2156   21.0977 F   0  0  0  0  0  0
  -21.5651   -3.4535   25.7743 F   0  0  0  0  0  0
  -29.9839  -13.5025   20.4065 N   0  0  0  0  0  0
  -26.2908  -12.9314   20.3225 N   0  0  0  0  0  0
  -25.9302  -11.6473   20.5828 N   0  0  0  0  0  0
  -22.0443  -12.8232   22.0420 N   0  0  0  0  0  0
  -25.3953  -15.1755   20.3604 N   0  0  0  0  0  0
  -31.7980  -14.8336   20.1730 O   0  0  0  0  0  0
  -21.6624   -6.8875   21.4237 O   0  0  0  0  0  0
  -22.3511  -14.5521   20.6695 O   0  0  0  0  0  0
  -24.6309  -31.8538   23.1939 C   0  0  0  0  0  0
  -25.9141  -32.4727   23.8271 C   0  0  1  0  0  0
  -27.2054  -27.2518   20.1051 C   0  0  0  0  0  0
  -25.5940  -33.8524   24.2249 N   0  0  0  0  0  0
  -23.4213  -30.4725   21.5439 C   0  0  2  0  0  0
  -24.8594  -28.9114   20.1039 C   0  0  0  0  0  0
  -22.7477  -29.4550   22.4951 C   0  0  0  0  0  0
  -18.0284  -28.1356   22.8451 C   0  0  0  0  0  0
  -24.1478  -36.7295   23.2631 C   0  0  0  0  0  0
  -25.9609  -30.7612   21.3592 C   0  0  0  0  0  0
  -26.0294  -29.3762   20.7147 C   0  0  0  0  0  0
  -27.2004  -28.5550   20.7096 C   0  0  0  0  0  0
  -26.0117  -26.8469   19.4712 C   0  0  0  0  0  0
  -24.8539  -27.6562   19.4721 C   0  0  0  0  0  0
  -23.6327  -29.8021   20.1572 C   0  0  0  0  0  0
  -25.4108  -36.3055   24.0305 C   0  0  1  0  0  0
  -20.5889  -28.3650   23.1279 C   0  0  2  0  0  0
  -20.6761  -26.9369   22.5402 C   0  0  0  0  0  0
  -19.5759  -26.6362   21.5176 C   0  0  0  0  0  0
  -18.1938  -26.7896   22.1579 C   0  0  0  0  0  0
  -19.1539  -28.8817   23.2842 C   0  0  0  0  0  0
  -18.9461  -30.1420   23.8853 C   0  0  0  0  0  0
  -17.6464  -30.6544   24.0538 C   0  0  0  0  0  0
  -25.9050  -34.9408   23.5080 C   0  0  0  0  0  0
  -16.5361  -29.9060   23.6284 C   0  0  0  0  0  0
  -16.7278  -28.6488   23.0300 C   0  0  0  0  0  0
  -26.4546  -31.6524   25.0617 C   0  0  0  0  0  0
  -25.3783  -31.3604   26.1347 C   0  0  0  0  0  0
  -27.0393  -30.2966   24.5972 C   0  0  0  0  0  0
  -27.6122  -32.4247   25.7413 C   0  0  0  0  0  0
  -27.5577  -37.1793   24.8468 C   0  0  0  0  0  0
  -21.4205  -29.3000   22.3683 N   0  0  0  0  0  0
  -26.4278  -37.3755   23.9419 N   0  0  0  0  0  0
  -24.6922  -31.0483   22.0906 N   0  0  0  0  0  0
  -23.4176  -28.8075   23.3039 O   0  0  0  0  0  0
  -28.3251  -26.3957   20.1821 O   0  0  0  0  0  0
  -26.5637  -34.8890   22.4660 O   0  0  0  0  0  0
  -23.5481  -32.1394   23.7239 O   0  0  0  0  0  0
  -27.3263  -20.6154   21.0340 C   0  0  0  0  0  0
  -26.9550  -19.3422   21.5140 C   0  0  0  0  0  0
  -27.9199  -18.2959   21.5505 C   0  0  0  0  0  0
  -28.6113  -20.8376   20.5171 C   0  0  0  0  0  0
  -29.1591  -18.4840   20.8803 C   0  0  0  0  0  0
  -27.6371  -17.0212   22.3460 C   0  0  0  0  0  0
  -30.4633  -22.5680   20.5780 C   0  0  0  0  0  0
  -23.2813  -19.2935   18.6734 C   0  0  0  0  0  0
  -22.4399  -19.7979   21.0000 C   0  0  0  0  0  0
  -25.4916  -19.1232   21.8993 C   0  0  0  0  0  0
  -30.2319  -17.3080   20.7354 C   0  0  0  0  0  0
  -24.6670  -18.6165   20.6942 C   0  0  0  0  0  0
  -28.1426  -23.6248   20.3317 C   0  0  0  0  0  0
  -28.4224  -25.0306   19.5578 C   0  0  0  0  0  0
  -29.0532  -22.2980   20.0257 C   0  0  2  0  0  0
  -23.6865  -19.6524   20.1118 C   0  0  0  0  0  0
  -29.4692  -19.7468   20.3888 N   0  0  0  0  0  0
  -29.8301  -15.8386   20.7151 N   0  0  0  0  0  0
  -31.4747  -12.5908   19.1614 H   0  0  0  0  0  0
  -30.4148  -11.4753   19.9722 H   0  0  0  0  0  0
  -29.7982  -11.6831   17.5475 H   0  0  0  0  0  0
  -29.6182  -13.4150   17.7132 H   0  0  0  0  0  0
  -27.9311  -11.2421   18.9885 H   0  0  0  0  0  0
  -27.3723  -12.4082   17.8226 H   0  0  0  0  0  0
  -27.6328  -14.2270   19.4411 H   0  0  0  0  0  0
  -28.7102  -12.1691   21.4389 H   0  0  0  0  0  0
  -28.4026  -13.8514   21.7831 H   0  0  0  0  0  0
  -25.2754   -9.5661   22.4803 H   0  0  0  0  0  0
  -23.9992   -7.4605   22.7486 H   0  0  0  0  0  0
  -21.0847   -8.8774   19.8938 H   0  0  0  0  0  0
  -22.3694  -10.9689   19.6200 H   0  0  0  0  0  0
  -21.1952   -7.6142   23.9722 H   0  0  0  0  0  0
  -21.1483   -6.0512   25.9087 H   0  0  0  0  0  0
  -22.0594   -2.7608   23.2838 H   0  0  0  0  0  0
  -22.4048  -11.9893   22.4820 H   0  0  0  0  0  0
  -21.1072  -13.1277   22.2659 H   0  0  0  0  0  0
  -24.6118  -15.8092   20.4663 H   0  0  0  0  0  0
  -26.2268  -15.6264   20.0047 H   0  0  0  0  0  0
  -26.7177  -32.5382   23.0993 H   0  0  0  0  0  0
  -25.0055  -33.9636   25.0370 H   0  0  0  0  0  0
  -22.7162  -31.2933   21.3996 H   0  0  0  0  0  0
  -23.3709  -35.9656   23.3287 H   0  0  0  0  0  0
  -24.3578  -36.8940   22.2046 H   0  0  0  0  0  0
  -23.7263  -37.6494   23.6688 H   0  0  0  0  0  0
  -26.0641  -31.4988   20.5616 H   0  0  0  0  0  0
  -26.8564  -30.8469   21.9614 H   0  0  0  0  0  0
  -28.0976  -28.8969   21.2045 H   0  0  0  0  0  0
  -25.9412  -25.8797   18.9960 H   0  0  0  0  0  0
  -23.9519  -27.3026   18.9907 H   0  0  0  0  0  0
  -23.7576  -30.5771   19.3999 H   0  0  0  0  0  0
  -22.7461  -29.2402   19.8563 H   0  0  0  0  0  0
  -25.1281  -36.1891   25.0792 H   0  0  0  0  0  0
  -20.9970  -28.3231   24.1409 H   0  0  0  0  0  0
  -20.5654  -26.2262   23.3601 H   0  0  0  0  0  0
  -21.6637  -26.7397   22.1219 H   0  0  0  0  0  0
  -19.6930  -25.6285   21.1186 H   0  0  0  0  0  0
  -19.6693  -27.3162   20.6699 H   0  0  0  0  0  0
  -17.4211  -26.6592   21.3970 H   0  0  0  0  0  0
  -18.0350  -26.0031   22.8979 H   0  0  0  0  0  0
  -19.7944  -30.7200   24.2244 H   0  0  0  0  0  0
  -17.5038  -31.6215   24.5153 H   0  0  0  0  0  0
  -15.5373  -30.2953   23.7640 H   0  0  0  0  0  0
  -15.8667  -28.0808   22.7046 H   0  0  0  0  0  0
  -24.6009  -30.6887   25.7689 H   0  0  0  0  0  0
  -24.8873  -32.2712   26.4768 H   0  0  0  0  0  0
  -25.8117  -30.8810   27.0128 H   0  0  0  0  0  0
  -26.2900  -29.6687   24.1118 H   0  0  0  0  0  0
  -27.4317  -29.7231   25.4388 H   0  0  0  0  0  0
  -27.8679  -30.4325   23.9005 H   0  0  0  0  0  0
  -27.2790  -33.3620   26.1893 H   0  0  0  0  0  0
  -28.4003  -32.6686   25.0260 H   0  0  0  0  0  0
  -28.0708  -31.8390   26.5389 H   0  0  0  0  0  0
  -28.2596  -38.0091   24.7533 H   0  0  0  0  0  0
  -28.1087  -36.2625   24.6311 H   0  0  0  0  0  0
  -27.2287  -37.1464   25.8865 H   0  0  0  0  0  0
  -20.9431  -29.8802   21.6927 H   0  0  0  0  0  0
  -26.0140  -38.2822   24.1443 H   0  0  0  0  0  0
  -26.6028  -21.4168   21.0578 H   0  0  0  0  0  0
  -26.9932  -17.1942   23.2059 H   0  0  0  0  0  0
  -28.5450  -16.6102   22.7842 H   0  0  0  0  0  0
  -27.1854  -16.2572   21.7250 H   0  0  0  0  0  0
  -31.1694  -21.7981   20.2639 H   0  0  0  0  0  0
  -30.4533  -22.5766   21.6674 H   0  0  0  0  0  0
  -30.8594  -23.5243   20.2433 H   0  0  0  0  0  0
  -22.5794  -20.0242   18.2672 H   0  0  0  0  0  0
  -22.8043  -18.3140   18.6237 H   0  0  0  0  0  0
  -24.1464  -19.2764   18.0081 H   0  0  0  0  0  0
  -21.7338  -20.5131   20.5765 H   0  0  0  0  0  0
  -22.6950  -20.1473   22.0002 H   0  0  0  0  0  0
  -21.9181  -18.8456   21.1056 H   0  0  0  0  0  0
  -25.0800  -20.0552   22.2855 H   0  0  0  0  0  0
  -25.3763  -18.4244   22.7236 H   0  0  0  0  0  0
  -30.9289  -17.4284   21.5657 H   0  0  0  0  0  0
  -30.8214  -17.5027   19.8391 H   0  0  0  0  0  0
  -24.1068  -17.7276   20.9884 H   0  0  0  0  0  0
  -25.3492  -18.2762   19.9122 H   0  0  0  0  0  0
  -27.1039  -23.3790   20.1133 H   0  0  0  0  0  0
  -28.1596  -23.8085   21.4059 H   0  0  0  0  0  0
  -27.8911  -25.0187   18.6055 H   0  0  0  0  0  0
  -29.4627  -24.9964   19.2324 H   0  0  0  0  0  0
  -29.1273  -22.2117   18.9413 H   0  0  0  0  0  0
  -24.1939  -20.6177   20.0658 H   0  0  0  0  0  0
  -28.8510  -15.6680   20.8743 H   0  0  0  0  0  0
  1 25  1  0  0  0
  1 30  2  0  0  0
  1 88  1  0  0  0
  2  3  1  0  0  0
  2 25  1  0  0  0
  2 89  1  0  0  0
  2 90  1  0  0  0
  3  4  1  0  0  0
  3 91  1  0  0  0
  3 92  1  0  0  0
  4  5  1  0  0  0
  4 93  1  0  0  0
  4 94  1  0  0  0
  5  6  1  0  0  0
  5 26  1  0  0  0
  5 95  1  0  0  0
  6 25  1  0  0  0
  6 96  1  0  0  0
  6 97  1  0  0  0
  7  8  2  0  0  0
  7 26  1  0  0  0
  7 29  1  0  0  0
  8  9  1  0  0  0
  8 22  1  0  0  0
  9 10  1  0  0  0
  9 27  2  0  0  0
 10 11  2  0  0  0
 10 15  1  0  0  0
 11 12  1  0  0  0
 11 98  1  0  0  0
 12 13  2  0  0  0
 12 99  1  0  0  0
 13 14  1  0  0  0
 13 31  1  0  0  0
 14 15  2  0  0  0
 14100  1  0  0  0
 15101  1  0  0  0
 16 17  2  0  0  0
 16 21  1  0  0  0
 16 31  1  0  0  0
 17 18  1  0  0  0
 17102  1  0  0  0
 18 19  2  0  0  0
 18103  1  0  0  0
 19 20  1  0  0  0
 19 24  1  0  0  0
 20 21  2  0  0  0
 20104  1  0  0  0
 21 23  1  0  0  0
 22 28  1  0  0  0
 22 32  2  0  0  0
 26 27  1  0  0  0
 28105  1  0  0  0
 28106  1  0  0  0
 29107  1  0  0  0
 29108  1  0  0  0
 33 34  1  0  0  0
 33 66  1  0  0  0
 33 70  2  0  0  0
 34 36  1  0  0  0
 34 59  1  0  0  0
 34109  1  0  0  0
 35 44  2  0  0  0
 35 45  1  0  0  0
 35 68  1  0  0  0
 36 56  1  0  0  0
 36110  1  0  0  0
 37 39  1  0  0  0
 37 47  1  0  0  0
 37 66  1  0  0  0
 37111  1  0  0  0
 38 43  2  0  0  0
 38 46  1  0  0  0
 38 47  1  0  0  0
 39 64  1  0  0  0
 39 67  2  0  0  0
 40 52  1  0  0  0
 40 53  2  0  0  0
 40 58  1  0  0  0
 41112  1  0  0  0
 41113  1  0  0  0
 41114  1  0  0  0
 41 48  1  0  0  0
 42 43  1  0  0  0
 42 66  1  0  0  0
 42115  1  0  0  0
 42116  1  0  0  0
 43 44  1  0  0  0
 44117  1  0  0  0
 45 46  2  0  0  0
 45118  1  0  0  0
 46119  1  0  0  0
 47120  1  0  0  0
 47121  1  0  0  0
 48 56  1  0  0  0
 48 65  1  0  0  0
 48122  1  0  0  0
 49 50  1  0  0  0
 49 53  1  0  0  0
 49 64  1  0  0  0
 49123  1  0  0  0
 50 51  1  0  0  0
 50124  1  0  0  0
 50125  1  0  0  0
 51 52  1  0  0  0
 51126  1  0  0  0
 51127  1  0  0  0
 52128  1  0  0  0
 52129  1  0  0  0
 53 54  1  0  0  0
 54 55  2  0  0  0
 54130  1  0  0  0
 55 57  1  0  0  0
 55131  1  0  0  0
 56 69  2  0  0  0
 57 58  2  0  0  0
 57132  1  0  0  0
 58133  1  0  0  0
 59 60  1  0  0  0
 59 61  1  0  0  0
 59 62  1  0  0  0
 60134  1  0  0  0
 60135  1  0  0  0
 60136  1  0  0  0
 61137  1  0  0  0
 61138  1  0  0  0
 61139  1  0  0  0
 62140  1  0  0  0
 62141  1  0  0  0
 62142  1  0  0  0
 63 65  1  0  0  0
 63143  1  0  0  0
 63144  1  0  0  0
 63145  1  0  0  0
 64146  1  0  0  0
 65147  1  0  0  0
 68 84  1  0  0  0
 71 72  2  0  0  0
 71 74  1  0  0  0
 71148  1  0  0  0
 72 73  1  0  0  0
 72 80  1  0  0  0
 73 75  2  0  0  0
 73 76  1  0  0  0
 74 85  1  0  0  0
 74 87  2  0  0  0
 75 81  1  0  0  0
 75 87  1  0  0  0
 76149  1  0  0  0
 76150  1  0  0  0
 76151  1  0  0  0
 77152  1  0  0  0
 77153  1  0  0  0
 77154  1  0  0  0
 77 85  1  0  0  0
 78155  1  0  0  0
 78156  1  0  0  0
 78157  1  0  0  0
 78 86  1  0  0  0
 79 86  1  0  0  0
 79158  1  0  0  0
 79159  1  0  0  0
 79160  1  0  0  0
 80 82  1  0  0  0
 80161  1  0  0  0
 80162  1  0  0  0
 81 88  1  0  0  0
 81163  1  0  0  0
 81164  1  0  0  0
 82 86  1  0  0  0
 82165  1  0  0  0
 82166  1  0  0  0
 83 84  1  0  0  0
 83 85  1  0  0  0
 83167  1  0  0  0
 83168  1  0  0  0
 84169  1  0  0  0
 84170  1  0  0  0
 85171  1  0  0  0
 86172  1  0  0  0
 88173  1  0  0  0
M  ISO  4   1 100  68 101  84 101  88 100
M  END
> <chiral flag>
0

> <version>
0

> <s_m_source_file>
/data/baiqing/PycharmProjects/Reinvent-master-3.2/result/LINK_invent/BTK/process_docking_weight1_custom_sum_contain_oxygen_bond_distance_aromatic_linkinvent_7_9_3/rearranged_h_0097.sdf

> <i_m_source_file_index>
15

> <r_mmod_Potential_Energy-OPLS-2005>
-98.3919219970703

> <r_mmod_Stretch_Energy-OPLS-2005>
127.022148132324

> <r_mmod_Bend_Energy-OPLS-2005>
182.63005065918

> <r_mmod_Torsional_Energy-OPLS-2005>
229.746795654297

> <r_mmod_Improper_Torsional_Energy-OPLS-2005>
4.74944877624512

> <r_mmod_Van_der_Waal_Energy-OPLS-2005>
138.135452270508

> <r_mmod_Electrostatic_Energy-OPLS-2005>
-656.255187988281

> <r_mmod_Solvation_Energy-OPLS-2005>
-208.30158996582

> <b_mmod_Minimization_Converged-OPLS-2005>
0

> <r_mmod_RMS_Derivative-OPLS-2005>
3.67746305465698

$$$$
15
                    3D
 Structure written by MMmdl.
155162  0  0  1  0            999 V2000
  -30.3216  -15.5561   20.3249 C   0  0  0  0  0  0
  -30.4237  -13.0209   19.5393 C   0  0  0  0  0  0
  -29.5464  -12.6417   18.3153 C   0  0  0  0  0  0
  -28.1154  -12.2978   18.7565 C   0  0  0  0  0  0
  -27.5957  -13.2994   19.8142 C   0  0  2  0  0  0
  -28.6140  -13.6015   20.9366 C   0  0  0  0  0  0
  -25.2314  -13.8267   20.5781 C   0  0  0  0  0  0
  -24.1696  -13.0426   20.9280 C   0  0  0  0  0  0
  -24.6387  -11.6934   20.8757 C   0  0  0  0  0  0
  -23.9083  -10.4288   21.0388 C   0  0  0  0  0  0
  -24.3621   -9.4204   21.9172 C   0  0  0  0  0  0
  -23.6293   -8.2242   22.0749 C   0  0  0  0  0  0
  -22.4274   -8.0277   21.3544 C   0  0  0  0  0  0
  -21.9914   -9.0246   20.4641 C   0  0  0  0  0  0
  -22.7246  -10.2122   20.3043 C   0  0  0  0  0  0
  -21.6859   -6.0720   22.5273 C   0  0  0  0  0  0
  -21.4028   -6.5630   23.8208 C   0  0  0  0  0  0
  -21.3658   -5.6778   24.9173 C   0  0  0  0  0  0
  -21.6044   -4.3043   24.7224 C   0  0  0  0  0  0
  -21.8814   -3.8133   23.4348 C   0  0  0  0  0  0
  -21.9194   -4.6952   22.3411 C   0  0  0  0  0  0
  -22.7708  -13.5167   21.1916 C   0  0  0  0  0  0
  -22.1660   -4.2135   21.0981 F   0  0  0  0  0  0
  -21.5619   -3.4533   25.7737 F   0  0  0  0  0  0
  -29.7993  -14.1994   20.2850 N   0  0  0  0  0  0
  -26.2750  -12.9580   20.3215 N   0  0  0  0  0  0
  -25.9332  -11.6658   20.5690 N   0  0  0  0  0  0
  -22.0370  -12.8167   22.0480 N   0  0  0  0  0  0
  -25.3904  -15.2004   20.4214 N   0  0  0  0  0  0
  -31.5542  -15.5100   20.1556 O   0  0  0  0  0  0
  -21.6640   -6.8874   21.4239 O   0  0  0  0  0  0
  -22.3402  -14.5467   20.6742 O   0  0  0  0  0  0
  -24.6820  -31.8030   23.1524 C   0  0  0  0  0  0
  -25.9414  -32.4477   23.8058 C   0  0  1  0  0  0
  -27.2145  -26.7347   20.2012 C   0  0  0  0  0  0
  -25.6015  -33.8295   24.1942 N   0  0  0  0  0  0
  -23.5057  -30.4050   21.5085 C   0  0  2  0  0  0
  -24.9576  -28.7561   20.1131 C   0  0  0  0  0  0
  -22.7764  -29.4311   22.4721 C   0  0  0  0  0  0
  -18.0333  -28.1409   22.8442 C   0  0  0  0  0  0
  -24.1504  -36.7164   23.2651 C   0  0  0  0  0  0
  -26.0840  -30.5452   21.4120 C   0  0  0  0  0  0
  -26.1468  -29.1150   20.7583 C   0  0  0  0  0  0
  -27.2641  -28.1317   20.7695 C   0  0  0  0  0  0
  -25.9896  -26.5738   19.5070 C   0  0  0  0  0  0
  -24.9153  -27.5111   19.4634 C   0  0  0  0  0  0
  -23.7567  -29.7113   20.1387 C   0  0  0  0  0  0
  -25.4145  -36.2891   24.0278 C   0  0  1  0  0  0
  -20.5976  -28.3760   23.1159 C   0  0  2  0  0  0
  -20.6814  -26.9422   22.5409 C   0  0  0  0  0  0
  -19.5790  -26.6359   21.5219 C   0  0  0  0  0  0
  -18.1958  -26.7943   22.1606 C   0  0  0  0  0  0
  -19.1606  -28.8906   23.2778 C   0  0  0  0  0  0
  -18.9519  -30.1496   23.8807 C   0  0  0  0  0  0
  -17.6514  -30.6598   24.0536 C   0  0  0  0  0  0
  -25.9123  -34.9292   23.4944 C   0  0  0  0  0  0
  -16.5396  -29.9076   23.6344 C   0  0  0  0  0  0
  -16.7324  -28.6505   23.0352 C   0  0  0  0  0  0
  -26.4584  -31.6508   25.0683 C   0  0  0  0  0  0
  -25.3638  -31.3838   26.1286 C   0  0  0  0  0  0
  -27.0493  -30.2838   24.6579 C   0  0  0  0  0  0
  -27.6020  -32.4393   25.7492 C   0  0  0  0  0  0
  -27.5564  -37.1730   24.8458 C   0  0  0  0  0  0
  -21.4414  -29.3024   22.3498 N   0  0  0  0  0  0
  -26.4264  -37.3657   23.9411 N   0  0  0  0  0  0
  -24.7805  -30.9507   22.0771 N   0  0  0  0  0  0
  -23.4215  -28.7880   23.3036 O   0  0  0  0  0  0
  -28.1885  -25.5374   20.2536 O   0  0  0  0  0  0
  -26.5757  -34.8879   22.4557 O   0  0  0  0  0  0
  -23.5841  -32.1092   23.6498 O   0  0  0  0  0  0
  -28.1755  -20.0183   17.7680 C   0  0  0  0  0  0
  -28.7936  -20.3671   22.9058 C   0  0  0  0  0  0
  -27.6356  -19.9793   19.2055 C   0  0  0  0  0  0
  -27.9435  -20.0770   21.6587 C   0  0  0  0  0  0
  -28.9564  -22.1506   20.2087 C   0  0  0  0  0  0
  -29.7648  -18.6470   20.2648 C   0  0  0  0  0  0
  -27.9701  -23.8051   20.1998 C   0  0  0  0  0  0
  -28.6874  -20.2415   20.3125 C   0  0  0  0  0  0
  -29.5553  -16.8995   20.3650 N   0  0  0  0  0  0
  -31.4256  -13.2688   19.1880 H   0  0  0  0  0  0
  -30.5574  -12.1646   20.2017 H   0  0  0  0  0  0
  -29.9883  -11.8064   17.7697 H   0  0  0  0  0  0
  -29.5182  -13.4831   17.6202 H   0  0  0  0  0  0
  -28.1341  -11.2954   19.1860 H   0  0  0  0  0  0
  -27.4438  -12.2557   17.8975 H   0  0  0  0  0  0
  -27.4677  -14.2305   19.2590 H   0  0  0  0  0  0
  -28.8541  -12.7101   21.5172 H   0  0  0  0  0  0
  -28.1955  -14.3237   21.6390 H   0  0  0  0  0  0
  -25.2760   -9.5683   22.4759 H   0  0  0  0  0  0
  -23.9987   -7.4640   22.7478 H   0  0  0  0  0  0
  -21.0839   -8.8775   19.8952 H   0  0  0  0  0  0
  -22.3701  -10.9661   19.6155 H   0  0  0  0  0  0
  -21.2038   -7.6138   23.9719 H   0  0  0  0  0  0
  -21.1477   -6.0508   25.9074 H   0  0  0  0  0  0
  -22.0596   -2.7599   23.2857 H   0  0  0  0  0  0
  -22.4009  -11.9858   22.4894 H   0  0  0  0  0  0
  -21.0980  -13.1178   22.2656 H   0  0  0  0  0  0
  -24.6128  -15.8436   20.5251 H   0  0  0  0  0  0
  -26.2244  -15.6433   20.0613 H   0  0  0  0  0  0
  -26.7491  -32.4935   23.0766 H   0  0  0  0  0  0
  -25.0119  -33.9345   25.0064 H   0  0  0  0  0  0
  -22.8293  -31.2412   21.3228 H   0  0  0  0  0  0
  -23.3782  -35.9476   23.3251 H   0  0  0  0  0  0
  -24.3577  -36.8900   22.2078 H   0  0  0  0  0  0
  -23.7256  -37.6327   23.6785 H   0  0  0  0  0  0
  -26.2850  -31.2764   20.6281 H   0  0  0  0  0  0
  -26.9361  -30.6046   22.0761 H   0  0  0  0  0  0
  -28.1623  -28.4116   21.3014 H   0  0  0  0  0  0
  -25.8218  -25.6300   19.0093 H   0  0  0  0  0  0
  -24.0173  -27.2285   18.9335 H   0  0  0  0  0  0
  -23.9333  -30.4781   19.3831 H   0  0  0  0  0  0
  -22.8609  -29.1815   19.8107 H   0  0  0  0  0  0
  -25.1347  -36.1645   25.0767 H   0  0  0  0  0  0
  -21.0034  -28.3380   24.1303 H   0  0  0  0  0  0
  -20.5706  -26.2372   23.3670 H   0  0  0  0  0  0
  -21.6671  -26.7393   22.1211 H   0  0  0  0  0  0
  -19.6966  -25.6249   21.1311 H   0  0  0  0  0  0
  -19.6759  -27.3114   20.6705 H   0  0  0  0  0  0
  -17.4255  -26.6710   21.3984 H   0  0  0  0  0  0
  -18.0301  -26.0089   22.8993 H   0  0  0  0  0  0
  -19.8001  -30.7323   24.2145 H   0  0  0  0  0  0
  -17.5068  -31.6272   24.5154 H   0  0  0  0  0  0
  -15.5392  -30.2943   23.7740 H   0  0  0  0  0  0
  -15.8723  -28.0809   22.7093 H   0  0  0  0  0  0
  -24.5880  -30.7124   25.7593 H   0  0  0  0  0  0
  -24.8745  -32.3057   26.4448 H   0  0  0  0  0  0
  -25.7778  -30.9195   27.0238 H   0  0  0  0  0  0
  -26.3185  -29.6450   24.1605 H   0  0  0  0  0  0
  -27.3947  -29.7303   25.5316 H   0  0  0  0  0  0
  -27.9165  -30.3938   24.0056 H   0  0  0  0  0  0
  -27.2563  -33.3808   26.1775 H   0  0  0  0  0  0
  -28.3950  -32.6775   25.0392 H   0  0  0  0  0  0
  -28.0552  -31.8732   26.5645 H   0  0  0  0  0  0
  -28.2508  -38.0086   24.7514 H   0  0  0  0  0  0
  -28.1129  -36.2607   24.6257 H   0  0  0  0  0  0
  -27.2292  -37.1321   25.8863 H   0  0  0  0  0  0
  -20.9717  -29.8732   21.6612 H   0  0  0  0  0  0
  -26.0092  -38.2702   24.1459 H   0  0  0  0  0  0
  -27.3658  -19.8681   17.0519 H   0  0  0  0  0  0
  -28.9085  -19.2327   17.5904 H   0  0  0  0  0  0
  -28.6391  -20.9760   17.5345 H   0  0  0  0  0  0
  -28.2220  -20.1585   23.8107 H   0  0  0  0  0  0
  -29.1002  -21.4117   22.9570 H   0  0  0  0  0  0
  -29.6909  -19.7510   22.9450 H   0  0  0  0  0  0
  -27.1588  -19.0095   19.3658 H   0  0  0  0  0  0
  -26.8287  -20.7096   19.2856 H   0  0  0  0  0  0
  -27.0667  -20.7267   21.6817 H   0  0  0  0  0  0
  -27.5557  -19.0593   21.7335 H   0  0  0  0  0  0
  -29.7023  -22.3319   20.9818 H   0  0  0  0  0  0
  -29.5437  -22.2480   19.2964 H   0  0  0  0  0  0
  -30.5175  -18.8149   21.0330 H   0  0  0  0  0  0
  -30.3470  -18.7461   19.3483 H   0  0  0  0  0  0
  -27.2677  -23.6625   21.0210 H   0  0  0  0  0  0
  -27.3481  -23.6949   19.3116 H   0  0  0  0  0  0
  -28.5728  -16.6903   20.4662 H   0  0  0  0  0  0
  1 25  1  0  0  0
  1 30  2  0  0  0
  1 79  1  0  0  0
  2  3  1  0  0  0
  2 25  1  0  0  0
  2 80  1  0  0  0
  2 81  1  0  0  0
  3  4  1  0  0  0
  3 82  1  0  0  0
  3 83  1  0  0  0
  4  5  1  0  0  0
  4 84  1  0  0  0
  4 85  1  0  0  0
  5  6  1  0  0  0
  5 26  1  0  0  0
  5 86  1  0  0  0
  6 25  1  0  0  0
  6 87  1  0  0  0
  6 88  1  0  0  0
  7  8  2  0  0  0
  7 26  1  0  0  0
  7 29  1  0  0  0
  8  9  1  0  0  0
  8 22  1  0  0  0
  9 10  1  0  0  0
  9 27  2  0  0  0
 10 11  2  0  0  0
 10 15  1  0  0  0
 11 12  1  0  0  0
 11 89  1  0  0  0
 12 13  2  0  0  0
 12 90  1  0  0  0
 13 14  1  0  0  0
 13 31  1  0  0  0
 14 15  2  0  0  0
 14 91  1  0  0  0
 15 92  1  0  0  0
 16 17  2  0  0  0
 16 21  1  0  0  0
 16 31  1  0  0  0
 17 18  1  0  0  0
 17 93  1  0  0  0
 18 19  2  0  0  0
 18 94  1  0  0  0
 19 20  1  0  0  0
 19 24  1  0  0  0
 20 21  2  0  0  0
 20 95  1  0  0  0
 21 23  1  0  0  0
 22 28  1  0  0  0
 22 32  2  0  0  0
 26 27  1  0  0  0
 28 96  1  0  0  0
 28 97  1  0  0  0
 29 98  1  0  0  0
 29 99  1  0  0  0
 33 34  1  0  0  0
 33 66  1  0  0  0
 33 70  2  0  0  0
 34 36  1  0  0  0
 34 59  1  0  0  0
 34100  1  0  0  0
 35 44  2  0  0  0
 35 45  1  0  0  0
 35 68  1  0  0  0
 36 56  1  0  0  0
 36101  1  0  0  0
 37 39  1  0  0  0
 37 47  1  0  0  0
 37 66  1  0  0  0
 37102  1  0  0  0
 38 43  2  0  0  0
 38 46  1  0  0  0
 38 47  1  0  0  0
 39 64  1  0  0  0
 39 67  2  0  0  0
 40 52  1  0  0  0
 40 53  2  0  0  0
 40 58  1  0  0  0
 41103  1  0  0  0
 41104  1  0  0  0
 41105  1  0  0  0
 41 48  1  0  0  0
 42 43  1  0  0  0
 42 66  1  0  0  0
 42106  1  0  0  0
 42107  1  0  0  0
 43 44  1  0  0  0
 44108  1  0  0  0
 45 46  2  0  0  0
 45109  1  0  0  0
 46110  1  0  0  0
 47111  1  0  0  0
 47112  1  0  0  0
 48 56  1  0  0  0
 48 65  1  0  0  0
 48113  1  0  0  0
 49 50  1  0  0  0
 49 53  1  0  0  0
 49 64  1  0  0  0
 49114  1  0  0  0
 50 51  1  0  0  0
 50115  1  0  0  0
 50116  1  0  0  0
 51 52  1  0  0  0
 51117  1  0  0  0
 51118  1  0  0  0
 52119  1  0  0  0
 52120  1  0  0  0
 53 54  1  0  0  0
 54 55  2  0  0  0
 54121  1  0  0  0
 55 57  1  0  0  0
 55122  1  0  0  0
 56 69  2  0  0  0
 57 58  2  0  0  0
 57123  1  0  0  0
 58124  1  0  0  0
 59 60  1  0  0  0
 59 61  1  0  0  0
 59 62  1  0  0  0
 60125  1  0  0  0
 60126  1  0  0  0
 60127  1  0  0  0
 61128  1  0  0  0
 61129  1  0  0  0
 61130  1  0  0  0
 62131  1  0  0  0
 62132  1  0  0  0
 62133  1  0  0  0
 63 65  1  0  0  0
 63134  1  0  0  0
 63135  1  0  0  0
 63136  1  0  0  0
 64137  1  0  0  0
 65138  1  0  0  0
 68 77  1  0  0  0
 71 73  1  0  0  0
 71139  1  0  0  0
 71140  1  0  0  0
 71141  1  0  0  0
 72 74  1  0  0  0
 72142  1  0  0  0
 72143  1  0  0  0
 72144  1  0  0  0
 73145  1  0  0  0
 73146  1  0  0  0
 73 78  1  0  0  0
 74 78  1  0  0  0
 74147  1  0  0  0
 74148  1  0  0  0
 75 77  1  0  0  0
 75 78  1  0  0  0
 75149  1  0  0  0
 75150  1  0  0  0
 76 78  1  0  0  0
 76 79  1  0  0  0
 76151  1  0  0  0
 76152  1  0  0  0
 77153  1  0  0  0
 77154  1  0  0  0
 79155  1  0  0  0
M  ISO  4   1 100  68 101  77 101  79 100
M  END
> <chiral flag>
0

> <version>
0

> <s_m_source_file>
/data/baiqing/PycharmProjects/Reinvent-master-3.2/result/LINK_invent/BTK/process_docking_weight1_custom_sum_contain_oxygen_bond_distance_aromatic_linkinvent_7_9_3/rearranged_h_0097.sdf

> <i_m_source_file_index>
16

> <r_mmod_Potential_Energy-OPLS-2005>
2274.3681640625

> <r_mmod_Stretch_Energy-OPLS-2005>
1099.63500976562

> <r_mmod_Bend_Energy-OPLS-2005>
606.711486816406

> <r_mmod_Torsional_Energy-OPLS-2005>
237.285171508789

> <r_mmod_Improper_Torsional_Energy-OPLS-2005>
3.7142813205719

> <r_mmod_Van_der_Waal_Energy-OPLS-2005>
106.418754577637

> <r_mmod_Electrostatic_Energy-OPLS-2005>
-382.580261230469

> <r_mmod_Solvation_Energy-OPLS-2005>
-204.089920043945

> <b_mmod_Minimization_Converged-OPLS-2005>
0

> <r_mmod_RMS_Derivative-OPLS-2005>
2.4964644908905

$$$$
16
                    3D
 Structure written by MMmdl.
173180  0  0  1  0            999 V2000
  -30.5824  -14.5510   20.5535 C   0  0  0  0  0  0
  -30.4353  -12.3487   19.4217 C   0  0  0  0  0  0
  -29.4912  -12.5071   18.2081 C   0  0  0  0  0  0
  -28.0096  -12.3488   18.6179 C   0  0  0  0  0  0
  -27.6462  -13.1869   19.8705 C   0  0  2  0  0  0
  -28.6910  -12.9568   20.9897 C   0  0  0  0  0  0
  -25.2536  -13.8074   20.5685 C   0  0  0  0  0  0
  -24.1766  -13.0418   20.9208 C   0  0  0  0  0  0
  -24.6289  -11.6874   20.8788 C   0  0  0  0  0  0
  -23.8986  -10.4308   21.0504 C   0  0  0  0  0  0
  -24.3592   -9.4239   21.9228 C   0  0  0  0  0  0
  -23.6317   -8.2237   22.0735 C   0  0  0  0  0  0
  -22.4278   -8.0275   21.3573 C   0  0  0  0  0  0
  -21.9857   -9.0297   20.4762 C   0  0  0  0  0  0
  -22.7122  -10.2206   20.3216 C   0  0  0  0  0  0
  -21.6889   -6.0730   22.5256 C   0  0  0  0  0  0
  -21.4042   -6.5702   23.8167 C   0  0  0  0  0  0
  -21.3688   -5.6901   24.9188 C   0  0  0  0  0  0
  -21.6037   -4.3149   24.7279 C   0  0  0  0  0  0
  -21.8802   -3.8187   23.4427 C   0  0  0  0  0  0
  -21.9222   -4.6953   22.3433 C   0  0  0  0  0  0
  -22.7829  -13.5276   21.1893 C   0  0  0  0  0  0
  -22.1644   -4.2100   21.1018 F   0  0  0  0  0  0
  -21.5621   -3.4650   25.7817 F   0  0  0  0  0  0
  -30.0086  -13.3203   20.4392 N   0  0  0  0  0  0
  -26.2901  -12.9197   20.3334 N   0  0  0  0  0  0
  -25.9183  -11.6405   20.5770 N   0  0  0  0  0  0
  -22.0451  -12.8257   22.0428 N   0  0  0  0  0  0
  -25.4349  -15.1729   20.4082 N   0  0  0  0  0  0
  -31.7280  -14.7961   20.1646 O   0  0  0  0  0  0
  -21.6702   -6.8816   21.4203 O   0  0  0  0  0  0
  -22.3535  -14.5584   20.6785 O   0  0  0  0  0  0
  -24.6198  -31.8598   23.2029 C   0  0  0  0  0  0
  -25.9053  -32.4761   23.8351 C   0  0  1  0  0  0
  -27.2427  -27.3967   20.1053 C   0  0  0  0  0  0
  -25.5882  -33.8553   24.2276 N   0  0  0  0  0  0
  -23.4139  -30.4786   21.5477 C   0  0  2  0  0  0
  -24.8634  -28.9300   20.1228 C   0  0  0  0  0  0
  -22.7450  -29.4586   22.4993 C   0  0  0  0  0  0
  -18.0251  -28.1396   22.8433 C   0  0  0  0  0  0
  -24.1480  -36.7283   23.2626 C   0  0  0  0  0  0
  -25.9469  -30.8129   21.3614 C   0  0  0  0  0  0
  -26.0260  -29.4431   20.7095 C   0  0  0  0  0  0
  -27.2253  -28.6850   20.6929 C   0  0  0  0  0  0
  -26.0619  -26.9023   19.5153 C   0  0  0  0  0  0
  -24.8729  -27.6588   19.5220 C   0  0  0  0  0  0
  -23.6278  -29.8043   20.1688 C   0  0  0  0  0  0
  -25.4095  -36.3067   24.0334 C   0  0  1  0  0  0
  -20.5853  -28.3676   23.1297 C   0  0  2  0  0  0
  -20.6763  -26.9406   22.5423 C   0  0  0  0  0  0
  -19.5756  -26.6384   21.5203 C   0  0  0  0  0  0
  -18.1913  -26.7947   22.1584 C   0  0  0  0  0  0
  -19.1500  -28.8842   23.2857 C   0  0  0  0  0  0
  -18.9435  -30.1438   23.8899 C   0  0  0  0  0  0
  -17.6436  -30.6594   24.0544 C   0  0  0  0  0  0
  -25.9026  -34.9432   23.5101 C   0  0  0  0  0  0
  -16.5320  -29.9101   23.6307 C   0  0  0  0  0  0
  -16.7238  -28.6514   23.0323 C   0  0  0  0  0  0
  -26.4479  -31.6561   25.0687 C   0  0  0  0  0  0
  -25.3747  -31.3701   26.1434 C   0  0  0  0  0  0
  -27.0296  -30.3005   24.6068 C   0  0  0  0  0  0
  -27.6062  -32.4279   25.7443 C   0  0  0  0  0  0
  -27.5579  -37.1773   24.8454 C   0  0  0  0  0  0
  -21.4168  -29.3011   22.3710 N   0  0  0  0  0  0
  -26.4263  -37.3777   23.9414 N   0  0  0  0  0  0
  -24.6803  -31.0632   22.0973 N   0  0  0  0  0  0
  -23.4182  -28.8133   23.3079 O   0  0  0  0  0  0
  -28.3989  -26.6372   20.0604 O   0  0  0  0  0  0
  -26.5600  -34.8904   22.4675 O   0  0  0  0  0  0
  -23.5366  -32.1320   23.7377 O   0  0  0  0  0  0
  -23.4732  -17.8966   21.9170 C   0  0  0  0  0  0
  -26.8352  -21.9433   21.0362 C   0  0  0  0  0  0
  -28.5589  -21.1007   22.6360 C   0  0  0  0  0  0
  -24.3434  -18.4877   20.7940 C   0  0  0  0  0  0
  -25.8416  -18.4568   21.1570 C   0  0  0  0  0  0
  -28.6976  -24.0857   20.0827 C   0  0  0  0  0  0
  -29.1853  -22.8766   20.9759 C   0  0  0  0  0  0
  -29.7878  -16.9857   21.1267 C   0  0  0  0  0  0
  -26.7932  -18.8964   20.0205 C   0  0  0  0  0  0
  -29.0620  -17.8232   20.0051 C   0  0  0  0  0  0
  -28.8126  -20.3732   20.2340 C   0  0  0  0  0  0
  -28.4306  -25.4280   20.8609 C   0  0  0  0  0  0
  -28.3277  -21.5637   21.1775 C   0  0  0  0  0  0
  -29.7089  -15.5083   20.9594 N   0  0  0  0  0  0
  -28.2187  -19.0025   20.4761 N   0  3  1  0  0  0
  -31.4710  -12.5123   19.1173 H   0  0  0  0  0  0
  -30.3938  -11.3348   19.8196 H   0  0  0  0  0  0
  -29.7358  -11.7732   17.4396 H   0  0  0  0  0  0
  -29.6500  -13.4906   17.7608 H   0  0  0  0  0  0
  -27.8267  -11.2928   18.8192 H   0  0  0  0  0  0
  -27.3531  -12.6087   17.7872 H   0  0  0  0  0  0
  -27.6855  -14.2311   19.5566 H   0  0  0  0  0  0
  -28.6929  -11.9110   21.3000 H   0  0  0  0  0  0
  -28.4391  -13.5205   21.8889 H   0  0  0  0  0  0
  -25.2723   -9.5785   22.4830 H   0  0  0  0  0  0
  -24.0136   -7.4630   22.7397 H   0  0  0  0  0  0
  -21.0746   -8.8856   19.9121 H   0  0  0  0  0  0
  -22.3516  -10.9874   19.6493 H   0  0  0  0  0  0
  -21.1998   -7.6225   23.9577 H   0  0  0  0  0  0
  -21.1534   -6.0747   25.9045 H   0  0  0  0  0  0
  -22.0512   -2.7609   23.3035 H   0  0  0  0  0  0
  -22.3961  -11.9765   22.4611 H   0  0  0  0  0  0
  -21.1214  -13.1537   22.2865 H   0  0  0  0  0  0
  -26.2872  -15.5761   20.0494 H   0  0  0  0  0  0
  -24.6806  -15.8367   20.5322 H   0  0  0  0  0  0
  -26.7126  -32.5492   23.1122 H   0  0  0  0  0  0
  -25.0072  -33.9723   25.0456 H   0  0  0  0  0  0
  -22.7089  -31.2988   21.4026 H   0  0  0  0  0  0
  -23.3731  -35.9631   23.3281 H   0  0  0  0  0  0
  -24.3589  -36.8885   22.2040 H   0  0  0  0  0  0
  -23.7235  -37.6480   23.6670 H   0  0  0  0  0  0
  -26.0585  -31.5744   20.5876 H   0  0  0  0  0  0
  -26.8387  -30.8709   21.9726 H   0  0  0  0  0  0
  -28.1320  -29.0776   21.1364 H   0  0  0  0  0  0
  -26.0642  -25.9305   19.0423 H   0  0  0  0  0  0
  -23.9803  -27.2551   19.0671 H   0  0  0  0  0  0
  -23.7518  -30.5766   19.4093 H   0  0  0  0  0  0
  -22.7539  -29.2267   19.8672 H   0  0  0  0  0  0
  -25.1274  -36.1918   25.0829 H   0  0  0  0  0  0
  -20.9874  -28.3252   24.1450 H   0  0  0  0  0  0
  -20.5619  -26.2286   23.3623 H   0  0  0  0  0  0
  -21.6647  -26.7459   22.1236 H   0  0  0  0  0  0
  -19.6932  -25.6294   21.1220 H   0  0  0  0  0  0
  -19.6724  -27.3215   20.6761 H   0  0  0  0  0  0
  -17.4194  -26.6610   21.3997 H   0  0  0  0  0  0
  -18.0330  -26.0159   22.9042 H   0  0  0  0  0  0
  -19.7910  -30.7208   24.2335 H   0  0  0  0  0  0
  -17.5009  -31.6293   24.5122 H   0  0  0  0  0  0
  -15.5318  -30.3001   23.7674 H   0  0  0  0  0  0
  -15.8638  -28.0848   22.7055 H   0  0  0  0  0  0
  -24.5927  -30.7039   25.7765 H   0  0  0  0  0  0
  -24.8921  -32.2869   26.4841 H   0  0  0  0  0  0
  -25.8077  -30.8885   27.0211 H   0  0  0  0  0  0
  -26.2853  -29.6777   24.1073 H   0  0  0  0  0  0
  -27.4038  -29.7224   25.4521 H   0  0  0  0  0  0
  -27.8725  -30.4314   23.9274 H   0  0  0  0  0  0
  -27.2725  -33.3589   26.2061 H   0  0  0  0  0  0
  -28.3887  -32.6798   25.0268 H   0  0  0  0  0  0
  -28.0757  -31.8365   26.5309 H   0  0  0  0  0  0
  -28.2557  -38.0100   24.7534 H   0  0  0  0  0  0
  -28.1124  -36.2626   24.6265 H   0  0  0  0  0  0
  -27.2326  -37.1401   25.8864 H   0  0  0  0  0  0
  -20.9364  -29.8716   21.6893 H   0  0  0  0  0  0
  -26.0132  -38.2838   24.1462 H   0  0  0  0  0  0
  -22.4117  -17.9117   21.6628 H   0  0  0  0  0  0
  -23.5947  -18.4437   22.8538 H   0  0  0  0  0  0
  -23.7377  -16.8546   22.1130 H   0  0  0  0  0  0
  -26.6223  -22.8816   21.5548 H   0  0  0  0  0  0
  -26.1689  -21.2182   21.4944 H   0  0  0  0  0  0
  -26.5403  -22.0616   19.9910 H   0  0  0  0  0  0
  -28.2314  -21.8520   23.3550 H   0  0  0  0  0  0
  -29.6153  -20.9020   22.8343 H   0  0  0  0  0  0
  -28.0044  -20.1937   22.8792 H   0  0  0  0  0  0
  -24.0264  -19.5171   20.6106 H   0  0  0  0  0  0
  -24.1590  -17.9510   19.8619 H   0  0  0  0  0  0
  -26.1099  -17.4559   21.4846 H   0  0  0  0  0  0
  -25.9825  -19.0828   22.0347 H   0  0  0  0  0  0
  -27.8433  -23.8258   19.4590 H   0  0  0  0  0  0
  -29.5076  -24.2884   19.3786 H   0  0  0  0  0  0
  -29.3991  -23.2928   21.9599 H   0  0  0  0  0  0
  -30.1737  -22.5851   20.6187 H   0  0  0  0  0  0
  -30.8373  -17.2815   21.1966 H   0  0  0  0  0  0
  -29.3543  -17.2205   22.0997 H   0  0  0  0  0  0
  -26.4519  -19.8462   19.6156 H   0  0  0  0  0  0
  -26.6910  -18.2127   19.1783 H   0  0  0  0  0  0
  -28.4767  -17.1413   19.3857 H   0  0  0  0  0  0
  -29.8251  -18.1943   19.3193 H   0  0  0  0  0  0
  -29.8891  -20.2761   20.3959 H   0  0  0  0  0  0
  -28.6967  -20.6434   19.1849 H   0  0  0  0  0  0
  -29.2504  -25.5791   21.5616 H   0  0  0  0  0  0
  -27.5416  -25.3410   21.4878 H   0  0  0  0  0  0
  -28.8122  -15.1171   21.2167 H   0  0  0  0  0  0
  -28.1768  -18.9212   21.4804 H   0  0  0  0  0  0
  1 25  1  0  0  0
  1 30  2  0  0  0
  1 84  1  0  0  0
  2  3  1  0  0  0
  2 25  1  0  0  0
  2 86  1  0  0  0
  2 87  1  0  0  0
  3  4  1  0  0  0
  3 88  1  0  0  0
  3 89  1  0  0  0
  4  5  1  0  0  0
  4 90  1  0  0  0
  4 91  1  0  0  0
  5  6  1  0  0  0
  5 26  1  0  0  0
  5 92  1  0  0  0
  6 25  1  0  0  0
  6 93  1  0  0  0
  6 94  1  0  0  0
  7  8  2  0  0  0
  7 26  1  0  0  0
  7 29  1  0  0  0
  8  9  1  0  0  0
  8 22  1  0  0  0
  9 10  1  0  0  0
  9 27  2  0  0  0
 10 11  2  0  0  0
 10 15  1  0  0  0
 11 12  1  0  0  0
 11 95  1  0  0  0
 12 13  2  0  0  0
 12 96  1  0  0  0
 13 14  1  0  0  0
 13 31  1  0  0  0
 14 15  2  0  0  0
 14 97  1  0  0  0
 15 98  1  0  0  0
 16 17  2  0  0  0
 16 21  1  0  0  0
 16 31  1  0  0  0
 17 18  1  0  0  0
 17 99  1  0  0  0
 18 19  2  0  0  0
 18100  1  0  0  0
 19 20  1  0  0  0
 19 24  1  0  0  0
 20 21  2  0  0  0
 20101  1  0  0  0
 21 23  1  0  0  0
 22 28  1  0  0  0
 22 32  2  0  0  0
 26 27  1  0  0  0
 28102  1  0  0  0
 28103  1  0  0  0
 29104  1  0  0  0
 29105  1  0  0  0
 33 34  1  0  0  0
 33 66  1  0  0  0
 33 70  2  0  0  0
 34 36  1  0  0  0
 34 59  1  0  0  0
 34106  1  0  0  0
 35 44  2  0  0  0
 35 45  1  0  0  0
 35 68  1  0  0  0
 36 56  1  0  0  0
 36107  1  0  0  0
 37 39  1  0  0  0
 37 47  1  0  0  0
 37 66  1  0  0  0
 37108  1  0  0  0
 38 43  2  0  0  0
 38 46  1  0  0  0
 38 47  1  0  0  0
 39 64  1  0  0  0
 39 67  2  0  0  0
 40 52  1  0  0  0
 40 53  2  0  0  0
 40 58  1  0  0  0
 41109  1  0  0  0
 41110  1  0  0  0
 41111  1  0  0  0
 41 48  1  0  0  0
 42 43  1  0  0  0
 42 66  1  0  0  0
 42112  1  0  0  0
 42113  1  0  0  0
 43 44  1  0  0  0
 44114  1  0  0  0
 45 46  2  0  0  0
 45115  1  0  0  0
 46116  1  0  0  0
 47117  1  0  0  0
 47118  1  0  0  0
 48 56  1  0  0  0
 48 65  1  0  0  0
 48119  1  0  0  0
 49 50  1  0  0  0
 49 53  1  0  0  0
 49 64  1  0  0  0
 49120  1  0  0  0
 50 51  1  0  0  0
 50121  1  0  0  0
 50122  1  0  0  0
 51 52  1  0  0  0
 51123  1  0  0  0
 51124  1  0  0  0
 52125  1  0  0  0
 52126  1  0  0  0
 53 54  1  0  0  0
 54 55  2  0  0  0
 54127  1  0  0  0
 55 57  1  0  0  0
 55128  1  0  0  0
 56 69  2  0  0  0
 57 58  2  0  0  0
 57129  1  0  0  0
 58130  1  0  0  0
 59 60  1  0  0  0
 59 61  1  0  0  0
 59 62  1  0  0  0
 60131  1  0  0  0
 60132  1  0  0  0
 60133  1  0  0  0
 61134  1  0  0  0
 61135  1  0  0  0
 61136  1  0  0  0
 62137  1  0  0  0
 62138  1  0  0  0
 62139  1  0  0  0
 63 65  1  0  0  0
 63140  1  0  0  0
 63141  1  0  0  0
 63142  1  0  0  0
 64143  1  0  0  0
 65144  1  0  0  0
 68 82  1  0  0  0
 71 74  1  0  0  0
 71145  1  0  0  0
 71146  1  0  0  0
 71147  1  0  0  0
 72148  1  0  0  0
 72149  1  0  0  0
 72150  1  0  0  0
 72 83  1  0  0  0
 73 83  1  0  0  0
 73151  1  0  0  0
 73152  1  0  0  0
 73153  1  0  0  0
 74 75  1  0  0  0
 74154  1  0  0  0
 74155  1  0  0  0
 75 79  1  0  0  0
 75156  1  0  0  0
 75157  1  0  0  0
 76 77  1  0  0  0
 76 82  1  0  0  0
 76158  1  0  0  0
 76159  1  0  0  0
 77 83  1  0  0  0
 77160  1  0  0  0
 77161  1  0  0  0
 78 80  1  0  0  0
 78 84  1  0  0  0
 78162  1  0  0  0
 78163  1  0  0  0
 79164  1  0  0  0
 79165  1  0  0  0
 79 85  1  0  0  0
 80 85  1  0  0  0
 80166  1  0  0  0
 80167  1  0  0  0
 81 83  1  0  0  0
 81 85  1  0  0  0
 81168  1  0  0  0
 81169  1  0  0  0
 82170  1  0  0  0
 82171  1  0  0  0
 84172  1  0  0  0
 85173  1  0  0  0
M  CHG  1  85   1
M  ISO  4   1 100  68 101  82 101  84 100
M  END
> <chiral flag>
0

> <version>
0

> <s_m_source_file>
/data/baiqing/PycharmProjects/Reinvent-master-3.2/result/LINK_invent/BTK/process_docking_weight1_custom_sum_contain_oxygen_bond_distance_aromatic_linkinvent_7_9_3/rearranged_h_0097.sdf

> <i_m_source_file_index>
17

> <r_mmod_Potential_Energy-OPLS-2005>
-11.2479085922241

> <r_mmod_Stretch_Energy-OPLS-2005>
61.5821762084961

> <r_mmod_Bend_Energy-OPLS-2005>
140.569686889648

> <r_mmod_Torsional_Energy-OPLS-2005>
312.215209960938

> <r_mmod_Improper_Torsional_Energy-OPLS-2005>
4.15810298919678

> <r_mmod_Van_der_Waal_Energy-OPLS-2005>
126.30101776123

> <r_mmod_Electrostatic_Energy-OPLS-2005>
-243.328857421875

> <r_mmod_Solvation_Energy-OPLS-2005>
-438.388488769531

> <b_mmod_Minimization_Converged-OPLS-2005>
0

> <r_mmod_RMS_Derivative-OPLS-2005>
6.77341413497925

$$$$
17
                    3D
 Structure written by MMmdl.
160168  0  0  1  0            999 V2000
  -30.6883  -14.5686   20.6590 C   0  0  0  0  0  0
  -30.4177  -12.4020   19.4595 C   0  0  0  0  0  0
  -29.4959  -12.5444   18.2302 C   0  0  0  0  0  0
  -28.0232  -12.3673   18.6391 C   0  0  0  0  0  0
  -27.6484  -13.2222   19.8738 C   0  0  2  0  0  0
  -28.6763  -13.0663   21.0136 C   0  0  0  0  0  0
  -25.2547  -13.8231   20.5741 C   0  0  0  0  0  0
  -24.1800  -13.0463   20.9242 C   0  0  0  0  0  0
  -24.6387  -11.6936   20.8782 C   0  0  0  0  0  0
  -23.9073  -10.4292   21.0449 C   0  0  0  0  0  0
  -24.3616   -9.4194   21.9215 C   0  0  0  0  0  0
  -23.6269   -8.2245   22.0774 C   0  0  0  0  0  0
  -22.4266   -8.0290   21.3548 C   0  0  0  0  0  0
  -21.9917   -9.0276   20.4652 C   0  0  0  0  0  0
  -22.7267  -10.2144   20.3063 C   0  0  0  0  0  0
  -21.6852   -6.0740   22.5291 C   0  0  0  0  0  0
  -21.4011   -6.5640   23.8226 C   0  0  0  0  0  0
  -21.3660   -5.6781   24.9187 C   0  0  0  0  0  0
  -21.6047   -4.3048   24.7226 C   0  0  0  0  0  0
  -21.8816   -3.8148   23.4351 C   0  0  0  0  0  0
  -21.9185   -4.6966   22.3406 C   0  0  0  0  0  0
  -22.7830  -13.5271   21.1838 C   0  0  0  0  0  0
  -22.1655   -4.2160   21.0978 F   0  0  0  0  0  0
  -21.5636   -3.4519   25.7735 F   0  0  0  0  0  0
  -30.0013  -13.3988   20.4726 N   0  0  0  0  0  0
  -26.2948  -12.9388   20.3352 N   0  0  0  0  0  0
  -25.9309  -11.6539   20.5797 N   0  0  0  0  0  0
  -22.0395  -12.8245   22.0343 N   0  0  0  0  0  0
  -25.4256  -15.1924   20.4203 N   0  0  0  0  0  0
  -31.7931  -14.7438   20.1344 O   0  0  0  0  0  0
  -21.6625   -6.8888   21.4252 O   0  0  0  0  0  0
  -22.3532  -14.5580   20.6700 O   0  0  0  0  0  0
  -24.6191  -31.8637   23.2065 C   0  0  0  0  0  0
  -25.9014  -32.4845   23.8408 C   0  0  1  0  0  0
  -27.2530  -27.3937   20.1101 C   0  0  0  0  0  0
  -25.5860  -33.8646   24.2365 N   0  0  0  0  0  0
  -23.4159  -30.4858   21.5461 C   0  0  2  0  0  0
  -24.8612  -28.9382   20.1117 C   0  0  0  0  0  0
  -22.7482  -29.4635   22.4936 C   0  0  0  0  0  0
  -18.0275  -28.1369   22.8412 C   0  0  0  0  0  0
  -24.1458  -36.7346   23.2662 C   0  0  0  0  0  0
  -25.9384  -30.8250   21.3518 C   0  0  0  0  0  0
  -26.0178  -29.4462   20.7151 C   0  0  0  0  0  0
  -27.2085  -28.6803   20.7091 C   0  0  0  0  0  0
  -26.0800  -26.9124   19.4863 C   0  0  0  0  0  0
  -24.8922  -27.6777   19.4855 C   0  0  0  0  0  0
  -23.6296  -29.8188   20.1566 C   0  0  0  0  0  0
  -25.4084  -36.3168   24.0379 C   0  0  1  0  0  0
  -20.5848  -28.3762   23.1249 C   0  0  2  0  0  0
  -20.6810  -26.9519   22.5286 C   0  0  0  0  0  0
  -19.5821  -26.6570   21.4983 C   0  0  0  0  0  0
  -18.1977  -26.8008   22.1376 C   0  0  0  0  0  0
  -19.1495  -28.8849   23.2865 C   0  0  0  0  0  0
  -18.9366  -30.1443   23.8872 C   0  0  0  0  0  0
  -17.6370  -30.6486   24.0612 C   0  0  0  0  0  0
  -25.9015  -34.9511   23.5188 C   0  0  0  0  0  0
  -16.5291  -29.8898   23.6471 C   0  0  0  0  0  0
  -16.7243  -28.6386   23.0411 C   0  0  0  0  0  0
  -26.4528  -31.6591   25.0675 C   0  0  0  0  0  0
  -25.3873  -31.3486   26.1442 C   0  0  0  0  0  0
  -27.0387  -30.3128   24.5839 C   0  0  0  0  0  0
  -27.6162  -32.4314   25.7350 C   0  0  0  0  0  0
  -27.5602  -37.1829   24.8487 C   0  0  0  0  0  0
  -21.4180  -29.3198   22.3774 N   0  0  0  0  0  0
  -26.4296  -37.3842   23.9438 N   0  0  0  0  0  0
  -24.6786  -31.0734   22.0962 N   0  0  0  0  0  0
  -23.4220  -28.8089   23.2928 O   0  0  0  0  0  0
  -28.4389  -26.6740   20.1817 O   0  0  0  0  0  0
  -26.5612  -34.8969   22.4770 O   0  0  0  0  0  0
  -23.5368  -32.1411   23.7415 O   0  0  0  0  0  0
  -30.6011  -18.5466   20.5706 C   0  0  0  0  0  0
  -30.3450  -19.8797   20.3172 C   0  0  0  0  0  0
  -28.4551  -18.9185   20.9683 C   0  0  0  0  0  0
  -29.3956  -17.9096   21.0130 C   0  0  0  0  0  0
  -28.3490  -16.5080   22.8243 C   0  0  0  0  0  0
  -28.0499  -24.3034   21.8665 C   0  0  0  0  0  0
  -28.9486  -22.7451   20.0609 C   0  0  0  0  0  0
  -28.2506  -21.4209   20.5513 C   0  0  0  0  0  0
  -28.6397  -25.3653   19.5832 C   0  0  0  0  0  0
  -29.0933  -16.4483   21.4677 C   0  0  2  0  0  0
  -28.1394  -24.0765   20.3472 C   0  0  2  0  0  0
  -29.0116  -20.1393   20.5891 N   0  0  0  0  0  0
  -30.2258  -15.4767   21.5646 N   0  0  0  0  0  0
  -31.4596  -12.5268   19.1609 H   0  0  0  0  0  0
  -30.3509  -11.3973   19.8759 H   0  0  0  0  0  0
  -29.7650  -11.8086   17.4736 H   0  0  0  0  0  0
  -29.6383  -13.5243   17.7702 H   0  0  0  0  0  0
  -27.8682  -11.3142   18.8636 H   0  0  0  0  0  0
  -27.3633  -12.6061   17.8031 H   0  0  0  0  0  0
  -27.6698  -14.2588   19.5433 H   0  0  0  0  0  0
  -28.6777  -12.0529   21.4150 H   0  0  0  0  0  0
  -28.3964  -13.7040   21.8487 H   0  0  0  0  0  0
  -25.2752   -9.5671   22.4816 H   0  0  0  0  0  0
  -23.9977   -7.4632   22.7501 H   0  0  0  0  0  0
  -21.0857   -8.8810   19.8943 H   0  0  0  0  0  0
  -22.3746  -10.9698   19.6177 H   0  0  0  0  0  0
  -21.1996   -7.6140   23.9742 H   0  0  0  0  0  0
  -21.1492   -6.0502   25.9092 H   0  0  0  0  0  0
  -22.0592   -2.7613   23.2840 H   0  0  0  0  0  0
  -22.3918  -11.9884   22.4736 H   0  0  0  0  0  0
  -21.1021  -13.1369   22.2489 H   0  0  0  0  0  0
  -24.6695  -15.8545   20.5558 H   0  0  0  0  0  0
  -26.2754  -15.6295   20.0898 H   0  0  0  0  0  0
  -26.7064  -32.5569   23.1152 H   0  0  0  0  0  0
  -24.9985  -33.9766   25.0494 H   0  0  0  0  0  0
  -22.7100  -31.3075   21.4082 H   0  0  0  0  0  0
  -23.3719  -35.9690   23.3365 H   0  0  0  0  0  0
  -24.3566  -36.8900   22.2081 H   0  0  0  0  0  0
  -23.7191  -37.6561   23.6626 H   0  0  0  0  0  0
  -26.0245  -31.5666   20.5560 H   0  0  0  0  0  0
  -26.8427  -30.9160   21.9429 H   0  0  0  0  0  0
  -28.1054  -29.0687   21.1714 H   0  0  0  0  0  0
  -26.0661  -25.9430   19.0088 H   0  0  0  0  0  0
  -24.0119  -27.2927   18.9876 H   0  0  0  0  0  0
  -23.7705  -30.6060   19.4118 H   0  0  0  0  0  0
  -22.7453  -29.2693   19.8293 H   0  0  0  0  0  0
  -25.1235  -36.2103   25.0884 H   0  0  0  0  0  0
  -20.9863  -28.3309   24.1376 H   0  0  0  0  0  0
  -20.5631  -26.2367   23.3399 H   0  0  0  0  0  0
  -21.6735  -26.7592   22.1238 H   0  0  0  0  0  0
  -19.7026  -25.6535   21.0908 H   0  0  0  0  0  0
  -19.6790  -27.3449   20.6559 H   0  0  0  0  0  0
  -17.4322  -26.6861   21.3685 H   0  0  0  0  0  0
  -18.0298  -26.0019   22.8596 H   0  0  0  0  0  0
  -19.7859  -30.7240   24.2200 H   0  0  0  0  0  0
  -17.4833  -31.6150   24.5259 H   0  0  0  0  0  0
  -15.5248  -30.2654   23.7969 H   0  0  0  0  0  0
  -15.8652  -28.0696   22.7172 H   0  0  0  0  0  0
  -24.6074  -30.6837   25.7679 H   0  0  0  0  0  0
  -24.9019  -32.2532   26.5118 H   0  0  0  0  0  0
  -25.8314  -30.8471   27.0045 H   0  0  0  0  0  0
  -26.2820  -29.6775   24.1217 H   0  0  0  0  0  0
  -27.4684  -29.7428   25.4071 H   0  0  0  0  0  0
  -27.8391  -30.4590   23.8585 H   0  0  0  0  0  0
  -27.2825  -33.3549   26.2075 H   0  0  0  0  0  0
  -28.3800  -32.6994   25.0035 H   0  0  0  0  0  0
  -28.1053  -31.8385   26.5074 H   0  0  0  0  0  0
  -28.2640  -38.0114   24.7555 H   0  0  0  0  0  0
  -28.1068  -36.2654   24.6255 H   0  0  0  0  0  0
  -27.2349  -37.1437   25.8901 H   0  0  0  0  0  0
  -20.9428  -29.9153   21.7150 H   0  0  0  0  0  0
  -26.0210  -38.2932   24.1440 H   0  0  0  0  0  0
  -31.5725  -18.0835   20.4606 H   0  0  0  0  0  0
  -30.9970  -20.6745   19.9737 H   0  0  0  0  0  0
  -27.4016  -18.8688   21.2137 H   0  0  0  0  0  0
  -27.5200  -17.2177   22.8003 H   0  0  0  0  0  0
  -28.9950  -16.8329   23.6445 H   0  0  0  0  0  0
  -27.9063  -15.5548   23.1066 H   0  0  0  0  0  0
  -29.0313  -24.4000   22.3324 H   0  0  0  0  0  0
  -27.5432  -23.4780   22.3669 H   0  0  0  0  0  0
  -27.4670  -25.1893   22.1014 H   0  0  0  0  0  0
  -29.1273  -22.6570   18.9902 H   0  0  0  0  0  0
  -29.9357  -22.8231   20.5247 H   0  0  0  0  0  0
  -27.3529  -21.2688   19.9498 H   0  0  0  0  0  0
  -27.8883  -21.5563   21.5666 H   0  0  0  0  0  0
  -28.2708  -25.3628   18.5563 H   0  0  0  0  0  0
  -29.7239  -25.2930   19.4829 H   0  0  0  0  0  0
  -28.3786  -16.0653   20.7423 H   0  0  0  0  0  0
  -27.1230  -23.9147   19.9883 H   0  0  0  0  0  0
  -30.9821  -15.8557   22.1165 H   0  0  0  0  0  0
  1 25  1  0  0  0
  1 30  2  0  0  0
  1 83  1  0  0  0
  2  3  1  0  0  0
  2 25  1  0  0  0
  2 84  1  0  0  0
  2 85  1  0  0  0
  3  4  1  0  0  0
  3 86  1  0  0  0
  3 87  1  0  0  0
  4  5  1  0  0  0
  4 88  1  0  0  0
  4 89  1  0  0  0
  5  6  1  0  0  0
  5 26  1  0  0  0
  5 90  1  0  0  0
  6 25  1  0  0  0
  6 91  1  0  0  0
  6 92  1  0  0  0
  7  8  2  0  0  0
  7 26  1  0  0  0
  7 29  1  0  0  0
  8  9  1  0  0  0
  8 22  1  0  0  0
  9 10  1  0  0  0
  9 27  2  0  0  0
 10 11  2  0  0  0
 10 15  1  0  0  0
 11 12  1  0  0  0
 11 93  1  0  0  0
 12 13  2  0  0  0
 12 94  1  0  0  0
 13 14  1  0  0  0
 13 31  1  0  0  0
 14 15  2  0  0  0
 14 95  1  0  0  0
 15 96  1  0  0  0
 16 17  2  0  0  0
 16 21  1  0  0  0
 16 31  1  0  0  0
 17 18  1  0  0  0
 17 97  1  0  0  0
 18 19  2  0  0  0
 18 98  1  0  0  0
 19 20  1  0  0  0
 19 24  1  0  0  0
 20 21  2  0  0  0
 20 99  1  0  0  0
 21 23  1  0  0  0
 22 28  1  0  0  0
 22 32  2  0  0  0
 26 27  1  0  0  0
 28100  1  0  0  0
 28101  1  0  0  0
 29102  1  0  0  0
 29103  1  0  0  0
 33 34  1  0  0  0
 33 66  1  0  0  0
 33 70  2  0  0  0
 34 36  1  0  0  0
 34 59  1  0  0  0
 34104  1  0  0  0
 35 44  2  0  0  0
 35 45  1  0  0  0
 35 68  1  0  0  0
 36 56  1  0  0  0
 36105  1  0  0  0
 37 39  1  0  0  0
 37 47  1  0  0  0
 37 66  1  0  0  0
 37106  1  0  0  0
 38 43  2  0  0  0
 38 46  1  0  0  0
 38 47  1  0  0  0
 39 64  1  0  0  0
 39 67  2  0  0  0
 40 52  1  0  0  0
 40 53  2  0  0  0
 40 58  1  0  0  0
 41107  1  0  0  0
 41108  1  0  0  0
 41109  1  0  0  0
 41 48  1  0  0  0
 42 43  1  0  0  0
 42 66  1  0  0  0
 42110  1  0  0  0
 42111  1  0  0  0
 43 44  1  0  0  0
 44112  1  0  0  0
 45 46  2  0  0  0
 45113  1  0  0  0
 46114  1  0  0  0
 47115  1  0  0  0
 47116  1  0  0  0
 48 56  1  0  0  0
 48 65  1  0  0  0
 48117  1  0  0  0
 49 50  1  0  0  0
 49 53  1  0  0  0
 49 64  1  0  0  0
 49118  1  0  0  0
 50 51  1  0  0  0
 50119  1  0  0  0
 50120  1  0  0  0
 51 52  1  0  0  0
 51121  1  0  0  0
 51122  1  0  0  0
 52123  1  0  0  0
 52124  1  0  0  0
 53 54  1  0  0  0
 54 55  2  0  0  0
 54125  1  0  0  0
 55 57  1  0  0  0
 55126  1  0  0  0
 56 69  2  0  0  0
 57 58  2  0  0  0
 57127  1  0  0  0
 58128  1  0  0  0
 59 60  1  0  0  0
 59 61  1  0  0  0
 59 62  1  0  0  0
 60129  1  0  0  0
 60130  1  0  0  0
 60131  1  0  0  0
 61132  1  0  0  0
 61133  1  0  0  0
 61134  1  0  0  0
 62135  1  0  0  0
 62136  1  0  0  0
 62137  1  0  0  0
 63 65  1  0  0  0
 63138  1  0  0  0
 63139  1  0  0  0
 63140  1  0  0  0
 64141  1  0  0  0
 65142  1  0  0  0
 68 79  1  0  0  0
 71 72  2  0  0  0
 71 74  1  0  0  0
 71143  1  0  0  0
 72 82  1  0  0  0
 72144  1  0  0  0
 73 74  2  0  0  0
 73 82  1  0  0  0
 73145  1  0  0  0
 74 80  1  0  0  0
 75146  1  0  0  0
 75147  1  0  0  0
 75148  1  0  0  0
 75 80  1  0  0  0
 76149  1  0  0  0
 76150  1  0  0  0
 76151  1  0  0  0
 76 81  1  0  0  0
 77 78  1  0  0  0
 77 81  1  0  0  0
 77152  1  0  0  0
 77153  1  0  0  0
 78 82  1  0  0  0
 78154  1  0  0  0
 78155  1  0  0  0
 79 81  1  0  0  0
 79156  1  0  0  0
 79157  1  0  0  0
 80 83  1  0  0  0
 80158  1  0  0  0
 81159  1  0  0  0
 83160  1  0  0  0
M  ISO  4   1 100  68 101  79 101  83 100
M  END
> <chiral flag>
0

> <version>
0

> <s_m_source_file>
/data/baiqing/PycharmProjects/Reinvent-master-3.2/result/LINK_invent/BTK/process_docking_weight1_custom_sum_contain_oxygen_bond_distance_aromatic_linkinvent_7_9_3/rearranged_h_0097.sdf

> <i_m_source_file_index>
18

> <r_mmod_Potential_Energy-OPLS-2005>
19.1410007476807

> <r_mmod_Stretch_Energy-OPLS-2005>
57.5201568603516

> <r_mmod_Bend_Energy-OPLS-2005>
158.283279418945

> <r_mmod_Torsional_Energy-OPLS-2005>
267.297515869141

> <r_mmod_Improper_Torsional_Energy-OPLS-2005>
6.01347970962524

> <r_mmod_Van_der_Waal_Energy-OPLS-2005>
113.779632568359

> <r_mmod_Electrostatic_Energy-OPLS-2005>
-409.453033447266

> <r_mmod_Solvation_Energy-OPLS-2005>
-201.174530029297

> <b_mmod_Minimization_Converged-OPLS-2005>
0

> <r_mmod_RMS_Derivative-OPLS-2005>
7.98399209976196

$$$$
18
                    3D
 Structure written by MMmdl.
179187  0  0  1  0            999 V2000
  -30.8309  -14.2767   20.7372 C   0  0  0  0  0  0
  -30.3963  -12.2814   19.3608 C   0  0  0  0  0  0
  -29.4573  -12.5473   18.1737 C   0  0  0  0  0  0
  -27.9887  -12.3945   18.6031 C   0  0  0  0  0  0
  -27.6612  -13.2114   19.8793 C   0  0  2  0  0  0
  -28.7025  -12.9599   20.9922 C   0  0  0  0  0  0
  -25.2571  -13.8206   20.5702 C   0  0  0  0  0  0
  -24.1828  -13.0461   20.9194 C   0  0  0  0  0  0
  -24.6396  -11.6927   20.8764 C   0  0  0  0  0  0
  -23.9063  -10.4304   21.0424 C   0  0  0  0  0  0
  -24.3621   -9.4215   21.9200 C   0  0  0  0  0  0
  -23.6290   -8.2254   22.0756 C   0  0  0  0  0  0
  -22.4287   -8.0292   21.3552 C   0  0  0  0  0  0
  -21.9922   -9.0259   20.4654 C   0  0  0  0  0  0
  -22.7237  -10.2141   20.3061 C   0  0  0  0  0  0
  -21.6854   -6.0743   22.5273 C   0  0  0  0  0  0
  -21.4013   -6.5644   23.8209 C   0  0  0  0  0  0
  -21.3659   -5.6800   24.9168 C   0  0  0  0  0  0
  -21.6033   -4.3061   24.7228 C   0  0  0  0  0  0
  -21.8819   -3.8152   23.4353 C   0  0  0  0  0  0
  -21.9189   -4.6964   22.3405 C   0  0  0  0  0  0
  -22.7845  -13.5235   21.1844 C   0  0  0  0  0  0
  -22.1659   -4.2158   21.0981 F   0  0  0  0  0  0
  -21.5625   -3.4539   25.7740 F   0  0  0  0  0  0
  -30.0543  -13.2045   20.4518 N   0  0  0  0  0  0
  -26.3031  -12.9376   20.3421 N   0  0  0  0  0  0
  -25.9326  -11.6531   20.5796 N   0  0  0  0  0  0
  -22.0460  -12.8245   22.0391 N   0  0  0  0  0  0
  -25.4240  -15.1916   20.4106 N   0  0  0  0  0  0
  -31.7510  -14.6683   20.0107 O   0  0  0  0  0  0
  -21.6640   -6.8895   21.4252 O   0  0  0  0  0  0
  -22.3534  -14.5544   20.6679 O   0  0  0  0  0  0
  -24.5997  -31.8707   23.2126 C   0  0  0  0  0  0
  -25.8943  -32.4847   23.8383 C   0  0  1  0  0  0
  -27.2538  -27.5209   20.1043 C   0  0  0  0  0  0
  -25.5848  -33.8652   24.2321 N   0  0  0  0  0  0
  -23.3840  -30.4885   21.5492 C   0  0  2  0  0  0
  -24.8308  -28.9658   20.1047 C   0  0  0  0  0  0
  -22.7362  -29.4614   22.5029 C   0  0  0  0  0  0
  -18.0229  -28.1346   22.8414 C   0  0  0  0  0  0
  -24.1504  -36.7364   23.2641 C   0  0  0  0  0  0
  -25.8872  -30.8832   21.3291 C   0  0  0  0  0  0
  -25.9719  -29.5149   20.6921 C   0  0  0  0  0  0
  -27.1732  -28.8047   20.6925 C   0  0  0  0  0  0
  -26.0988  -26.9746   19.5020 C   0  0  0  0  0  0
  -24.8814  -27.6898   19.5100 C   0  0  0  0  0  0
  -23.5876  -29.8173   20.1600 C   0  0  0  0  0  0
  -25.4099  -36.3146   24.0369 C   0  0  1  0  0  0
  -20.5805  -28.3559   23.1385 C   0  0  2  0  0  0
  -20.6736  -26.9319   22.5434 C   0  0  0  0  0  0
  -19.5750  -26.6341   21.5192 C   0  0  0  0  0  0
  -18.1897  -26.7867   22.1564 C   0  0  0  0  0  0
  -19.1476  -28.8745   23.2889 C   0  0  0  0  0  0
  -18.9441  -30.1355   23.8887 C   0  0  0  0  0  0
  -17.6460  -30.6553   24.0515 C   0  0  0  0  0  0
  -25.9040  -34.9503   23.5145 C   0  0  0  0  0  0
  -16.5328  -29.9083   23.6314 C   0  0  0  0  0  0
  -16.7214  -28.6507   23.0302 C   0  0  0  0  0  0
  -26.4421  -31.6617   25.0664 C   0  0  0  0  0  0
  -25.3741  -31.3698   26.1467 C   0  0  0  0  0  0
  -27.0188  -30.3111   24.5845 C   0  0  0  0  0  0
  -27.6023  -32.4300   25.7452 C   0  0  0  0  0  0
  -27.5582  -37.1843   24.8458 C   0  0  0  0  0  0
  -21.4081  -29.2963   22.3849 N   0  0  0  0  0  0
  -26.4294  -37.3835   23.9419 N   0  0  0  0  0  0
  -24.6437  -31.0935   22.0952 N   0  0  0  0  0  0
  -23.4194  -28.8123   23.2995 O   0  0  0  0  0  0
  -28.4171  -26.7842   20.1130 O   0  0  0  0  0  0
  -26.5607  -34.8955   22.4705 O   0  0  0  0  0  0
  -23.5243  -32.1357   23.7645 O   0  0  0  0  0  0
  -29.3849  -18.7566   23.7045 C   0  0  0  0  0  0
  -31.2548  -18.0920   21.8089 C   0  0  0  0  0  0
  -29.8954  -17.4426   23.7194 C   0  0  0  0  0  0
  -30.8662  -17.1072   22.7387 C   0  0  0  0  0  0
  -29.8378  -19.6617   22.7341 C   0  0  0  0  0  0
  -27.8741  -16.2130   24.5889 C   0  0  0  0  0  0
  -29.7017  -16.9303   26.2006 C   0  0  0  0  0  0
  -33.4780  -25.9392   23.4345 C   0  0  0  0  0  0
  -31.5103  -15.7325   22.6357 C   0  0  0  0  0  0
  -29.4174  -21.1178   22.7497 C   0  0  0  0  0  0
  -30.5066  -21.9586   23.4463 C   0  0  0  0  0  0
  -30.6191  -23.3970   22.9325 C   0  0  0  0  0  0
  -30.4985  -26.2017   21.2341 C   0  0  0  0  0  0
  -31.9347  -24.0451   23.4053 C   0  0  0  0  0  0
  -31.2005  -26.3189   22.6062 C   0  0  0  0  0  0
  -29.3342  -27.1642   21.1408 C   0  0  0  0  0  0
  -29.3787  -16.4594   24.7707 C   0  0  0  0  0  0
  -30.7543  -19.3398   21.8006 N   0  0  0  0  0  0
  -30.6447  -14.7691   21.9656 N   0  0  0  0  0  0
  -32.3027  -25.3375   22.7596 N   0  3  1  0  0  0
  -31.4366  -12.3757   19.0438 H   0  0  0  0  0  0
  -30.2798  -11.2527   19.7036 H   0  0  0  0  0  0
  -29.6753  -11.8659   17.3504 H   0  0  0  0  0  0
  -29.6212  -13.5568   17.7888 H   0  0  0  0  0  0
  -27.7929  -11.3348   18.7750 H   0  0  0  0  0  0
  -27.3271  -12.6972   17.7893 H   0  0  0  0  0  0
  -27.7178  -14.2656   19.6069 H   0  0  0  0  0  0
  -28.6438  -11.9313   21.3525 H   0  0  0  0  0  0
  -28.4572  -13.5903   21.8469 H   0  0  0  0  0  0
  -25.2756   -9.5690   22.4792 H   0  0  0  0  0  0
  -23.9986   -7.4651   22.7481 H   0  0  0  0  0  0
  -21.0853   -8.8790   19.8964 H   0  0  0  0  0  0
  -22.3698  -10.9695   19.6181 H   0  0  0  0  0  0
  -21.2009   -7.6154   23.9722 H   0  0  0  0  0  0
  -21.1475   -6.0524   25.9075 H   0  0  0  0  0  0
  -22.0599   -2.7616   23.2842 H   0  0  0  0  0  0
  -22.4045  -11.9902   22.4815 H   0  0  0  0  0  0
  -21.1070  -13.1273   22.2579 H   0  0  0  0  0  0
  -24.6605  -15.8475   20.5348 H   0  0  0  0  0  0
  -26.2819  -15.6389   20.1106 H   0  0  0  0  0  0
  -26.7040  -32.5636   23.1213 H   0  0  0  0  0  0
  -25.0007  -33.9784   25.0470 H   0  0  0  0  0  0
  -22.6651  -31.2975   21.4084 H   0  0  0  0  0  0
  -23.3747  -35.9725   23.3304 H   0  0  0  0  0  0
  -24.3604  -36.8971   22.2053 H   0  0  0  0  0  0
  -23.7278  -37.6588   23.6637 H   0  0  0  0  0  0
  -25.9477  -31.6458   20.5507 H   0  0  0  0  0  0
  -26.7940  -30.9777   21.9154 H   0  0  0  0  0  0
  -28.0172  -29.2792   21.1646 H   0  0  0  0  0  0
  -26.1392  -25.9936   19.0453 H   0  0  0  0  0  0
  -23.9959  -27.2511   19.0724 H   0  0  0  0  0  0
  -23.6879  -30.5891   19.3954 H   0  0  0  0  0  0
  -22.7180  -29.2273   19.8681 H   0  0  0  0  0  0
  -25.1261  -36.2042   25.0867 H   0  0  0  0  0  0
  -20.9776  -28.3053   24.1543 H   0  0  0  0  0  0
  -20.5641  -26.2106   23.3573 H   0  0  0  0  0  0
  -21.6608  -26.7418   22.1212 H   0  0  0  0  0  0
  -19.6966  -25.6277   21.1180 H   0  0  0  0  0  0
  -19.6762  -27.3163   20.6738 H   0  0  0  0  0  0
  -17.4188  -26.6550   21.3969 H   0  0  0  0  0  0
  -18.0292  -26.0025   22.8971 H   0  0  0  0  0  0
  -19.7944  -30.7100   24.2297 H   0  0  0  0  0  0
  -17.5062  -31.6258   24.5099 H   0  0  0  0  0  0
  -15.5327  -30.2993   23.7699 H   0  0  0  0  0  0
  -15.8582  -28.0869   22.6994 H   0  0  0  0  0  0
  -24.5913  -30.7045   25.7823 H   0  0  0  0  0  0
  -24.8924  -32.2844   26.4911 H   0  0  0  0  0  0
  -25.8132  -30.8876   27.0206 H   0  0  0  0  0  0
  -26.2622  -29.6986   24.0932 H   0  0  0  0  0  0
  -27.4089  -29.7225   25.4146 H   0  0  0  0  0  0
  -27.8395  -30.4492   23.8810 H   0  0  0  0  0  0
  -27.2617  -33.3563   26.2065 H   0  0  0  0  0  0
  -28.3825  -32.6907   25.0302 H   0  0  0  0  0  0
  -28.0684  -31.8393   26.5341 H   0  0  0  0  0  0
  -28.2580  -38.0155   24.7468 H   0  0  0  0  0  0
  -28.1086  -36.2677   24.6292 H   0  0  0  0  0  0
  -27.2291  -37.1486   25.8861 H   0  0  0  0  0  0
  -20.9236  -29.8722   21.7126 H   0  0  0  0  0  0
  -26.0205  -38.2929   24.1431 H   0  0  0  0  0  0
  -28.6579  -19.0686   24.4405 H   0  0  0  0  0  0
  -31.9917  -17.8811   21.0460 H   0  0  0  0  0  0
  -27.6534  -15.9007   23.5693 H   0  0  0  0  0  0
  -27.2924  -17.1117   24.7941 H   0  0  0  0  0  0
  -27.5179  -15.4337   25.2593 H   0  0  0  0  0  0
  -30.7769  -17.0346   26.3461 H   0  0  0  0  0  0
  -29.3376  -16.2178   26.9409 H   0  0  0  0  0  0
  -29.2439  -17.8957   26.4202 H   0  0  0  0  0  0
  -34.3093  -25.2354   23.4760 H   0  0  0  0  0  0
  -33.2328  -26.2354   24.4565 H   0  0  0  0  0  0
  -33.8232  -26.8267   22.9054 H   0  0  0  0  0  0
  -31.7669  -15.3637   23.6289 H   0  0  0  0  0  0
  -32.4711  -15.8222   22.1200 H   0  0  0  0  0  0
  -28.4457  -21.2403   23.2317 H   0  0  0  0  0  0
  -29.2796  -21.4315   21.7138 H   0  0  0  0  0  0
  -31.4689  -21.4860   23.2371 H   0  0  0  0  0  0
  -30.3918  -21.9306   24.5310 H   0  0  0  0  0  0
  -29.7542  -23.9737   23.2635 H   0  0  0  0  0  0
  -30.5987  -23.3502   21.8456 H   0  0  0  0  0  0
  -30.1058  -25.2089   21.0445 H   0  0  0  0  0  0
  -31.1991  -26.4171   20.4258 H   0  0  0  0  0  0
  -32.7534  -23.3476   23.2070 H   0  0  0  0  0  0
  -31.8891  -24.1630   24.4890 H   0  0  0  0  0  0
  -30.4930  -26.2240   23.4332 H   0  0  0  0  0  0
  -31.5938  -27.3368   22.6859 H   0  0  0  0  0  0
  -29.7513  -28.1569   20.9667 H   0  0  0  0  0  0
  -28.7977  -27.1729   22.0922 H   0  0  0  0  0  0
  -29.8596  -15.4929   24.6474 H   0  0  0  0  0  0
  -29.9030  -14.3561   22.5071 H   0  0  0  0  0  0
  -32.6180  -25.1230   21.8269 H   0  0  0  0  0  0
  1 25  1  0  0  0
  1 30  2  0  0  0
  1 89  1  0  0  0
  2  3  1  0  0  0
  2 25  1  0  0  0
  2 91  1  0  0  0
  2 92  1  0  0  0
  3  4  1  0  0  0
  3 93  1  0  0  0
  3 94  1  0  0  0
  4  5  1  0  0  0
  4 95  1  0  0  0
  4 96  1  0  0  0
  5  6  1  0  0  0
  5 26  1  0  0  0
  5 97  1  0  0  0
  6 25  1  0  0  0
  6 98  1  0  0  0
  6 99  1  0  0  0
  7  8  2  0  0  0
  7 26  1  0  0  0
  7 29  1  0  0  0
  8  9  1  0  0  0
  8 22  1  0  0  0
  9 10  1  0  0  0
  9 27  2  0  0  0
 10 11  2  0  0  0
 10 15  1  0  0  0
 11 12  1  0  0  0
 11100  1  0  0  0
 12 13  2  0  0  0
 12101  1  0  0  0
 13 14  1  0  0  0
 13 31  1  0  0  0
 14 15  2  0  0  0
 14102  1  0  0  0
 15103  1  0  0  0
 16 17  2  0  0  0
 16 21  1  0  0  0
 16 31  1  0  0  0
 17 18  1  0  0  0
 17104  1  0  0  0
 18 19  2  0  0  0
 18105  1  0  0  0
 19 20  1  0  0  0
 19 24  1  0  0  0
 20 21  2  0  0  0
 20106  1  0  0  0
 21 23  1  0  0  0
 22 28  1  0  0  0
 22 32  2  0  0  0
 26 27  1  0  0  0
 28107  1  0  0  0
 28108  1  0  0  0
 29109  1  0  0  0
 29110  1  0  0  0
 33 34  1  0  0  0
 33 66  1  0  0  0
 33 70  2  0  0  0
 34 36  1  0  0  0
 34 59  1  0  0  0
 34111  1  0  0  0
 35 44  2  0  0  0
 35 45  1  0  0  0
 35 68  1  0  0  0
 36 56  1  0  0  0
 36112  1  0  0  0
 37 39  1  0  0  0
 37 47  1  0  0  0
 37 66  1  0  0  0
 37113  1  0  0  0
 38 43  2  0  0  0
 38 46  1  0  0  0
 38 47  1  0  0  0
 39 64  1  0  0  0
 39 67  2  0  0  0
 40 52  1  0  0  0
 40 53  2  0  0  0
 40 58  1  0  0  0
 41114  1  0  0  0
 41115  1  0  0  0
 41116  1  0  0  0
 41 48  1  0  0  0
 42 43  1  0  0  0
 42 66  1  0  0  0
 42117  1  0  0  0
 42118  1  0  0  0
 43 44  1  0  0  0
 44119  1  0  0  0
 45 46  2  0  0  0
 45120  1  0  0  0
 46121  1  0  0  0
 47122  1  0  0  0
 47123  1  0  0  0
 48 56  1  0  0  0
 48 65  1  0  0  0
 48124  1  0  0  0
 49 50  1  0  0  0
 49 53  1  0  0  0
 49 64  1  0  0  0
 49125  1  0  0  0
 50 51  1  0  0  0
 50126  1  0  0  0
 50127  1  0  0  0
 51 52  1  0  0  0
 51128  1  0  0  0
 51129  1  0  0  0
 52130  1  0  0  0
 52131  1  0  0  0
 53 54  1  0  0  0
 54 55  2  0  0  0
 54132  1  0  0  0
 55 57  1  0  0  0
 55133  1  0  0  0
 56 69  2  0  0  0
 57 58  2  0  0  0
 57134  1  0  0  0
 58135  1  0  0  0
 59 60  1  0  0  0
 59 61  1  0  0  0
 59 62  1  0  0  0
 60136  1  0  0  0
 60137  1  0  0  0
 60138  1  0  0  0
 61139  1  0  0  0
 61140  1  0  0  0
 61141  1  0  0  0
 62142  1  0  0  0
 62143  1  0  0  0
 62144  1  0  0  0
 63 65  1  0  0  0
 63145  1  0  0  0
 63146  1  0  0  0
 63147  1  0  0  0
 64148  1  0  0  0
 65149  1  0  0  0
 68 86  1  0  0  0
 71 73  2  0  0  0
 71 75  1  0  0  0
 71150  1  0  0  0
 72 74  2  0  0  0
 72 88  1  0  0  0
 72151  1  0  0  0
 73 74  1  0  0  0
 73 87  1  0  0  0
 74 79  1  0  0  0
 75 80  1  0  0  0
 75 88  2  0  0  0
 76152  1  0  0  0
 76153  1  0  0  0
 76154  1  0  0  0
 76 87  1  0  0  0
 77 87  1  0  0  0
 77155  1  0  0  0
 77156  1  0  0  0
 77157  1  0  0  0
 78158  1  0  0  0
 78159  1  0  0  0
 78160  1  0  0  0
 78 90  1  0  0  0
 79 89  1  0  0  0
 79161  1  0  0  0
 79162  1  0  0  0
 80 81  1  0  0  0
 80163  1  0  0  0
 80164  1  0  0  0
 81 82  1  0  0  0
 81165  1  0  0  0
 81166  1  0  0  0
 82 84  1  0  0  0
 82167  1  0  0  0
 82168  1  0  0  0
 83 85  1  0  0  0
 83 86  1  0  0  0
 83169  1  0  0  0
 83170  1  0  0  0
 84 90  1  0  0  0
 84171  1  0  0  0
 84172  1  0  0  0
 85 90  1  0  0  0
 85173  1  0  0  0
 85174  1  0  0  0
 86175  1  0  0  0
 86176  1  0  0  0
 87177  1  0  0  0
 89178  1  0  0  0
 90179  1  0  0  0
M  CHG  1  90   1
M  ISO  4   1 100  68 101  86 101  89 100
M  END
> <chiral flag>
0

> <version>
0

> <s_m_source_file>
/data/baiqing/PycharmProjects/Reinvent-master-3.2/result/LINK_invent/BTK/process_docking_weight1_custom_sum_contain_oxygen_bond_distance_aromatic_linkinvent_7_9_3/rearranged_h_0097.sdf

> <i_m_source_file_index>
19

> <r_mmod_Potential_Energy-OPLS-2005>
-326.75390625

> <r_mmod_Stretch_Energy-OPLS-2005>
33.3540267944336

> <r_mmod_Bend_Energy-OPLS-2005>
99.7155914306641

> <r_mmod_Torsional_Energy-OPLS-2005>
211.715805053711

> <r_mmod_Improper_Torsional_Energy-OPLS-2005>
3.99679279327393

> <r_mmod_Van_der_Waal_Energy-OPLS-2005>
175.82731628418

> <r_mmod_Electrostatic_Energy-OPLS-2005>
-415.509399414062

> <r_mmod_Solvation_Energy-OPLS-2005>
-444.941528320312

> <b_mmod_Minimization_Converged-OPLS-2005>
0

> <r_mmod_RMS_Derivative-OPLS-2005>
5.34941291809082

$$$$
19
                    3D
 Structure written by MMmdl.
158166  0  0  1  0            999 V2000
  -30.6211  -14.7153   20.4674 C   0  0  0  0  0  0
  -30.4293  -12.4321   19.4911 C   0  0  0  0  0  0
  -29.5157  -12.5136   18.2482 C   0  0  0  0  0  0
  -28.0399  -12.3400   18.6540 C   0  0  0  0  0  0
  -27.6455  -13.2315   19.8619 C   0  0  2  0  0  0
  -28.6848  -13.1550   21.0034 C   0  0  0  0  0  0
  -25.2515  -13.8206   20.5686 C   0  0  0  0  0  0
  -24.1798  -13.0447   20.9187 C   0  0  0  0  0  0
  -24.6382  -11.6928   20.8732 C   0  0  0  0  0  0
  -23.9057  -10.4299   21.0399 C   0  0  0  0  0  0
  -24.3609   -9.4217   21.9177 C   0  0  0  0  0  0
  -23.6292   -8.2250   22.0751 C   0  0  0  0  0  0
  -22.4276   -8.0281   21.3541 C   0  0  0  0  0  0
  -21.9907   -9.0250   20.4640 C   0  0  0  0  0  0
  -22.7230  -10.2134   20.3050 C   0  0  0  0  0  0
  -21.6858   -6.0731   22.5275 C   0  0  0  0  0  0
  -21.4017   -6.5633   23.8207 C   0  0  0  0  0  0
  -21.3663   -5.6788   24.9166 C   0  0  0  0  0  0
  -21.6051   -4.3051   24.7224 C   0  0  0  0  0  0
  -21.8821   -3.8140   23.4342 C   0  0  0  0  0  0
  -21.9195   -4.6957   22.3396 C   0  0  0  0  0  0
  -22.7816  -13.5229   21.1857 C   0  0  0  0  0  0
  -22.1665   -4.2142   21.0976 F   0  0  0  0  0  0
  -21.5631   -3.4536   25.7736 F   0  0  0  0  0  0
  -29.9971  -13.4895   20.4346 N   0  0  0  0  0  0
  -26.2947  -12.9407   20.3322 N   0  0  0  0  0  0
  -25.9320  -11.6550   20.5766 N   0  0  0  0  0  0
  -22.0462  -12.8209   22.0416 N   0  0  0  0  0  0
  -25.4218  -15.1924   20.4092 N   0  0  0  0  0  0
  -31.7917  -14.8227   20.0922 O   0  0  0  0  0  0
  -21.6648   -6.8873   21.4237 O   0  0  0  0  0  0
  -22.3499  -14.5531   20.6716 O   0  0  0  0  0  0
  -24.6313  -31.8574   23.2028 C   0  0  0  0  0  0
  -25.9139  -32.4782   23.8357 C   0  0  1  0  0  0
  -27.2082  -27.2661   20.1272 C   0  0  0  0  0  0
  -25.5942  -33.8589   24.2279 N   0  0  0  0  0  0
  -23.4270  -30.4822   21.5482 C   0  0  2  0  0  0
  -24.8708  -28.9371   20.1073 C   0  0  0  0  0  0
  -22.7513  -29.4597   22.4941 C   0  0  0  0  0  0
  -18.0278  -28.1394   22.8486 C   0  0  0  0  0  0
  -24.1501  -36.7320   23.2637 C   0  0  0  0  0  0
  -25.9738  -30.7707   21.3821 C   0  0  0  0  0  0
  -26.0434  -29.3954   20.7216 C   0  0  0  0  0  0
  -27.2145  -28.5725   20.7219 C   0  0  0  0  0  0
  -26.0152  -26.8842   19.4689 C   0  0  0  0  0  0
  -24.8624  -27.6906   19.4673 C   0  0  0  0  0  0
  -23.6442  -29.8273   20.1601 C   0  0  0  0  0  0
  -25.4127  -36.3104   24.0324 C   0  0  1  0  0  0
  -20.5889  -28.3700   23.1301 C   0  0  2  0  0  0
  -20.6794  -26.9424   22.5428 C   0  0  0  0  0  0
  -19.5760  -26.6381   21.5244 C   0  0  0  0  0  0
  -18.1925  -26.7934   22.1634 C   0  0  0  0  0  0
  -19.1534  -28.8862   23.2883 C   0  0  0  0  0  0
  -18.9456  -30.1460   23.8904 C   0  0  0  0  0  0
  -17.6458  -30.6596   24.0563 C   0  0  0  0  0  0
  -25.9061  -34.9465   23.5104 C   0  0  0  0  0  0
  -16.5347  -29.9097   23.6334 C   0  0  0  0  0  0
  -16.7266  -28.6516   23.0354 C   0  0  0  0  0  0
  -26.4489  -31.6600   25.0745 C   0  0  0  0  0  0
  -25.3694  -31.3742   26.1453 C   0  0  0  0  0  0
  -27.0331  -30.3022   24.6202 C   0  0  0  0  0  0
  -27.6050  -32.4327   25.7517 C   0  0  0  0  0  0
  -27.5588  -37.1822   24.8453 C   0  0  0  0  0  0
  -21.4222  -29.3044   22.3702 N   0  0  0  0  0  0
  -26.4306  -37.3797   23.9394 N   0  0  0  0  0  0
  -24.6971  -31.0532   22.1014 N   0  0  0  0  0  0
  -23.4219  -28.8120   23.3016 O   0  0  0  0  0  0
  -28.2907  -26.3592   20.2075 O   0  0  0  0  0  0
  -26.5627  -34.8928   22.4668 O   0  0  0  0  0  0
  -23.5468  -32.1401   23.7324 O   0  0  0  0  0  0
  -30.1535  -18.5369   22.2801 C   0  0  0  0  0  0
  -30.0200  -19.7068   23.0460 C   0  0  0  0  0  0
  -29.5050  -20.8898   22.4500 C   0  0  0  0  0  0
  -29.8197  -18.5472   20.9234 C   0  0  0  0  0  0
  -29.2204  -20.9082   21.0545 C   0  0  0  0  0  0
  -30.4323  -19.6501   24.5076 C   0  0  0  0  0  0
  -29.2226  -22.0982   23.3363 C   0  0  0  0  0  0
  -28.5564  -22.1786   20.3365 C   0  0  0  0  0  0
  -30.0608  -17.2282   20.0870 C   0  0  0  0  0  0
  -29.0093  -23.7313   20.5392 C   0  0  0  0  0  0
  -28.0133  -24.8932   20.0279 C   0  0  0  0  0  0
  -29.3804  -19.7277   20.3326 N   0  0  0  0  0  0
  -29.8518  -15.8395   20.6797 N   0  0  0  0  0  0
  -31.4755  -12.5379   19.1978 H   0  0  0  0  0  0
  -30.3528  -11.4514   19.9621 H   0  0  0  0  0  0
  -29.7968  -11.7530   17.5184 H   0  0  0  0  0  0
  -29.6506  -13.4775   17.7549 H   0  0  0  0  0  0
  -27.8893  -11.2894   18.9054 H   0  0  0  0  0  0
  -27.3874  -12.5448   17.8049 H   0  0  0  0  0  0
  -27.6459  -14.2565   19.4914 H   0  0  0  0  0  0
  -28.7025  -12.1599   21.4495 H   0  0  0  0  0  0
  -28.4202  -13.8417   21.8091 H   0  0  0  0  0  0
  -25.2750   -9.5704   22.4751 H   0  0  0  0  0  0
  -24.0007   -7.4643   22.7469 H   0  0  0  0  0  0
  -21.0842   -8.8754   19.8936 H   0  0  0  0  0  0
  -22.3678  -10.9665   19.6156 H   0  0  0  0  0  0
  -21.2006   -7.6142   23.9704 H   0  0  0  0  0  0
  -21.1490   -6.0519   25.9069 H   0  0  0  0  0  0
  -22.0599   -2.7604   23.2843 H   0  0  0  0  0  0
  -22.4089  -11.9879   22.4807 H   0  0  0  0  0  0
  -21.1073  -13.1224   22.2620 H   0  0  0  0  0  0
  -24.6517  -15.8459   20.4990 H   0  0  0  0  0  0
  -26.2731  -15.6292   20.0808 H   0  0  0  0  0  0
  -26.7204  -32.5426   23.1098 H   0  0  0  0  0  0
  -25.0102  -33.9730   25.0433 H   0  0  0  0  0  0
  -22.7227  -31.3046   21.4102 H   0  0  0  0  0  0
  -23.3766  -35.9649   23.3295 H   0  0  0  0  0  0
  -24.3595  -36.8956   22.2053 H   0  0  0  0  0  0
  -23.7249  -37.6518   23.6668 H   0  0  0  0  0  0
  -26.1111  -31.5315   20.6130 H   0  0  0  0  0  0
  -26.8541  -30.8193   22.0117 H   0  0  0  0  0  0
  -28.1094  -28.9131   21.2240 H   0  0  0  0  0  0
  -25.9387  -25.9358   18.9590 H   0  0  0  0  0  0
  -23.9677  -27.3405   18.9696 H   0  0  0  0  0  0
  -23.7780  -30.6131   19.4164 H   0  0  0  0  0  0
  -22.7587  -29.2723   19.8458 H   0  0  0  0  0  0
  -25.1308  -36.1970   25.0818 H   0  0  0  0  0  0
  -20.9948  -28.3276   24.1440 H   0  0  0  0  0  0
  -20.5764  -26.2295   23.3623 H   0  0  0  0  0  0
  -21.6655  -26.7504   22.1176 H   0  0  0  0  0  0
  -19.6942  -25.6292   21.1278 H   0  0  0  0  0  0
  -19.6713  -27.3197   20.6776 H   0  0  0  0  0  0
  -17.4217  -26.6688   21.4012 H   0  0  0  0  0  0
  -18.0297  -26.0076   22.9027 H   0  0  0  0  0  0
  -19.7933  -30.7261   24.2293 H   0  0  0  0  0  0
  -17.5017  -31.6280   24.5157 H   0  0  0  0  0  0
  -15.5353  -30.3002   23.7663 H   0  0  0  0  0  0
  -15.8660  -28.0841   22.7076 H   0  0  0  0  0  0
  -24.5872  -30.7094   25.7763 H   0  0  0  0  0  0
  -24.8874  -32.2909   26.4864 H   0  0  0  0  0  0
  -25.7990  -30.8916   27.0241 H   0  0  0  0  0  0
  -26.2909  -29.6780   24.1212 H   0  0  0  0  0  0
  -27.4020  -29.7264   25.4698 H   0  0  0  0  0  0
  -27.8787  -30.4319   23.9445 H   0  0  0  0  0  0
  -27.2675  -33.3632   26.2093 H   0  0  0  0  0  0
  -28.3866  -32.6875   25.0350 H   0  0  0  0  0  0
  -28.0710  -31.8446   26.5433 H   0  0  0  0  0  0
  -28.2597  -38.0127   24.7524 H   0  0  0  0  0  0
  -28.1095  -36.2662   24.6267 H   0  0  0  0  0  0
  -27.2301  -37.1458   25.8852 H   0  0  0  0  0  0
  -20.9410  -29.8784   21.6927 H   0  0  0  0  0  0
  -26.0197  -38.2882   24.1375 H   0  0  0  0  0  0
  -30.5341  -17.6262   22.7244 H   0  0  0  0  0  0
  -31.0700  -18.7876   24.7020 H   0  0  0  0  0  0
  -29.5568  -19.5695   25.1506 H   0  0  0  0  0  0
  -31.0002  -20.5357   24.7932 H   0  0  0  0  0  0
  -29.0628  -21.8244   24.3781 H   0  0  0  0  0  0
  -28.3046  -22.6016   23.0345 H   0  0  0  0  0  0
  -30.0563  -22.8004   23.3079 H   0  0  0  0  0  0
  -27.4988  -22.1190   20.5956 H   0  0  0  0  0  0
  -28.5882  -21.9826   19.2643 H   0  0  0  0  0  0
  -31.0852  -17.2954   19.7184 H   0  0  0  0  0  0
  -29.4353  -17.2868   19.1961 H   0  0  0  0  0  0
  -29.9816  -23.8694   20.0690 H   0  0  0  0  0  0
  -29.1769  -23.9494   21.5869 H   0  0  0  0  0  0
  -27.0560  -24.6793   20.5068 H   0  0  0  0  0  0
  -27.8532  -24.7318   18.9615 H   0  0  0  0  0  0
  -28.9255  -15.6729   21.0413 H   0  0  0  0  0  0
  1 25  1  0  0  0
  1 30  2  0  0  0
  1 83  1  0  0  0
  2  3  1  0  0  0
  2 25  1  0  0  0
  2 84  1  0  0  0
  2 85  1  0  0  0
  3  4  1  0  0  0
  3 86  1  0  0  0
  3 87  1  0  0  0
  4  5  1  0  0  0
  4 88  1  0  0  0
  4 89  1  0  0  0
  5  6  1  0  0  0
  5 26  1  0  0  0
  5 90  1  0  0  0
  6 25  1  0  0  0
  6 91  1  0  0  0
  6 92  1  0  0  0
  7  8  2  0  0  0
  7 26  1  0  0  0
  7 29  1  0  0  0
  8  9  1  0  0  0
  8 22  1  0  0  0
  9 10  1  0  0  0
  9 27  2  0  0  0
 10 11  2  0  0  0
 10 15  1  0  0  0
 11 12  1  0  0  0
 11 93  1  0  0  0
 12 13  2  0  0  0
 12 94  1  0  0  0
 13 14  1  0  0  0
 13 31  1  0  0  0
 14 15  2  0  0  0
 14 95  1  0  0  0
 15 96  1  0  0  0
 16 17  2  0  0  0
 16 21  1  0  0  0
 16 31  1  0  0  0
 17 18  1  0  0  0
 17 97  1  0  0  0
 18 19  2  0  0  0
 18 98  1  0  0  0
 19 20  1  0  0  0
 19 24  1  0  0  0
 20 21  2  0  0  0
 20 99  1  0  0  0
 21 23  1  0  0  0
 22 28  1  0  0  0
 22 32  2  0  0  0
 26 27  1  0  0  0
 28100  1  0  0  0
 28101  1  0  0  0
 29102  1  0  0  0
 29103  1  0  0  0
 33 34  1  0  0  0
 33 66  1  0  0  0
 33 70  2  0  0  0
 34 36  1  0  0  0
 34 59  1  0  0  0
 34104  1  0  0  0
 35 44  2  0  0  0
 35 45  1  0  0  0
 35 68  1  0  0  0
 36 56  1  0  0  0
 36105  1  0  0  0
 37 39  1  0  0  0
 37 47  1  0  0  0
 37 66  1  0  0  0
 37106  1  0  0  0
 38 43  2  0  0  0
 38 46  1  0  0  0
 38 47  1  0  0  0
 39 64  1  0  0  0
 39 67  2  0  0  0
 40 52  1  0  0  0
 40 53  2  0  0  0
 40 58  1  0  0  0
 41107  1  0  0  0
 41108  1  0  0  0
 41109  1  0  0  0
 41 48  1  0  0  0
 42 43  1  0  0  0
 42 66  1  0  0  0
 42110  1  0  0  0
 42111  1  0  0  0
 43 44  1  0  0  0
 44112  1  0  0  0
 45 46  2  0  0  0
 45113  1  0  0  0
 46114  1  0  0  0
 47115  1  0  0  0
 47116  1  0  0  0
 48 56  1  0  0  0
 48 65  1  0  0  0
 48117  1  0  0  0
 49 50  1  0  0  0
 49 53  1  0  0  0
 49 64  1  0  0  0
 49118  1  0  0  0
 50 51  1  0  0  0
 50119  1  0  0  0
 50120  1  0  0  0
 51 52  1  0  0  0
 51121  1  0  0  0
 51122  1  0  0  0
 52123  1  0  0  0
 52124  1  0  0  0
 53 54  1  0  0  0
 54 55  2  0  0  0
 54125  1  0  0  0
 55 57  1  0  0  0
 55126  1  0  0  0
 56 69  2  0  0  0
 57 58  2  0  0  0
 57127  1  0  0  0
 58128  1  0  0  0
 59 60  1  0  0  0
 59 61  1  0  0  0
 59 62  1  0  0  0
 60129  1  0  0  0
 60130  1  0  0  0
 60131  1  0  0  0
 61132  1  0  0  0
 61133  1  0  0  0
 61134  1  0  0  0
 62135  1  0  0  0
 62136  1  0  0  0
 62137  1  0  0  0
 63 65  1  0  0  0
 63138  1  0  0  0
 63139  1  0  0  0
 63140  1  0  0  0
 64141  1  0  0  0
 65142  1  0  0  0
 68 81  1  0  0  0
 71 72  2  0  0  0
 71 74  1  0  0  0
 71143  1  0  0  0
 72 73  1  0  0  0
 72 76  1  0  0  0
 73 75  2  0  0  0
 73 77  1  0  0  0
 74 79  1  0  0  0
 74 82  2  0  0  0
 75 78  1  0  0  0
 75 82  1  0  0  0
 76144  1  0  0  0
 76145  1  0  0  0
 76146  1  0  0  0
 77147  1  0  0  0
 77148  1  0  0  0
 77149  1  0  0  0
 78 80  1  0  0  0
 78150  1  0  0  0
 78151  1  0  0  0
 79 83  1  0  0  0
 79152  1  0  0  0
 79153  1  0  0  0
 80 81  1  0  0  0
 80154  1  0  0  0
 80155  1  0  0  0
 81156  1  0  0  0
 81157  1  0  0  0
 83158  1  0  0  0
M  ISO  4   1 100  68 101  81 101  83 100
M  END
> <chiral flag>
0

> <version>
0

> <s_m_source_file>
/data/baiqing/PycharmProjects/Reinvent-master-3.2/result/LINK_invent/BTK/process_docking_weight1_custom_sum_contain_oxygen_bond_distance_aromatic_linkinvent_7_9_3/rearranged_h_0097.sdf

> <i_m_source_file_index>
20

> <r_mmod_Potential_Energy-OPLS-2005>
-153.801635742188

> <r_mmod_Stretch_Energy-OPLS-2005>
117.043273925781

> <r_mmod_Bend_Energy-OPLS-2005>
161.947692871094

> <r_mmod_Torsional_Energy-OPLS-2005>
208.193801879883

> <r_mmod_Improper_Torsional_Energy-OPLS-2005>
7.58784437179565

> <r_mmod_Van_der_Waal_Energy-OPLS-2005>
152.540298461914

> <r_mmod_Electrostatic_Energy-OPLS-2005>
-653.067138671875

> <r_mmod_Solvation_Energy-OPLS-2005>
-227.717758178711

> <b_mmod_Minimization_Converged-OPLS-2005>
0

> <r_mmod_RMS_Derivative-OPLS-2005>
1.6908243894577

$$$$
20
                    3D
 Structure written by MMmdl.
172180  0  0  1  0            999 V2000
  -30.6760  -14.4981   20.4974 C   0  0  0  0  0  0
  -30.4186  -12.2983   19.4365 C   0  0  0  0  0  0
  -29.5011  -12.5070   18.2137 C   0  0  0  0  0  0
  -28.0184  -12.3835   18.6166 C   0  0  0  0  0  0
  -27.6644  -13.2094   19.8823 C   0  0  2  0  0  0
  -28.7091  -13.0074   21.0061 C   0  0  0  0  0  0
  -25.2608  -13.8156   20.5671 C   0  0  0  0  0  0
  -24.1855  -13.0424   20.9174 C   0  0  0  0  0  0
  -24.6403  -11.6909   20.8727 C   0  0  0  0  0  0
  -23.9071  -10.4287   21.0408 C   0  0  0  0  0  0
  -24.3640   -9.4212   21.9176 C   0  0  0  0  0  0
  -23.6320   -8.2251   22.0751 C   0  0  0  0  0  0
  -22.4296   -8.0283   21.3555 C   0  0  0  0  0  0
  -21.9928   -9.0255   20.4656 C   0  0  0  0  0  0
  -22.7256  -10.2132   20.3061 C   0  0  0  0  0  0
  -21.6855   -6.0739   22.5280 C   0  0  0  0  0  0
  -21.4018   -6.5642   23.8214 C   0  0  0  0  0  0
  -21.3657   -5.6792   24.9159 C   0  0  0  0  0  0
  -21.6050   -4.3055   24.7213 C   0  0  0  0  0  0
  -21.8823   -3.8149   23.4329 C   0  0  0  0  0  0
  -21.9203   -4.6970   22.3387 C   0  0  0  0  0  0
  -22.7888  -13.5243   21.1817 C   0  0  0  0  0  0
  -22.1670   -4.2154   21.0969 F   0  0  0  0  0  0
  -21.5622   -3.4536   25.7723 F   0  0  0  0  0  0
  -30.0389  -13.2973   20.4485 N   0  0  0  0  0  0
  -26.3051  -12.9321   20.3416 N   0  0  0  0  0  0
  -25.9343  -11.6478   20.5809 N   0  0  0  0  0  0
  -22.0545  -12.8218   22.0381 N   0  0  0  0  0  0
  -25.4275  -15.1855   20.3979 N   0  0  0  0  0  0
  -31.8343  -14.6573   20.1017 O   0  0  0  0  0  0
  -21.6655   -6.8888   21.4253 O   0  0  0  0  0  0
  -22.3565  -14.5539   20.6664 O   0  0  0  0  0  0
  -24.6173  -31.8668   23.2078 C   0  0  0  0  0  0
  -25.9038  -32.4830   23.8385 C   0  0  1  0  0  0
  -27.2470  -27.4225   20.0944 C   0  0  0  0  0  0
  -25.5890  -33.8636   24.2342 N   0  0  0  0  0  0
  -23.4090  -30.4883   21.5456 C   0  0  2  0  0  0
  -24.8600  -28.9501   20.1170 C   0  0  0  0  0  0
  -22.7419  -29.4676   22.4956 C   0  0  0  0  0  0
  -18.0264  -28.1394   22.8498 C   0  0  0  0  0  0
  -24.1473  -36.7299   23.2642 C   0  0  0  0  0  0
  -25.9383  -30.8316   21.3618 C   0  0  0  0  0  0
  -26.0212  -29.4613   20.7123 C   0  0  0  0  0  0
  -27.2191  -28.7063   20.6958 C   0  0  0  0  0  0
  -26.0716  -26.9413   19.4783 C   0  0  0  0  0  0
  -24.8814  -27.6895   19.4957 C   0  0  0  0  0  0
  -23.6215  -29.8159   20.1623 C   0  0  0  0  0  0
  -25.4091  -36.3129   24.0358 C   0  0  1  0  0  0
  -20.5867  -28.3701   23.1309 C   0  0  2  0  0  0
  -20.6760  -26.9432   22.5432 C   0  0  0  0  0  0
  -19.5735  -26.6406   21.5224 C   0  0  0  0  0  0
  -18.1914  -26.7939   22.1636 C   0  0  0  0  0  0
  -19.1523  -28.8847   23.2908 C   0  0  0  0  0  0
  -18.9451  -30.1447   23.8924 C   0  0  0  0  0  0
  -17.6455  -30.6592   24.0571 C   0  0  0  0  0  0
  -25.9025  -34.9491   23.5149 C   0  0  0  0  0  0
  -16.5341  -29.9103   23.6326 C   0  0  0  0  0  0
  -16.7258  -28.6526   23.0339 C   0  0  0  0  0  0
  -26.4463  -31.6598   25.0699 C   0  0  0  0  0  0
  -25.3718  -31.3688   26.1425 C   0  0  0  0  0  0
  -27.0292  -30.3037   24.6084 C   0  0  0  0  0  0
  -27.6060  -32.4287   25.7449 C   0  0  0  0  0  0
  -27.5573  -37.1807   24.8475 C   0  0  0  0  0  0
  -21.4142  -29.3057   22.3693 N   0  0  0  0  0  0
  -26.4284  -37.3803   23.9426 N   0  0  0  0  0  0
  -24.6725  -31.0769   22.0968 N   0  0  0  0  0  0
  -23.4177  -28.8205   23.2994 O   0  0  0  0  0  0
  -28.4027  -26.6613   20.0858 O   0  0  0  0  0  0
  -26.5584  -34.8947   22.4708 O   0  0  0  0  0  0
  -23.5360  -32.1392   23.7468 O   0  0  0  0  0  0
  -29.8716  -19.2890   19.6735 C   0  0  0  0  0  0
  -29.7968  -18.1586   20.4472 C   0  0  0  0  0  0
  -29.6404  -18.6253   21.7986 C   0  0  0  0  0  0
  -29.6987  -20.0041   21.7746 C   0  0  0  0  0  0
  -29.6660  -20.9802   22.9165 C   0  0  0  0  0  0
  -27.1168  -16.8526   23.0562 C   0  0  0  0  0  0
  -28.0539  -17.8648   25.1815 C   0  0  0  0  0  0
  -28.7514  -24.3516   18.1914 C   0  0  0  0  0  0
  -29.4666  -17.8105   23.0663 C   0  0  0  0  0  0
  -29.8811  -16.7491   19.8414 C   0  0  0  0  0  0
  -28.8313  -22.7884   20.2122 C   0  0  0  0  0  0
  -30.0015  -21.8017   19.9501 C   0  0  0  0  0  0
  -28.2629  -25.2849   20.5132 C   0  0  0  0  0  0
  -28.0415  -17.9222   23.6472 C   0  0  0  0  0  0
  -29.0731  -24.2427   19.6916 C   0  0  2  0  0  0
  -29.8233  -20.4273   20.4574 N   0  0  0  0  0  0
  -29.8625  -15.5536   20.7046 N   0  0  0  0  0  0
  -31.4647  -12.3807   19.1385 H   0  0  0  0  0  0
  -30.2974  -11.2901   19.8359 H   0  0  0  0  0  0
  -29.7357  -11.7833   17.4329 H   0  0  0  0  0  0
  -29.6837  -13.4905   17.7802 H   0  0  0  0  0  0
  -27.8082  -11.3277   18.7901 H   0  0  0  0  0  0
  -27.3801  -12.6890   17.7866 H   0  0  0  0  0  0
  -27.6986  -14.2581   19.5887 H   0  0  0  0  0  0
  -28.6836  -11.9817   21.3800 H   0  0  0  0  0  0
  -28.4869  -13.6419   21.8652 H   0  0  0  0  0  0
  -25.2787   -9.5665   22.4746 H   0  0  0  0  0  0
  -24.0018   -7.4633   22.7458 H   0  0  0  0  0  0
  -21.0862   -8.8801   19.8951 H   0  0  0  0  0  0
  -22.3744  -10.9684   19.6176 H   0  0  0  0  0  0
  -21.2024   -7.6152   23.9711 H   0  0  0  0  0  0
  -21.1473   -6.0518   25.9068 H   0  0  0  0  0  0
  -22.0610   -2.7617   23.2827 H   0  0  0  0  0  0
  -22.4189  -11.9896   22.4776 H   0  0  0  0  0  0
  -21.1170  -13.1243   22.2596 H   0  0  0  0  0  0
  -24.6601  -15.8374   20.5114 H   0  0  0  0  0  0
  -26.2749  -15.6286   20.0700 H   0  0  0  0  0  0
  -26.7110  -32.5560   23.1159 H   0  0  0  0  0  0
  -25.0080  -33.9788   25.0517 H   0  0  0  0  0  0
  -22.6993  -31.3048   21.3998 H   0  0  0  0  0  0
  -23.3756  -35.9614   23.3329 H   0  0  0  0  0  0
  -24.3569  -36.8875   22.2055 H   0  0  0  0  0  0
  -23.7217  -37.6513   23.6616 H   0  0  0  0  0  0
  -26.0480  -31.5948   20.5909 H   0  0  0  0  0  0
  -26.8290  -30.8917   21.9752 H   0  0  0  0  0  0
  -28.1173  -29.1024   21.1522 H   0  0  0  0  0  0
  -26.0785  -25.9880   18.9711 H   0  0  0  0  0  0
  -23.9976  -27.2914   19.0202 H   0  0  0  0  0  0
  -23.7278  -30.5878   19.3987 H   0  0  0  0  0  0
  -22.7482  -29.2303   19.8705 H   0  0  0  0  0  0
  -25.1277  -36.1990   25.0855 H   0  0  0  0  0  0
  -20.9969  -28.3276   24.1419 H   0  0  0  0  0  0
  -20.5666  -26.2306   23.3627 H   0  0  0  0  0  0
  -21.6632  -26.7463   22.1219 H   0  0  0  0  0  0
  -19.6904  -25.6321   21.1240 H   0  0  0  0  0  0
  -19.6670  -27.3227   20.6767 H   0  0  0  0  0  0
  -17.4188  -26.6691   21.4037 H   0  0  0  0  0  0
  -18.0305  -26.0079   22.9033 H   0  0  0  0  0  0
  -19.7926  -30.7261   24.2314 H   0  0  0  0  0  0
  -17.5010  -31.6276   24.5179 H   0  0  0  0  0  0
  -15.5351  -30.3015   23.7635 H   0  0  0  0  0  0
  -15.8660  -28.0864   22.7022 H   0  0  0  0  0  0
  -24.5950  -30.6965   25.7753 H   0  0  0  0  0  0
  -24.8817  -32.2819   26.4806 H   0  0  0  0  0  0
  -25.8058  -30.8918   27.0218 H   0  0  0  0  0  0
  -26.2839  -29.6800   24.1127 H   0  0  0  0  0  0
  -27.4045  -29.7269   25.4554 H   0  0  0  0  0  0
  -27.8680  -30.4354   23.9243 H   0  0  0  0  0  0
  -27.2737  -33.3620   26.1997 H   0  0  0  0  0  0
  -28.3878  -32.6775   25.0261 H   0  0  0  0  0  0
  -28.0694  -31.8398   26.5373 H   0  0  0  0  0  0
  -28.2622  -38.0072   24.7513 H   0  0  0  0  0  0
  -28.1036  -36.2619   24.6309 H   0  0  0  0  0  0
  -27.2290  -37.1467   25.8874 H   0  0  0  0  0  0
  -20.9273  -29.8785   21.6940 H   0  0  0  0  0  0
  -26.0186  -38.2892   24.1393 H   0  0  0  0  0  0
  -29.9962  -19.3804   18.6028 H   0  0  0  0  0  0
  -28.6462  -21.3085   23.1162 H   0  0  0  0  0  0
  -30.2712  -21.8658   22.7173 H   0  0  0  0  0  0
  -30.0589  -20.5370   23.8326 H   0  0  0  0  0  0
  -26.1025  -16.9492   23.4441 H   0  0  0  0  0  0
  -27.4748  -15.8463   23.2800 H   0  0  0  0  0  0
  -27.0629  -16.9620   21.9732 H   0  0  0  0  0  0
  -27.0451  -17.9679   25.5856 H   0  0  0  0  0  0
  -28.6646  -18.6710   25.5939 H   0  0  0  0  0  0
  -28.4651  -16.9213   25.5395 H   0  0  0  0  0  0
  -29.3657  -23.6758   17.5958 H   0  0  0  0  0  0
  -28.9324  -25.3632   17.8245 H   0  0  0  0  0  0
  -27.7065  -24.1110   17.9986 H   0  0  0  0  0  0
  -30.1870  -18.1981   23.7848 H   0  0  0  0  0  0
  -29.7563  -16.7698   22.9389 H   0  0  0  0  0  0
  -30.7476  -16.7337   19.1775 H   0  0  0  0  0  0
  -29.0266  -16.6421   19.1712 H   0  0  0  0  0  0
  -28.6446  -22.8430   21.2817 H   0  0  0  0  0  0
  -27.9125  -22.3775   19.7881 H   0  0  0  0  0  0
  -30.9147  -22.1951   20.3934 H   0  0  0  0  0  0
  -30.1906  -21.7488   18.8776 H   0  0  0  0  0  0
  -28.6102  -25.2436   21.5467 H   0  0  0  0  0  0
  -27.2264  -24.9566   20.5533 H   0  0  0  0  0  0
  -27.6314  -18.9006   23.3906 H   0  0  0  0  0  0
  -30.1284  -24.4812   19.8250 H   0  0  0  0  0  0
  -28.9655  -15.3248   21.1019 H   0  0  0  0  0  0
  1 25  1  0  0  0
  1 30  2  0  0  0
  1 87  1  0  0  0
  2  3  1  0  0  0
  2 25  1  0  0  0
  2 88  1  0  0  0
  2 89  1  0  0  0
  3  4  1  0  0  0
  3 90  1  0  0  0
  3 91  1  0  0  0
  4  5  1  0  0  0
  4 92  1  0  0  0
  4 93  1  0  0  0
  5  6  1  0  0  0
  5 26  1  0  0  0
  5 94  1  0  0  0
  6 25  1  0  0  0
  6 95  1  0  0  0
  6 96  1  0  0  0
  7  8  2  0  0  0
  7 26  1  0  0  0
  7 29  1  0  0  0
  8  9  1  0  0  0
  8 22  1  0  0  0
  9 10  1  0  0  0
  9 27  2  0  0  0
 10 11  2  0  0  0
 10 15  1  0  0  0
 11 12  1  0  0  0
 11 97  1  0  0  0
 12 13  2  0  0  0
 12 98  1  0  0  0
 13 14  1  0  0  0
 13 31  1  0  0  0
 14 15  2  0  0  0
 14 99  1  0  0  0
 15100  1  0  0  0
 16 17  2  0  0  0
 16 21  1  0  0  0
 16 31  1  0  0  0
 17 18  1  0  0  0
 17101  1  0  0  0
 18 19  2  0  0  0
 18102  1  0  0  0
 19 20  1  0  0  0
 19 24  1  0  0  0
 20 21  2  0  0  0
 20103  1  0  0  0
 21 23  1  0  0  0
 22 28  1  0  0  0
 22 32  2  0  0  0
 26 27  1  0  0  0
 28104  1  0  0  0
 28105  1  0  0  0
 29106  1  0  0  0
 29107  1  0  0  0
 33 34  1  0  0  0
 33 66  1  0  0  0
 33 70  2  0  0  0
 34 36  1  0  0  0
 34 59  1  0  0  0
 34108  1  0  0  0
 35 44  2  0  0  0
 35 45  1  0  0  0
 35 68  1  0  0  0
 36 56  1  0  0  0
 36109  1  0  0  0
 37 39  1  0  0  0
 37 47  1  0  0  0
 37 66  1  0  0  0
 37110  1  0  0  0
 38 43  2  0  0  0
 38 46  1  0  0  0
 38 47  1  0  0  0
 39 64  1  0  0  0
 39 67  2  0  0  0
 40 52  1  0  0  0
 40 53  2  0  0  0
 40 58  1  0  0  0
 41111  1  0  0  0
 41112  1  0  0  0
 41113  1  0  0  0
 41 48  1  0  0  0
 42 43  1  0  0  0
 42 66  1  0  0  0
 42114  1  0  0  0
 42115  1  0  0  0
 43 44  1  0  0  0
 44116  1  0  0  0
 45 46  2  0  0  0
 45117  1  0  0  0
 46118  1  0  0  0
 47119  1  0  0  0
 47120  1  0  0  0
 48 56  1  0  0  0
 48 65  1  0  0  0
 48121  1  0  0  0
 49 50  1  0  0  0
 49 53  1  0  0  0
 49 64  1  0  0  0
 49122  1  0  0  0
 50 51  1  0  0  0
 50123  1  0  0  0
 50124  1  0  0  0
 51 52  1  0  0  0
 51125  1  0  0  0
 51126  1  0  0  0
 52127  1  0  0  0
 52128  1  0  0  0
 53 54  1  0  0  0
 54 55  2  0  0  0
 54129  1  0  0  0
 55 57  1  0  0  0
 55130  1  0  0  0
 56 69  2  0  0  0
 57 58  2  0  0  0
 57131  1  0  0  0
 58132  1  0  0  0
 59 60  1  0  0  0
 59 61  1  0  0  0
 59 62  1  0  0  0
 60133  1  0  0  0
 60134  1  0  0  0
 60135  1  0  0  0
 61136  1  0  0  0
 61137  1  0  0  0
 61138  1  0  0  0
 62139  1  0  0  0
 62140  1  0  0  0
 62141  1  0  0  0
 63 65  1  0  0  0
 63142  1  0  0  0
 63143  1  0  0  0
 63144  1  0  0  0
 64145  1  0  0  0
 65146  1  0  0  0
 68 83  1  0  0  0
 71 72  2  0  0  0
 71 86  1  0  0  0
 71147  1  0  0  0
 72 73  1  0  0  0
 72 80  1  0  0  0
 73 74  2  0  0  0
 73 79  1  0  0  0
 74 75  1  0  0  0
 74 86  1  0  0  0
 75148  1  0  0  0
 75149  1  0  0  0
 75150  1  0  0  0
 76151  1  0  0  0
 76152  1  0  0  0
 76153  1  0  0  0
 76 84  1  0  0  0
 77 84  1  0  0  0
 77154  1  0  0  0
 77155  1  0  0  0
 77156  1  0  0  0
 78157  1  0  0  0
 78158  1  0  0  0
 78159  1  0  0  0
 78 85  1  0  0  0
 79 84  1  0  0  0
 79160  1  0  0  0
 79161  1  0  0  0
 80 87  1  0  0  0
 80162  1  0  0  0
 80163  1  0  0  0
 81 82  1  0  0  0
 81 85  1  0  0  0
 81164  1  0  0  0
 81165  1  0  0  0
 82 86  1  0  0  0
 82166  1  0  0  0
 82167  1  0  0  0
 83 85  1  0  0  0
 83168  1  0  0  0
 83169  1  0  0  0
 84170  1  0  0  0
 85171  1  0  0  0
 87172  1  0  0  0
M  ISO  4   1 100  68 101  83 101  87 100
M  END
> <chiral flag>
0

> <version>
0

> <s_m_source_file>
/data/baiqing/PycharmProjects/Reinvent-master-3.2/result/LINK_invent/BTK/process_docking_weight1_custom_sum_contain_oxygen_bond_distance_aromatic_linkinvent_7_9_3/rearranged_h_0097.sdf

> <i_m_source_file_index>
21

> <r_mmod_Potential_Energy-OPLS-2005>
-69.9224319458008

> <r_mmod_Stretch_Energy-OPLS-2005>
40.7606430053711

> <r_mmod_Bend_Energy-OPLS-2005>
116.346168518066

> <r_mmod_Torsional_Energy-OPLS-2005>
256.915191650391

> <r_mmod_Improper_Torsional_Energy-OPLS-2005>
10.7816638946533

> <r_mmod_Van_der_Waal_Energy-OPLS-2005>
118.529975891113

> <r_mmod_Electrostatic_Energy-OPLS-2005>
-427.343200683594

> <r_mmod_Solvation_Energy-OPLS-2005>
-202.194869995117

> <b_mmod_Minimization_Converged-OPLS-2005>
0

> <r_mmod_RMS_Derivative-OPLS-2005>
4.14344930648804

$$$$
21
                    3D
 Structure written by MMmdl.
163171  0  0  1  0            999 V2000
  -30.6628  -14.5549   20.5313 C   0  0  0  0  0  0
  -30.4315  -12.3444   19.4403 C   0  0  0  0  0  0
  -29.5023  -12.4986   18.2174 C   0  0  0  0  0  0
  -28.0248  -12.3475   18.6278 C   0  0  0  0  0  0
  -27.6596  -13.2067   19.8682 C   0  0  2  0  0  0
  -28.7028  -13.0283   20.9963 C   0  0  0  0  0  0
  -25.2597  -13.8137   20.5675 C   0  0  0  0  0  0
  -24.1846  -13.0433   20.9177 C   0  0  0  0  0  0
  -24.6398  -11.6897   20.8739 C   0  0  0  0  0  0
  -23.9051  -10.4292   21.0413 C   0  0  0  0  0  0
  -24.3611   -9.4205   21.9182 C   0  0  0  0  0  0
  -23.6296   -8.2238   22.0745 C   0  0  0  0  0  0
  -22.4273   -8.0279   21.3542 C   0  0  0  0  0  0
  -21.9907   -9.0244   20.4643 C   0  0  0  0  0  0
  -22.7232  -10.2129   20.3060 C   0  0  0  0  0  0
  -21.6846   -6.0739   22.5281 C   0  0  0  0  0  0
  -21.4013   -6.5644   23.8217 C   0  0  0  0  0  0
  -21.3665   -5.6794   24.9182 C   0  0  0  0  0  0
  -21.6049   -4.3055   24.7233 C   0  0  0  0  0  0
  -21.8822   -3.8152   23.4352 C   0  0  0  0  0  0
  -21.9192   -4.6966   22.3410 C   0  0  0  0  0  0
  -22.7873  -13.5230   21.1852 C   0  0  0  0  0  0
  -22.1658   -4.2151   21.0986 F   0  0  0  0  0  0
  -21.5635   -3.4543   25.7750 F   0  0  0  0  0  0
  -30.0264  -13.3499   20.4387 N   0  0  0  0  0  0
  -26.3021  -12.9302   20.3326 N   0  0  0  0  0  0
  -25.9318  -11.6472   20.5749 N   0  0  0  0  0  0
  -22.0516  -12.8231   22.0404 N   0  0  0  0  0  0
  -25.4355  -15.1862   20.4130 N   0  0  0  0  0  0
  -31.8033  -14.7342   20.0992 O   0  0  0  0  0  0
  -21.6645   -6.8872   21.4239 O   0  0  0  0  0  0
  -22.3556  -14.5535   20.6707 O   0  0  0  0  0  0
  -24.6180  -31.8630   23.2037 C   0  0  0  0  0  0
  -25.9059  -32.4793   23.8350 C   0  0  1  0  0  0
  -27.2536  -27.3902   20.1220 C   0  0  0  0  0  0
  -25.5904  -33.8592   24.2288 N   0  0  0  0  0  0
  -23.4097  -30.4791   21.5445 C   0  0  2  0  0  0
  -24.8622  -28.9334   20.1169 C   0  0  0  0  0  0
  -22.7440  -29.4619   22.4990 C   0  0  0  0  0  0
  -18.0275  -28.1374   22.8497 C   0  0  0  0  0  0
  -24.1492  -36.7297   23.2637 C   0  0  0  0  0  0
  -25.9386  -30.8173   21.3616 C   0  0  0  0  0  0
  -26.0186  -29.4451   20.7139 C   0  0  0  0  0  0
  -27.2114  -28.6815   20.7091 C   0  0  0  0  0  0
  -26.0729  -26.8966   19.5205 C   0  0  0  0  0  0
  -24.8863  -27.6608   19.5157 C   0  0  0  0  0  0
  -23.6225  -29.8008   20.1626 C   0  0  0  0  0  0
  -25.4114  -36.3092   24.0333 C   0  0  1  0  0  0
  -20.5870  -28.3662   23.1332 C   0  0  2  0  0  0
  -20.6765  -26.9396   22.5431 C   0  0  0  0  0  0
  -19.5745  -26.6384   21.5223 C   0  0  0  0  0  0
  -18.1923  -26.7924   22.1624 C   0  0  0  0  0  0
  -19.1526  -28.8839   23.2906 C   0  0  0  0  0  0
  -18.9447  -30.1446   23.8914 C   0  0  0  0  0  0
  -17.6440  -30.6581   24.0567 C   0  0  0  0  0  0
  -25.9043  -34.9460   23.5111 C   0  0  0  0  0  0
  -16.5339  -29.9079   23.6324 C   0  0  0  0  0  0
  -16.7264  -28.6495   23.0351 C   0  0  0  0  0  0
  -26.4475  -31.6587   25.0695 C   0  0  0  0  0  0
  -25.3729  -31.3702   26.1436 C   0  0  0  0  0  0
  -27.0311  -30.3028   24.6091 C   0  0  0  0  0  0
  -27.6063  -32.4302   25.7445 C   0  0  0  0  0  0
  -27.5589  -37.1795   24.8458 C   0  0  0  0  0  0
  -21.4165  -29.3015   22.3729 N   0  0  0  0  0  0
  -26.4294  -37.3783   23.9415 N   0  0  0  0  0  0
  -24.6731  -31.0701   22.0945 N   0  0  0  0  0  0
  -23.4197  -28.8186   23.3065 O   0  0  0  0  0  0
  -28.4506  -26.6841   20.1691 O   0  0  0  0  0  0
  -26.5610  -34.8921   22.4676 O   0  0  0  0  0  0
  -23.5361  -32.1395   23.7407 O   0  0  0  0  0  0
  -29.4981  -20.4228   20.9377 C   0  0  0  0  0  0
  -27.9848  -21.3782   19.6106 C   0  0  0  0  0  0
  -28.7545  -19.3855   20.4055 C   0  0  0  0  0  0
  -27.7834  -20.0240   19.5558 C   0  0  0  0  0  0
  -27.1933  -19.2153   17.2677 C   0  0  0  0  0  0
  -25.3709  -20.1123   18.7933 C   0  0  0  0  0  0
  -28.8084  -17.8542   20.6744 C   0  0  0  0  0  0
  -28.4976  -24.2061   20.8315 C   0  0  0  0  0  0
  -29.5348  -23.0149   20.7669 C   0  0  0  0  0  0
  -30.1537  -17.0616   20.7940 C   0  0  0  0  0  0
  -28.6014  -25.3096   19.7202 C   0  0  0  0  0  0
  -26.7098  -19.3613   18.7159 C   0  0  0  0  0  0
  -29.0133  -21.6573   20.4776 N   0  0  0  0  0  0
  -29.8980  -15.5971   20.9420 N   0  0  0  0  0  0
  -31.4754  -12.4543   19.1390 H   0  0  0  0  0  0
  -30.3470  -11.3406   19.8589 H   0  0  0  0  0  0
  -29.7552  -11.7595   17.4543 H   0  0  0  0  0  0
  -29.6591  -13.4776   17.7603 H   0  0  0  0  0  0
  -27.8478  -11.2915   18.8397 H   0  0  0  0  0  0
  -27.3728  -12.5998   17.7904 H   0  0  0  0  0  0
  -27.6892  -14.2481   19.5456 H   0  0  0  0  0  0
  -28.6958  -12.0013   21.3653 H   0  0  0  0  0  0
  -28.4568  -13.6501   21.8581 H   0  0  0  0  0  0
  -25.2755   -9.5684   22.4750 H   0  0  0  0  0  0
  -24.0019   -7.4625   22.7448 H   0  0  0  0  0  0
  -21.0843   -8.8755   19.8951 H   0  0  0  0  0  0
  -22.3676  -10.9668   19.6174 H   0  0  0  0  0  0
  -21.1993   -7.6154   23.9716 H   0  0  0  0  0  0
  -21.1489   -6.0534   25.9084 H   0  0  0  0  0  0
  -22.0594   -2.7617   23.2856 H   0  0  0  0  0  0
  -22.4135  -11.9900   22.4798 H   0  0  0  0  0  0
  -21.1132  -13.1249   22.2607 H   0  0  0  0  0  0
  -24.6722  -15.8433   20.5310 H   0  0  0  0  0  0
  -26.2872  -15.6232   20.0862 H   0  0  0  0  0  0
  -26.7131  -32.5496   23.1110 H   0  0  0  0  0  0
  -25.0069  -33.9747   25.0443 H   0  0  0  0  0  0
  -22.6978  -31.2943   21.3966 H   0  0  0  0  0  0
  -23.3760  -35.9621   23.3281 H   0  0  0  0  0  0
  -24.3594  -36.8931   22.2056 H   0  0  0  0  0  0
  -23.7232  -37.6489   23.6663 H   0  0  0  0  0  0
  -26.0537  -31.5796   20.5901 H   0  0  0  0  0  0
  -26.8252  -30.8766   21.9809 H   0  0  0  0  0  0
  -28.1031  -29.0777   21.1748 H   0  0  0  0  0  0
  -26.0430  -25.9202   19.0623 H   0  0  0  0  0  0
  -23.9958  -27.2578   19.0548 H   0  0  0  0  0  0
  -23.7320  -30.5693   19.3962 H   0  0  0  0  0  0
  -22.7487  -29.2154   19.8707 H   0  0  0  0  0  0
  -25.1290  -36.1940   25.0825 H   0  0  0  0  0  0
  -20.9950  -28.3216   24.1460 H   0  0  0  0  0  0
  -20.5679  -26.2259   23.3614 H   0  0  0  0  0  0
  -21.6634  -26.7445   22.1213 H   0  0  0  0  0  0
  -19.6905  -25.6299   21.1241 H   0  0  0  0  0  0
  -19.6693  -27.3210   20.6766 H   0  0  0  0  0  0
  -17.4202  -26.6699   21.4012 H   0  0  0  0  0  0
  -18.0300  -26.0060   22.9009 H   0  0  0  0  0  0
  -19.7919  -30.7264   24.2292 H   0  0  0  0  0  0
  -17.4993  -31.6267   24.5158 H   0  0  0  0  0  0
  -15.5336  -30.2977   23.7643 H   0  0  0  0  0  0
  -15.8667  -28.0815   22.7055 H   0  0  0  0  0  0
  -24.5908  -30.7048   25.7753 H   0  0  0  0  0  0
  -24.8915  -32.2866   26.4867 H   0  0  0  0  0  0
  -25.8075  -30.8870   27.0198 H   0  0  0  0  0  0
  -26.2861  -29.6771   24.1165 H   0  0  0  0  0  0
  -27.4098  -29.7280   25.4549 H   0  0  0  0  0  0
  -27.8680  -30.4333   23.9230 H   0  0  0  0  0  0
  -27.2707  -33.3610   26.2025 H   0  0  0  0  0  0
  -28.3864  -32.6846   25.0257 H   0  0  0  0  0  0
  -28.0739  -31.8418   26.5347 H   0  0  0  0  0  0
  -28.2585  -38.0110   24.7538 H   0  0  0  0  0  0
  -28.1107  -36.2650   24.6237 H   0  0  0  0  0  0
  -27.2321  -37.1384   25.8862 H   0  0  0  0  0  0
  -20.9336  -29.8713   21.6922 H   0  0  0  0  0  0
  -26.0177  -38.2854   24.1431 H   0  0  0  0  0  0
  -30.3326  -20.3969   21.6272 H   0  0  0  0  0  0
  -27.4674  -22.1807   19.1034 H   0  0  0  0  0  0
  -28.1048  -18.6182   17.2185 H   0  0  0  0  0  0
  -27.4098  -20.1874   16.8229 H   0  0  0  0  0  0
  -26.4442  -18.7249   16.6470 H   0  0  0  0  0  0
  -25.0138  -20.1665   19.8235 H   0  0  0  0  0  0
  -24.6022  -19.6059   18.2096 H   0  0  0  0  0  0
  -25.4507  -21.1308   18.4126 H   0  0  0  0  0  0
  -28.2623  -17.3720   19.8659 H   0  0  0  0  0  0
  -28.2189  -17.6796   21.5760 H   0  0  0  0  0  0
  -28.6619  -24.7059   21.7872 H   0  0  0  0  0  0
  -27.4745  -23.8335   20.8954 H   0  0  0  0  0  0
  -30.0438  -22.9573   21.7301 H   0  0  0  0  0  0
  -30.3214  -23.2330   20.0435 H   0  0  0  0  0  0
  -30.7673  -17.2387   19.9095 H   0  0  0  0  0  0
  -30.7277  -17.4145   21.6524 H   0  0  0  0  0  0
  -27.9758  -25.0675   18.8624 H   0  0  0  0  0  0
  -29.6164  -25.2809   19.3216 H   0  0  0  0  0  0
  -26.5208  -18.3655   19.1122 H   0  0  0  0  0  0
  -28.9836  -15.3429   21.2854 H   0  0  0  0  0  0
  1 25  1  0  0  0
  1 30  2  0  0  0
  1 84  1  0  0  0
  2  3  1  0  0  0
  2 25  1  0  0  0
  2 85  1  0  0  0
  2 86  1  0  0  0
  3  4  1  0  0  0
  3 87  1  0  0  0
  3 88  1  0  0  0
  4  5  1  0  0  0
  4 89  1  0  0  0
  4 90  1  0  0  0
  5  6  1  0  0  0
  5 26  1  0  0  0
  5 91  1  0  0  0
  6 25  1  0  0  0
  6 92  1  0  0  0
  6 93  1  0  0  0
  7  8  2  0  0  0
  7 26  1  0  0  0
  7 29  1  0  0  0
  8  9  1  0  0  0
  8 22  1  0  0  0
  9 10  1  0  0  0
  9 27  2  0  0  0
 10 11  2  0  0  0
 10 15  1  0  0  0
 11 12  1  0  0  0
 11 94  1  0  0  0
 12 13  2  0  0  0
 12 95  1  0  0  0
 13 14  1  0  0  0
 13 31  1  0  0  0
 14 15  2  0  0  0
 14 96  1  0  0  0
 15 97  1  0  0  0
 16 17  2  0  0  0
 16 21  1  0  0  0
 16 31  1  0  0  0
 17 18  1  0  0  0
 17 98  1  0  0  0
 18 19  2  0  0  0
 18 99  1  0  0  0
 19 20  1  0  0  0
 19 24  1  0  0  0
 20 21  2  0  0  0
 20100  1  0  0  0
 21 23  1  0  0  0
 22 28  1  0  0  0
 22 32  2  0  0  0
 26 27  1  0  0  0
 28101  1  0  0  0
 28102  1  0  0  0
 29103  1  0  0  0
 29104  1  0  0  0
 33 34  1  0  0  0
 33 66  1  0  0  0
 33 70  2  0  0  0
 34 36  1  0  0  0
 34 59  1  0  0  0
 34105  1  0  0  0
 35 44  2  0  0  0
 35 45  1  0  0  0
 35 68  1  0  0  0
 36 56  1  0  0  0
 36106  1  0  0  0
 37 39  1  0  0  0
 37 47  1  0  0  0
 37 66  1  0  0  0
 37107  1  0  0  0
 38 43  2  0  0  0
 38 46  1  0  0  0
 38 47  1  0  0  0
 39 64  1  0  0  0
 39 67  2  0  0  0
 40 52  1  0  0  0
 40 53  2  0  0  0
 40 58  1  0  0  0
 41108  1  0  0  0
 41109  1  0  0  0
 41110  1  0  0  0
 41 48  1  0  0  0
 42 43  1  0  0  0
 42 66  1  0  0  0
 42111  1  0  0  0
 42112  1  0  0  0
 43 44  1  0  0  0
 44113  1  0  0  0
 45 46  2  0  0  0
 45114  1  0  0  0
 46115  1  0  0  0
 47116  1  0  0  0
 47117  1  0  0  0
 48 56  1  0  0  0
 48 65  1  0  0  0
 48118  1  0  0  0
 49 50  1  0  0  0
 49 53  1  0  0  0
 49 64  1  0  0  0
 49119  1  0  0  0
 50 51  1  0  0  0
 50120  1  0  0  0
 50121  1  0  0  0
 51 52  1  0  0  0
 51122  1  0  0  0
 51123  1  0  0  0
 52124  1  0  0  0
 52125  1  0  0  0
 53 54  1  0  0  0
 54 55  2  0  0  0
 54126  1  0  0  0
 55 57  1  0  0  0
 55127  1  0  0  0
 56 69  2  0  0  0
 57 58  2  0  0  0
 57128  1  0  0  0
 58129  1  0  0  0
 59 60  1  0  0  0
 59 61  1  0  0  0
 59 62  1  0  0  0
 60130  1  0  0  0
 60131  1  0  0  0
 60132  1  0  0  0
 61133  1  0  0  0
 61134  1  0  0  0
 61135  1  0  0  0
 62136  1  0  0  0
 62137  1  0  0  0
 62138  1  0  0  0
 63 65  1  0  0  0
 63139  1  0  0  0
 63140  1  0  0  0
 63141  1  0  0  0
 64142  1  0  0  0
 65143  1  0  0  0
 68 81  1  0  0  0
 71 73  2  0  0  0
 71 83  1  0  0  0
 71144  1  0  0  0
 72 74  2  0  0  0
 72 83  1  0  0  0
 72145  1  0  0  0
 73 74  1  0  0  0
 73 77  1  0  0  0
 74 82  1  0  0  0
 75146  1  0  0  0
 75147  1  0  0  0
 75148  1  0  0  0
 75 82  1  0  0  0
 76 82  1  0  0  0
 76149  1  0  0  0
 76150  1  0  0  0
 76151  1  0  0  0
 77 80  1  0  0  0
 77152  1  0  0  0
 77153  1  0  0  0
 78 79  1  0  0  0
 78 81  1  0  0  0
 78154  1  0  0  0
 78155  1  0  0  0
 79 83  1  0  0  0
 79156  1  0  0  0
 79157  1  0  0  0
 80 84  1  0  0  0
 80158  1  0  0  0
 80159  1  0  0  0
 81160  1  0  0  0
 81161  1  0  0  0
 82162  1  0  0  0
 84163  1  0  0  0
M  ISO  4   1 100  68 101  81 101  84 100
M  END
> <chiral flag>
0

> <version>
0

> <s_m_source_file>
/data/baiqing/PycharmProjects/Reinvent-master-3.2/result/LINK_invent/BTK/process_docking_weight1_custom_sum_contain_oxygen_bond_distance_aromatic_linkinvent_7_9_3/rearranged_h_0097.sdf

> <i_m_source_file_index>
22

> <r_mmod_Potential_Energy-OPLS-2005>
-64.8562774658203

> <r_mmod_Stretch_Energy-OPLS-2005>
53.3490447998047

> <r_mmod_Bend_Energy-OPLS-2005>
138.596008300781

> <r_mmod_Torsional_Energy-OPLS-2005>
221.282012939453

> <r_mmod_Improper_Torsional_Energy-OPLS-2005>
4.95567417144775

> <r_mmod_Van_der_Waal_Energy-OPLS-2005>
118.370300292969

> <r_mmod_Electrostatic_Energy-OPLS-2005>
-415.324340820312

> <r_mmod_Solvation_Energy-OPLS-2005>
-210.102783203125

> <b_mmod_Minimization_Converged-OPLS-2005>
0

> <r_mmod_RMS_Derivative-OPLS-2005>
2.41342520713806

$$$$
22
                    3D
 Structure written by MMmdl.
175183  0  0  1  0            999 V2000
  -30.6669  -14.5774   20.4777 C   0  0  0  0  0  0
  -30.4324  -12.3466   19.4466 C   0  0  0  0  0  0
  -29.5088  -12.4909   18.2165 C   0  0  0  0  0  0
  -28.0288  -12.3521   18.6234 C   0  0  0  0  0  0
  -27.6608  -13.2165   19.8615 C   0  0  2  0  0  0
  -28.7080  -13.0644   20.9915 C   0  0  0  0  0  0
  -25.2591  -13.8184   20.5635 C   0  0  0  0  0  0
  -24.1866  -13.0462   20.9139 C   0  0  0  0  0  0
  -24.6451  -11.6913   20.8747 C   0  0  0  0  0  0
  -23.9142  -10.4294   21.0433 C   0  0  0  0  0  0
  -24.3686   -9.4190   21.9197 C   0  0  0  0  0  0
  -23.6322   -8.2246   22.0768 C   0  0  0  0  0  0
  -22.4292   -8.0310   21.3570 C   0  0  0  0  0  0
  -21.9955   -9.0300   20.4671 C   0  0  0  0  0  0
  -22.7331  -10.2147   20.3066 C   0  0  0  0  0  0
  -21.6858   -6.0756   22.5295 C   0  0  0  0  0  0
  -21.4023   -6.5643   23.8234 C   0  0  0  0  0  0
  -21.3649   -5.6783   24.9185 C   0  0  0  0  0  0
  -21.6033   -4.3053   24.7213 C   0  0  0  0  0  0
  -21.8830   -3.8153   23.4337 C   0  0  0  0  0  0
  -21.9191   -4.6980   22.3404 C   0  0  0  0  0  0
  -22.7874  -13.5241   21.1762 C   0  0  0  0  0  0
  -22.1658   -4.2169   21.0982 F   0  0  0  0  0  0
  -21.5607   -3.4526   25.7725 F   0  0  0  0  0  0
  -30.0288  -13.3714   20.4249 N   0  0  0  0  0  0
  -26.3049  -12.9380   20.3318 N   0  0  0  0  0  0
  -25.9383  -11.6529   20.5783 N   0  0  0  0  0  0
  -22.0528  -12.8271   22.0345 N   0  0  0  0  0  0
  -25.4240  -15.1914   20.3996 N   0  0  0  0  0  0
  -31.8243  -14.7183   20.0787 O   0  0  0  0  0  0
  -21.6643   -6.8916   21.4265 O   0  0  0  0  0  0
  -22.3568  -14.5558   20.6621 O   0  0  0  0  0  0
  -24.6195  -31.8660   23.2030 C   0  0  0  0  0  0
  -25.9079  -32.4814   23.8344 C   0  0  1  0  0  0
  -27.2389  -27.3776   20.1247 C   0  0  0  0  0  0
  -25.5922  -33.8607   24.2288 N   0  0  0  0  0  0
  -23.4108  -30.4874   21.5421 C   0  0  2  0  0  0
  -24.8636  -28.9354   20.1208 C   0  0  0  0  0  0
  -22.7420  -29.4694   22.4936 C   0  0  0  0  0  0
  -18.0290  -28.1373   22.8513 C   0  0  0  0  0  0
  -24.1479  -36.7285   23.2641 C   0  0  0  0  0  0
  -25.9444  -30.8118   21.3662 C   0  0  0  0  0  0
  -26.0251  -29.4395   20.7200 C   0  0  0  0  0  0
  -27.2193  -28.6687   20.7188 C   0  0  0  0  0  0
  -26.0608  -26.8986   19.5190 C   0  0  0  0  0  0
  -24.8768  -27.6641   19.5192 C   0  0  0  0  0  0
  -23.6268  -29.8104   20.1621 C   0  0  0  0  0  0
  -25.4109  -36.3093   24.0335 C   0  0  1  0  0  0
  -20.5881  -28.3710   23.1280 C   0  0  2  0  0  0
  -20.6774  -26.9437   22.5410 C   0  0  0  0  0  0
  -19.5749  -26.6393   21.5209 C   0  0  0  0  0  0
  -18.1930  -26.7921   22.1630 C   0  0  0  0  0  0
  -19.1540  -28.8849   23.2900 C   0  0  0  0  0  0
  -18.9475  -30.1442   23.8938 C   0  0  0  0  0  0
  -17.6488  -30.6601   24.0566 C   0  0  0  0  0  0
  -25.9056  -34.9469   23.5119 C   0  0  0  0  0  0
  -16.5373  -29.9106   23.6317 C   0  0  0  0  0  0
  -16.7280  -28.6495   23.0393 C   0  0  0  0  0  0
  -26.4473  -31.6614   25.0708 C   0  0  0  0  0  0
  -25.3697  -31.3791   26.1438 C   0  0  0  0  0  0
  -27.0323  -30.3040   24.6150 C   0  0  0  0  0  0
  -27.6033  -32.4350   25.7479 C   0  0  0  0  0  0
  -27.5576  -37.1799   24.8471 C   0  0  0  0  0  0
  -21.4148  -29.3076   22.3659 N   0  0  0  0  0  0
  -26.4287  -37.3791   23.9411 N   0  0  0  0  0  0
  -24.6758  -31.0711   22.0955 N   0  0  0  0  0  0
  -23.4158  -28.8277   23.3043 O   0  0  0  0  0  0
  -28.3686  -26.5695   20.1164 O   0  0  0  0  0  0
  -26.5626  -34.8938   22.4690 O   0  0  0  0  0  0
  -23.5368  -32.1460   23.7375 O   0  0  0  0  0  0
  -31.3313  -21.3867   21.2918 C   0  0  0  0  0  0
  -29.3636  -20.6861   20.5577 C   0  0  0  0  0  0
  -30.1270  -21.8333   20.6748 C   0  0  0  0  0  0
  -31.2611  -20.0535   21.5954 C   0  0  0  0  0  0
  -31.9406  -19.2932   23.8841 C   0  0  0  0  0  0
  -33.7028  -19.5850   22.1041 C   0  0  0  0  0  0
  -32.6055  -25.1117   18.6688 C   0  0  0  0  0  0
  -30.4308  -25.8304   17.5981 C   0  0  0  0  0  0
  -28.4625  -23.9380   20.4396 C   0  0  0  0  0  0
  -30.5281  -23.6350   18.9031 C   0  0  0  0  0  0
  -29.5280  -18.1907   21.2963 C   0  0  0  0  0  0
  -30.1848  -17.0842   20.3880 C   0  0  0  0  0  0
  -28.3307  -25.4134   21.0040 C   0  0  0  0  0  0
  -29.9016  -23.3252   20.2832 C   0  0  2  0  0  0
  -32.2377  -19.2111   22.3803 C   0  0  0  0  0  0
  -31.0725  -25.0794   18.7709 C   0  0  0  0  0  0
  -30.0395  -19.5818   21.1228 N   0  0  0  0  0  0
  -29.8902  -15.6598   20.7551 N   0  0  0  0  0  0
  -31.4816  -12.4314   19.1542 H   0  0  0  0  0  0
  -30.3308  -11.3509   19.8814 H   0  0  0  0  0  0
  -29.7625  -11.7360   17.4701 H   0  0  0  0  0  0
  -29.6648  -13.4612   17.7415 H   0  0  0  0  0  0
  -27.8452  -11.2990   18.8396 H   0  0  0  0  0  0
  -27.3859  -12.6066   17.7799 H   0  0  0  0  0  0
  -27.6826  -14.2537   19.5240 H   0  0  0  0  0  0
  -28.7000  -12.0490   21.3915 H   0  0  0  0  0  0
  -28.4776  -13.7135   21.8362 H   0  0  0  0  0  0
  -25.2851   -9.5619   22.4749 H   0  0  0  0  0  0
  -24.0018   -7.4619   22.7490 H   0  0  0  0  0  0
  -21.0869   -8.8895   19.8958 H   0  0  0  0  0  0
  -22.3883  -10.9706   19.6149 H   0  0  0  0  0  0
  -21.2065   -7.6152   23.9759 H   0  0  0  0  0  0
  -21.1430   -6.0501   25.9098 H   0  0  0  0  0  0
  -22.0618   -2.7610   23.2839 H   0  0  0  0  0  0
  -22.4144  -11.9965   22.4798 H   0  0  0  0  0  0
  -21.1141  -13.1305   22.2527 H   0  0  0  0  0  0
  -24.6472  -15.8355   20.5094 H   0  0  0  0  0  0
  -26.2653  -15.6390   20.0640 H   0  0  0  0  0  0
  -26.7163  -32.5481   23.1100 H   0  0  0  0  0  0
  -25.0059  -33.9760   25.0426 H   0  0  0  0  0  0
  -22.7035  -31.3075   21.3946 H   0  0  0  0  0  0
  -23.3747  -35.9614   23.3318 H   0  0  0  0  0  0
  -24.3575  -36.8884   22.2057 H   0  0  0  0  0  0
  -23.7236  -37.6496   23.6645 H   0  0  0  0  0  0
  -26.0692  -31.5700   20.5920 H   0  0  0  0  0  0
  -26.8279  -30.8670   21.9910 H   0  0  0  0  0  0
  -28.1104  -29.0571   21.1912 H   0  0  0  0  0  0
  -26.0568  -25.9225   19.0536 H   0  0  0  0  0  0
  -23.9807  -27.2655   19.0649 H   0  0  0  0  0  0
  -23.7417  -30.5797   19.3977 H   0  0  0  0  0  0
  -22.7469  -29.2377   19.8636 H   0  0  0  0  0  0
  -25.1280  -36.1941   25.0828 H   0  0  0  0  0  0
  -21.0011  -28.3305   24.1384 H   0  0  0  0  0  0
  -20.5659  -26.2347   23.3626 H   0  0  0  0  0  0
  -21.6645  -26.7461   22.1216 H   0  0  0  0  0  0
  -19.6922  -25.6302   21.1247 H   0  0  0  0  0  0
  -19.6658  -27.3189   20.6721 H   0  0  0  0  0  0
  -17.4197  -26.6700   21.4027 H   0  0  0  0  0  0
  -18.0334  -26.0038   22.9004 H   0  0  0  0  0  0
  -19.7962  -30.7220   24.2346 H   0  0  0  0  0  0
  -17.5061  -31.6284   24.5159 H   0  0  0  0  0  0
  -15.5383  -30.3048   23.7593 H   0  0  0  0  0  0
  -15.8672  -28.0793   22.7158 H   0  0  0  0  0  0
  -24.5820  -30.7211   25.7756 H   0  0  0  0  0  0
  -24.8958  -32.2999   26.4847 H   0  0  0  0  0  0
  -25.7994  -30.8951   27.0215 H   0  0  0  0  0  0
  -26.2915  -29.6802   24.1146 H   0  0  0  0  0  0
  -27.4020  -29.7282   25.4640 H   0  0  0  0  0  0
  -27.8761  -30.4343   23.9375 H   0  0  0  0  0  0
  -27.2637  -33.3631   26.2078 H   0  0  0  0  0  0
  -28.3825  -32.6961   25.0310 H   0  0  0  0  0  0
  -28.0726  -31.8479   26.5377 H   0  0  0  0  0  0
  -28.2608  -38.0081   24.7510 H   0  0  0  0  0  0
  -28.1061  -36.2623   24.6290 H   0  0  0  0  0  0
  -27.2305  -37.1433   25.8879 H   0  0  0  0  0  0
  -20.9322  -29.8770   21.6843 H   0  0  0  0  0  0
  -26.0161  -38.2861   24.1417 H   0  0  0  0  0  0
  -32.1724  -22.0188   21.5426 H   0  0  0  0  0  0
  -28.3717  -20.5568   20.1455 H   0  0  0  0  0  0
  -30.9335  -18.9455   24.1175 H   0  0  0  0  0  0
  -32.0167  -20.3210   24.2372 H   0  0  0  0  0  0
  -32.6382  -18.6863   24.4619 H   0  0  0  0  0  0
  -33.9528  -19.4459   21.0494 H   0  0  0  0  0  0
  -34.3772  -18.9565   22.6875 H   0  0  0  0  0  0
  -33.9131  -20.6224   22.3694 H   0  0  0  0  0  0
  -32.9750  -26.1367   18.6029 H   0  0  0  0  0  0
  -32.9613  -24.5719   17.7915 H   0  0  0  0  0  0
  -33.0685  -24.6554   19.5447 H   0  0  0  0  0  0
  -30.8218  -26.8467   17.5267 H   0  0  0  0  0  0
  -29.3510  -25.9059   17.7281 H   0  0  0  0  0  0
  -30.6238  -25.3317   16.6461 H   0  0  0  0  0  0
  -27.8694  -23.8071   19.5342 H   0  0  0  0  0  0
  -27.9659  -23.3058   21.1760 H   0  0  0  0  0  0
  -29.8131  -23.3978   18.1132 H   0  0  0  0  0  0
  -31.3537  -22.9432   18.7292 H   0  0  0  0  0  0
  -29.6918  -17.9221   22.3390 H   0  0  0  0  0  0
  -28.4433  -18.2061   21.1753 H   0  0  0  0  0  0
  -31.2632  -17.2274   20.3425 H   0  0  0  0  0  0
  -29.8397  -17.2456   19.3664 H   0  0  0  0  0  0
  -29.1146  -25.5714   21.7460 H   0  0  0  0  0  0
  -27.4067  -25.4479   21.5859 H   0  0  0  0  0  0
  -30.5110  -23.8358   21.0299 H   0  0  0  0  0  0
  -32.1391  -18.1635   22.1036 H   0  0  0  0  0  0
  -30.8167  -25.6348   19.6730 H   0  0  0  0  0  0
  -28.9477  -15.4454   21.0373 H   0  0  0  0  0  0
  1 25  1  0  0  0
  1 30  2  0  0  0
  1 88  1  0  0  0
  2  3  1  0  0  0
  2 25  1  0  0  0
  2 89  1  0  0  0
  2 90  1  0  0  0
  3  4  1  0  0  0
  3 91  1  0  0  0
  3 92  1  0  0  0
  4  5  1  0  0  0
  4 93  1  0  0  0
  4 94  1  0  0  0
  5  6  1  0  0  0
  5 26  1  0  0  0
  5 95  1  0  0  0
  6 25  1  0  0  0
  6 96  1  0  0  0
  6 97  1  0  0  0
  7  8  2  0  0  0
  7 26  1  0  0  0
  7 29  1  0  0  0
  8  9  1  0  0  0
  8 22  1  0  0  0
  9 10  1  0  0  0
  9 27  2  0  0  0
 10 11  2  0  0  0
 10 15  1  0  0  0
 11 12  1  0  0  0
 11 98  1  0  0  0
 12 13  2  0  0  0
 12 99  1  0  0  0
 13 14  1  0  0  0
 13 31  1  0  0  0
 14 15  2  0  0  0
 14100  1  0  0  0
 15101  1  0  0  0
 16 17  2  0  0  0
 16 21  1  0  0  0
 16 31  1  0  0  0
 17 18  1  0  0  0
 17102  1  0  0  0
 18 19  2  0  0  0
 18103  1  0  0  0
 19 20  1  0  0  0
 19 24  1  0  0  0
 20 21  2  0  0  0
 20104  1  0  0  0
 21 23  1  0  0  0
 22 28  1  0  0  0
 22 32  2  0  0  0
 26 27  1  0  0  0
 28105  1  0  0  0
 28106  1  0  0  0
 29107  1  0  0  0
 29108  1  0  0  0
 33 34  1  0  0  0
 33 66  1  0  0  0
 33 70  2  0  0  0
 34 36  1  0  0  0
 34 59  1  0  0  0
 34109  1  0  0  0
 35 44  2  0  0  0
 35 45  1  0  0  0
 35 68  1  0  0  0
 36 56  1  0  0  0
 36110  1  0  0  0
 37 39  1  0  0  0
 37 47  1  0  0  0
 37 66  1  0  0  0
 37111  1  0  0  0
 38 43  2  0  0  0
 38 46  1  0  0  0
 38 47  1  0  0  0
 39 64  1  0  0  0
 39 67  2  0  0  0
 40 52  1  0  0  0
 40 53  2  0  0  0
 40 58  1  0  0  0
 41112  1  0  0  0
 41113  1  0  0  0
 41114  1  0  0  0
 41 48  1  0  0  0
 42 43  1  0  0  0
 42 66  1  0  0  0
 42115  1  0  0  0
 42116  1  0  0  0
 43 44  1  0  0  0
 44117  1  0  0  0
 45 46  2  0  0  0
 45118  1  0  0  0
 46119  1  0  0  0
 47120  1  0  0  0
 47121  1  0  0  0
 48 56  1  0  0  0
 48 65  1  0  0  0
 48122  1  0  0  0
 49 50  1  0  0  0
 49 53  1  0  0  0
 49 64  1  0  0  0
 49123  1  0  0  0
 50 51  1  0  0  0
 50124  1  0  0  0
 50125  1  0  0  0
 51 52  1  0  0  0
 51126  1  0  0  0
 51127  1  0  0  0
 52128  1  0  0  0
 52129  1  0  0  0
 53 54  1  0  0  0
 54 55  2  0  0  0
 54130  1  0  0  0
 55 57  1  0  0  0
 55131  1  0  0  0
 56 69  2  0  0  0
 57 58  2  0  0  0
 57132  1  0  0  0
 58133  1  0  0  0
 59 60  1  0  0  0
 59 61  1  0  0  0
 59 62  1  0  0  0
 60134  1  0  0  0
 60135  1  0  0  0
 60136  1  0  0  0
 61137  1  0  0  0
 61138  1  0  0  0
 61139  1  0  0  0
 62140  1  0  0  0
 62141  1  0  0  0
 62142  1  0  0  0
 63 65  1  0  0  0
 63143  1  0  0  0
 63144  1  0  0  0
 63145  1  0  0  0
 64146  1  0  0  0
 65147  1  0  0  0
 68 83  1  0  0  0
 71 73  1  0  0  0
 71 74  2  0  0  0
 71148  1  0  0  0
 72 73  2  0  0  0
 72 87  1  0  0  0
 72149  1  0  0  0
 73 84  1  0  0  0
 74 85  1  0  0  0
 74 87  1  0  0  0
 75150  1  0  0  0
 75151  1  0  0  0
 75152  1  0  0  0
 75 85  1  0  0  0
 76 85  1  0  0  0
 76153  1  0  0  0
 76154  1  0  0  0
 76155  1  0  0  0
 77156  1  0  0  0
 77157  1  0  0  0
 77158  1  0  0  0
 77 86  1  0  0  0
 78 86  1  0  0  0
 78159  1  0  0  0
 78160  1  0  0  0
 78161  1  0  0  0
 79 83  1  0  0  0
 79162  1  0  0  0
 79163  1  0  0  0
 79 84  1  0  0  0
 80 84  1  0  0  0
 80 86  1  0  0  0
 80164  1  0  0  0
 80165  1  0  0  0
 81 82  1  0  0  0
 81 87  1  0  0  0
 81166  1  0  0  0
 81167  1  0  0  0
 82 88  1  0  0  0
 82168  1  0  0  0
 82169  1  0  0  0
 83170  1  0  0  0
 83171  1  0  0  0
 84172  1  0  0  0
 85173  1  0  0  0
 86174  1  0  0  0
 88175  1  0  0  0
M  ISO  4   1 100  68 101  83 101  88 100
M  END
> <chiral flag>
0

> <version>
0

> <s_m_source_file>
/data/baiqing/PycharmProjects/Reinvent-master-3.2/result/LINK_invent/BTK/process_docking_weight1_custom_sum_contain_oxygen_bond_distance_aromatic_linkinvent_7_9_3/rearranged_h_0097.sdf

> <i_m_source_file_index>
23

> <r_mmod_Potential_Energy-OPLS-2005>
12.8936576843262

> <r_mmod_Stretch_Energy-OPLS-2005>
60.3931007385254

> <r_mmod_Bend_Energy-OPLS-2005>
135.691436767578

> <r_mmod_Torsional_Energy-OPLS-2005>
278.228302001953

> <r_mmod_Improper_Torsional_Energy-OPLS-2005>
6.84780550003052

> <r_mmod_Van_der_Waal_Energy-OPLS-2005>
114.063583374023

> <r_mmod_Electrostatic_Energy-OPLS-2005>
-412.724212646484

> <r_mmod_Solvation_Energy-OPLS-2005>
-199.476699829102

> <b_mmod_Minimization_Converged-OPLS-2005>
0

> <r_mmod_RMS_Derivative-OPLS-2005>
4.21844577789307

$$$$
23
                    3D
 Structure written by MMmdl.
167175  0  0  1  0            999 V2000
  -30.5645  -14.6361   20.4525 C   0  0  0  0  0  0
  -30.4286  -12.3847   19.4695 C   0  0  0  0  0  0
  -29.5048  -12.4741   18.2313 C   0  0  0  0  0  0
  -28.0150  -12.3369   18.6075 C   0  0  0  0  0  0
  -27.6363  -13.1959   19.8415 C   0  0  2  0  0  0
  -28.6652  -13.0246   20.9729 C   0  0  0  0  0  0
  -25.2485  -13.8051   20.5573 C   0  0  0  0  0  0
  -24.1736  -13.0385   20.9113 C   0  0  0  0  0  0
  -24.6280  -11.6882   20.8680 C   0  0  0  0  0  0
  -23.8928  -10.4278   21.0367 C   0  0  0  0  0  0
  -24.3507   -9.4149   21.9147 C   0  0  0  0  0  0
  -23.6200   -8.2156   22.0736 C   0  0  0  0  0  0
  -22.4167   -8.0152   21.3541 C   0  0  0  0  0  0
  -21.9799   -9.0133   20.4639 C   0  0  0  0  0  0
  -22.7117  -10.2030   20.3037 C   0  0  0  0  0  0
  -21.6832   -6.0545   22.5241 C   0  0  0  0  0  0
  -21.3988   -6.5524   23.8133 C   0  0  0  0  0  0
  -21.3736   -5.6706   24.9158 C   0  0  0  0  0  0
  -21.6071   -4.2975   24.7221 C   0  0  0  0  0  0
  -21.8835   -3.8026   23.4396 C   0  0  0  0  0  0
  -21.9198   -4.6785   22.3413 C   0  0  0  0  0  0
  -22.7805  -13.5223   21.1737 C   0  0  0  0  0  0
  -22.1670   -4.1987   21.0992 F   0  0  0  0  0  0
  -21.5700   -3.4530   25.7782 F   0  0  0  0  0  0
  -29.9835  -13.4023   20.4336 N   0  0  0  0  0  0
  -26.2819  -12.9230   20.3135 N   0  0  0  0  0  0
  -25.9178  -11.6415   20.5638 N   0  0  0  0  0  0
  -22.0537  -12.8295   22.0372 N   0  0  0  0  0  0
  -25.4259  -15.1788   20.3787 N   0  0  0  0  0  0
  -31.7667  -14.7883   20.1857 O   0  0  0  0  0  0
  -21.6636   -6.8728   21.4169 O   0  0  0  0  0  0
  -22.3470  -14.5518   20.6505 O   0  0  0  0  0  0
  -24.6419  -31.8525   23.1842 C   0  0  0  0  0  0
  -25.9286  -32.4722   23.8303 C   0  0  1  0  0  0
  -27.0736  -27.1169   20.1346 C   0  0  0  0  0  0
  -25.6071  -33.8479   24.2240 N   0  0  0  0  0  0
  -23.4237  -30.4858   21.5378 C   0  0  2  0  0  0
  -24.8167  -28.9008   20.0839 C   0  0  0  0  0  0
  -22.7532  -29.4744   22.4925 C   0  0  0  0  0  0
  -18.0440  -28.1171   22.8509 C   0  0  0  0  0  0
  -24.1456  -36.7239   23.2620 C   0  0  0  0  0  0
  -25.9695  -30.6973   21.3894 C   0  0  0  0  0  0
  -25.9961  -29.3095   20.7278 C   0  0  0  0  0  0
  -27.1308  -28.4275   20.7291 C   0  0  0  0  0  0
  -25.8872  -26.8069   19.4396 C   0  0  0  0  0  0
  -24.7740  -27.6663   19.4186 C   0  0  0  0  0  0
  -23.6307  -29.8367   20.1426 C   0  0  0  0  0  0
  -25.4111  -36.3032   24.0309 C   0  0  1  0  0  0
  -20.5987  -28.3810   23.1259 C   0  0  2  0  0  0
  -20.6935  -26.9548   22.5499 C   0  0  0  0  0  0
  -19.5978  -26.6275   21.5236 C   0  0  0  0  0  0
  -18.2227  -26.7611   22.1826 C   0  0  0  0  0  0
  -19.1595  -28.8823   23.2809 C   0  0  0  0  0  0
  -18.9399  -30.1461   23.8710 C   0  0  0  0  0  0
  -17.6360  -30.6512   24.0274 C   0  0  0  0  0  0
  -25.9095  -34.9451   23.5128 C   0  0  0  0  0  0
  -16.5329  -29.8853   23.6055 C   0  0  0  0  0  0
  -16.7381  -28.6191   23.0339 C   0  0  0  0  0  0
  -26.4590  -31.6499   25.0758 C   0  0  0  0  0  0
  -25.3762  -31.3731   26.1488 C   0  0  0  0  0  0
  -27.0458  -30.2862   24.6333 C   0  0  0  0  0  0
  -27.6147  -32.4256   25.7538 C   0  0  0  0  0  0
  -27.5581  -37.1787   24.8513 C   0  0  0  0  0  0
  -21.4222  -29.3228   22.3686 N   0  0  0  0  0  0
  -26.4263  -37.3786   23.9461 N   0  0  0  0  0  0
  -24.7022  -31.0425   22.0917 N   0  0  0  0  0  0
  -23.4210  -28.8334   23.3099 O   0  0  0  0  0  0
  -28.0613  -26.0961   20.1805 O   0  0  0  0  0  0
  -26.5723  -34.8917   22.4714 O   0  0  0  0  0  0
  -23.5613  -32.1540   23.7092 O   0  0  0  0  0  0
  -28.8954  -20.8209   20.0497 C   0  0  0  0  0  0
  -27.5969  -21.6715   21.8713 C   0  0  0  0  0  0
  -28.1592  -21.9282   20.6024 C   0  0  0  0  0  0
  -28.9677  -19.5246   20.6723 C   0  0  0  0  0  0
  -28.1255  -19.3743   21.7883 C   0  0  0  0  0  0
  -28.0209  -15.8347   23.4257 C   0  0  0  0  0  0
  -26.4854  -22.7117   19.0450 C   0  0  0  0  0  0
  -28.8277  -23.6143   18.7367 C   0  0  0  0  0  0
  -30.0430  -18.4204   20.2741 C   0  0  0  0  0  0
  -27.5463  -18.0162   22.1769 C   0  0  0  0  0  0
  -28.0281  -17.3619   23.4723 C   0  0  0  0  0  0
  -29.7686  -16.9687   19.6389 C   0  0  0  0  0  0
  -27.6443  -24.6617   20.5903 C   0  0  0  0  0  0
  -27.7779  -23.2419   19.7683 C   0  0  0  0  0  0
  -27.5462  -20.4268   22.4102 N   0  0  0  0  0  0
  -29.7025  -15.7059   20.4715 N   0  0  0  0  0  0
  -31.4654  -12.5356   19.1594 H   0  0  0  0  0  0
  -30.3941  -11.3898   19.9229 H   0  0  0  0  0  0
  -29.7707  -11.7060   17.4988 H   0  0  0  0  0  0
  -29.6585  -13.4331   17.7321 H   0  0  0  0  0  0
  -27.8085  -11.2827   18.7981 H   0  0  0  0  0  0
  -27.3956  -12.6146   17.7528 H   0  0  0  0  0  0
  -27.6611  -14.2356   19.5007 H   0  0  0  0  0  0
  -28.6742  -11.9835   21.3064 H   0  0  0  0  0  0
  -28.3884  -13.6050   21.8462 H   0  0  0  0  0  0
  -25.2635   -9.5585   22.4764 H   0  0  0  0  0  0
  -23.9860   -7.4549   22.7525 H   0  0  0  0  0  0
  -21.0711   -8.8602   19.9021 H   0  0  0  0  0  0
  -22.3504  -10.9504   19.6160 H   0  0  0  0  0  0
  -21.1934   -7.6060   23.9559 H   0  0  0  0  0  0
  -21.1591   -6.0521   25.9052 H   0  0  0  0  0  0
  -22.0568   -2.7489   23.2963 H   0  0  0  0  0  0
  -22.4219  -11.9993   22.4778 H   0  0  0  0  0  0
  -21.1151  -13.1313   22.2664 H   0  0  0  0  0  0
  -24.6343  -15.8169   20.3896 H   0  0  0  0  0  0
  -26.2272  -15.5650   19.9018 H   0  0  0  0  0  0
  -26.7338  -32.5203   23.0997 H   0  0  0  0  0  0
  -25.0293  -33.9668   25.0422 H   0  0  0  0  0  0
  -22.7308  -31.3227   21.4138 H   0  0  0  0  0  0
  -23.3747  -35.9552   23.3324 H   0  0  0  0  0  0
  -24.3504  -36.8847   22.2036 H   0  0  0  0  0  0
  -23.7143  -37.6410   23.6611 H   0  0  0  0  0  0
  -26.1502  -31.4451   20.6165 H   0  0  0  0  0  0
  -26.8400  -30.7137   22.0363 H   0  0  0  0  0  0
  -28.0317  -28.7178   21.2431 H   0  0  0  0  0  0
  -25.7993  -25.8631   18.9166 H   0  0  0  0  0  0
  -23.9022  -27.3713   18.8437 H   0  0  0  0  0  0
  -23.7943  -30.6307   19.4128 H   0  0  0  0  0  0
  -22.7198  -29.3351   19.8210 H   0  0  0  0  0  0
  -25.1193  -36.1956   25.0782 H   0  0  0  0  0  0
  -21.0173  -28.3420   24.1364 H   0  0  0  0  0  0
  -20.5476  -26.2777   23.3970 H   0  0  0  0  0  0
  -21.6949  -26.7402   22.1705 H   0  0  0  0  0  0
  -19.7411  -25.6164   21.1371 H   0  0  0  0  0  0
  -19.6664  -27.3073   20.6771 H   0  0  0  0  0  0
  -17.4392  -26.5958   21.4426 H   0  0  0  0  0  0
  -18.0998  -25.9878   22.9415 H   0  0  0  0  0  0
  -19.7877  -30.7318   24.1997 H   0  0  0  0  0  0
  -17.4842  -31.6325   24.4583 H   0  0  0  0  0  0
  -15.5265  -30.2679   23.7136 H   0  0  0  0  0  0
  -15.8916  -28.0271   22.7179 H   0  0  0  0  0  0
  -24.5963  -30.7027   25.7861 H   0  0  0  0  0  0
  -24.8955  -32.2923   26.4780 H   0  0  0  0  0  0
  -25.8081  -30.9045   27.0323 H   0  0  0  0  0  0
  -26.3110  -29.6607   24.1272 H   0  0  0  0  0  0
  -27.3992  -29.7133   25.4895 H   0  0  0  0  0  0
  -27.9024  -30.4112   23.9735 H   0  0  0  0  0  0
  -27.2754  -33.3560   26.2061 H   0  0  0  0  0  0
  -28.3957  -32.6772   25.0368 H   0  0  0  0  0  0
  -28.0783  -31.8417   26.5492 H   0  0  0  0  0  0
  -28.2615  -38.0063   24.7526 H   0  0  0  0  0  0
  -28.1070  -36.2619   24.6340 H   0  0  0  0  0  0
  -27.2358  -37.1417   25.8930 H   0  0  0  0  0  0
  -20.9415  -29.9203   21.7086 H   0  0  0  0  0  0
  -26.0187  -38.2872   24.1426 H   0  0  0  0  0  0
  -29.3824  -20.9574   19.1062 H   0  0  0  0  0  0
  -27.0924  -22.4295   22.4479 H   0  0  0  0  0  0
  -27.1361  -15.4995   22.8809 H   0  0  0  0  0  0
  -27.9567  -15.4091   24.4334 H   0  0  0  0  0  0
  -28.8941  -15.4172   22.9246 H   0  0  0  0  0  0
  -26.5770  -21.6713   18.6981 H   0  0  0  0  0  0
  -26.2070  -23.2701   18.1542 H   0  0  0  0  0  0
  -25.6226  -22.6759   19.7066 H   0  0  0  0  0  0
  -29.0657  -22.8145   18.0381 H   0  0  0  0  0  0
  -29.7042  -23.9417   19.2973 H   0  0  0  0  0  0
  -28.5119  -24.4616   18.1288 H   0  0  0  0  0  0
  -30.7060  -18.2690   21.1237 H   0  0  0  0  0  0
  -30.6828  -18.9514   19.5614 H   0  0  0  0  0  0
  -27.5610  -17.3394   21.3195 H   0  0  0  0  0  0
  -26.4884  -18.1794   22.3574 H   0  0  0  0  0  0
  -28.9791  -17.7533   23.8336 H   0  0  0  0  0  0
  -27.2880  -17.5944   24.2313 H   0  0  0  0  0  0
  -30.6059  -16.7853   18.9511 H   0  0  0  0  0  0
  -28.9018  -16.9861   18.9804 H   0  0  0  0  0  0
  -28.3106  -24.4537   21.4323 H   0  0  0  0  0  0
  -26.6711  -24.6441   21.0637 H   0  0  0  0  0  0
  -28.7623  -15.4359   20.7224 H   0  0  0  0  0  0
  1 25  1  0  0  0
  1 30  2  0  0  0
  1 86  1  0  0  0
  2  3  1  0  0  0
  2 25  1  0  0  0
  2 87  1  0  0  0
  2 88  1  0  0  0
  3  4  1  0  0  0
  3 89  1  0  0  0
  3 90  1  0  0  0
  4  5  1  0  0  0
  4 91  1  0  0  0
  4 92  1  0  0  0
  5  6  1  0  0  0
  5 26  1  0  0  0
  5 93  1  0  0  0
  6 25  1  0  0  0
  6 94  1  0  0  0
  6 95  1  0  0  0
  7  8  2  0  0  0
  7 26  1  0  0  0
  7 29  1  0  0  0
  8  9  1  0  0  0
  8 22  1  0  0  0
  9 10  1  0  0  0
  9 27  2  0  0  0
 10 11  2  0  0  0
 10 15  1  0  0  0
 11 12  1  0  0  0
 11 96  1  0  0  0
 12 13  2  0  0  0
 12 97  1  0  0  0
 13 14  1  0  0  0
 13 31  1  0  0  0
 14 15  2  0  0  0
 14 98  1  0  0  0
 15 99  1  0  0  0
 16 17  2  0  0  0
 16 21  1  0  0  0
 16 31  1  0  0  0
 17 18  1  0  0  0
 17100  1  0  0  0
 18 19  2  0  0  0
 18101  1  0  0  0
 19 20  1  0  0  0
 19 24  1  0  0  0
 20 21  2  0  0  0
 20102  1  0  0  0
 21 23  1  0  0  0
 22 28  1  0  0  0
 22 32  2  0  0  0
 26 27  1  0  0  0
 28103  1  0  0  0
 28104  1  0  0  0
 29105  1  0  0  0
 29106  1  0  0  0
 33 34  1  0  0  0
 33 66  1  0  0  0
 33 70  2  0  0  0
 34 36  1  0  0  0
 34 59  1  0  0  0
 34107  1  0  0  0
 35 44  2  0  0  0
 35 45  1  0  0  0
 35 68  1  0  0  0
 36 56  1  0  0  0
 36108  1  0  0  0
 37 39  1  0  0  0
 37 47  1  0  0  0
 37 66  1  0  0  0
 37109  1  0  0  0
 38 43  2  0  0  0
 38 46  1  0  0  0
 38 47  1  0  0  0
 39 64  1  0  0  0
 39 67  2  0  0  0
 40 52  1  0  0  0
 40 53  2  0  0  0
 40 58  1  0  0  0
 41110  1  0  0  0
 41111  1  0  0  0
 41112  1  0  0  0
 41 48  1  0  0  0
 42 43  1  0  0  0
 42 66  1  0  0  0
 42113  1  0  0  0
 42114  1  0  0  0
 43 44  1  0  0  0
 44115  1  0  0  0
 45 46  2  0  0  0
 45116  1  0  0  0
 46117  1  0  0  0
 47118  1  0  0  0
 47119  1  0  0  0
 48 56  1  0  0  0
 48 65  1  0  0  0
 48120  1  0  0  0
 49 50  1  0  0  0
 49 53  1  0  0  0
 49 64  1  0  0  0
 49121  1  0  0  0
 50 51  1  0  0  0
 50122  1  0  0  0
 50123  1  0  0  0
 51 52  1  0  0  0
 51124  1  0  0  0
 51125  1  0  0  0
 52126  1  0  0  0
 52127  1  0  0  0
 53 54  1  0  0  0
 54 55  2  0  0  0
 54128  1  0  0  0
 55 57  1  0  0  0
 55129  1  0  0  0
 56 69  2  0  0  0
 57 58  2  0  0  0
 57130  1  0  0  0
 58131  1  0  0  0
 59 60  1  0  0  0
 59 61  1  0  0  0
 59 62  1  0  0  0
 60132  1  0  0  0
 60133  1  0  0  0
 60134  1  0  0  0
 61135  1  0  0  0
 61136  1  0  0  0
 61137  1  0  0  0
 62138  1  0  0  0
 62139  1  0  0  0
 62140  1  0  0  0
 63 65  1  0  0  0
 63141  1  0  0  0
 63142  1  0  0  0
 63143  1  0  0  0
 64144  1  0  0  0
 65145  1  0  0  0
 68 83  1  0  0  0
 71 73  2  0  0  0
 71 74  1  0  0  0
 71146  1  0  0  0
 72 73  1  0  0  0
 72 85  2  0  0  0
 72147  1  0  0  0
 73 84  1  0  0  0
 74 75  2  0  0  0
 74 79  1  0  0  0
 75 80  1  0  0  0
 75 85  1  0  0  0
 76 81  1  0  0  0
 76148  1  0  0  0
 76149  1  0  0  0
 76150  1  0  0  0
 77151  1  0  0  0
 77152  1  0  0  0
 77153  1  0  0  0
 77 84  1  0  0  0
 78 84  1  0  0  0
 78154  1  0  0  0
 78155  1  0  0  0
 78156  1  0  0  0
 79 82  1  0  0  0
 79157  1  0  0  0
 79158  1  0  0  0
 80 81  1  0  0  0
 80159  1  0  0  0
 80160  1  0  0  0
 81161  1  0  0  0
 81162  1  0  0  0
 82 86  1  0  0  0
 82163  1  0  0  0
 82164  1  0  0  0
 83 84  1  0  0  0
 83165  1  0  0  0
 83166  1  0  0  0
 86167  1  0  0  0
M  ISO  4   1 100  68 101  83 101  86 100
M  END
> <chiral flag>
0

> <version>
0

> <s_m_source_file>
/data/baiqing/PycharmProjects/Reinvent-master-3.2/result/LINK_invent/BTK/process_docking_weight1_custom_sum_contain_oxygen_bond_distance_aromatic_linkinvent_7_9_3/rearranged_h_0097.sdf

> <i_m_source_file_index>
24

> <r_mmod_Potential_Energy-OPLS-2005>
233.408706665039

> <r_mmod_Stretch_Energy-OPLS-2005>
133.292938232422

> <r_mmod_Bend_Energy-OPLS-2005>
244.224136352539

> <r_mmod_Torsional_Energy-OPLS-2005>
322.460723876953

> <r_mmod_Improper_Torsional_Energy-OPLS-2005>
15.1907815933228

> <r_mmod_Van_der_Waal_Energy-OPLS-2005>
130.010177612305

> <r_mmod_Electrostatic_Energy-OPLS-2005>
-540.695495605469

> <r_mmod_Solvation_Energy-OPLS-2005>
-211.992309570312

> <b_mmod_Minimization_Converged-OPLS-2005>
0

> <r_mmod_RMS_Derivative-OPLS-2005>
21.2180080413818

$$$$
24
                    3D
 Structure written by MMmdl.
169177  0  0  1  0            999 V2000
  -30.7358  -14.3357   20.6964 C   0  0  0  0  0  0
  -30.4274  -12.2679   19.3784 C   0  0  0  0  0  0
  -29.4878  -12.5300   18.1863 C   0  0  0  0  0  0
  -28.0071  -12.3887   18.5955 C   0  0  0  0  0  0
  -27.6757  -13.1875   19.8838 C   0  0  2  0  0  0
  -28.7108  -12.8711   20.9836 C   0  0  0  0  0  0
  -25.2701  -13.8118   20.5655 C   0  0  0  0  0  0
  -24.1918  -13.0435   20.9149 C   0  0  0  0  0  0
  -24.6436  -11.6892   20.8740 C   0  0  0  0  0  0
  -23.9093  -10.4293   21.0423 C   0  0  0  0  0  0
  -24.3639   -9.4193   21.9201 C   0  0  0  0  0  0
  -23.6296   -8.2240   22.0762 C   0  0  0  0  0  0
  -22.4282   -8.0294   21.3545 C   0  0  0  0  0  0
  -21.9925   -9.0275   20.4651 C   0  0  0  0  0  0
  -22.7269  -10.2138   20.3064 C   0  0  0  0  0  0
  -21.6854   -6.0746   22.5269 C   0  0  0  0  0  0
  -21.4029   -6.5650   23.8210 C   0  0  0  0  0  0
  -21.3654   -5.6796   24.9163 C   0  0  0  0  0  0
  -21.6041   -4.3061   24.7204 C   0  0  0  0  0  0
  -21.8831   -3.8154   23.4333 C   0  0  0  0  0  0
  -21.9196   -4.6976   22.3391 C   0  0  0  0  0  0
  -22.7941  -13.5243   21.1788 C   0  0  0  0  0  0
  -22.1666   -4.2164   21.0970 F   0  0  0  0  0  0
  -21.5608   -3.4543   25.7717 F   0  0  0  0  0  0
  -30.0579  -13.1860   20.4613 N   0  0  0  0  0  0
  -26.3109  -12.9256   20.3367 N   0  0  0  0  0  0
  -25.9347  -11.6432   20.5750 N   0  0  0  0  0  0
  -22.0571  -12.8243   22.0338 N   0  0  0  0  0  0
  -25.4474  -15.1828   20.4059 N   0  0  0  0  0  0
  -31.7481  -14.6854   20.0793 O   0  0  0  0  0  0
  -21.6645   -6.8883   21.4236 O   0  0  0  0  0  0
  -22.3641  -14.5557   20.6632 O   0  0  0  0  0  0
  -24.6137  -31.8716   23.2116 C   0  0  0  0  0  0
  -25.9052  -32.4819   23.8401 C   0  0  1  0  0  0
  -27.2234  -27.4772   20.0768 C   0  0  0  0  0  0
  -25.5898  -33.8614   24.2321 N   0  0  0  0  0  0
  -23.3953  -30.4997   21.5532 C   0  0  2  0  0  0
  -24.8376  -28.9719   20.1064 C   0  0  0  0  0  0
  -22.7385  -29.4720   22.5044 C   0  0  0  0  0  0
  -18.0253  -28.1358   22.8457 C   0  0  0  0  0  0
  -24.1486  -36.7359   23.2640 C   0  0  0  0  0  0
  -25.9229  -30.8488   21.3564 C   0  0  0  0  0  0
  -25.9987  -29.4890   20.6968 C   0  0  0  0  0  0
  -27.1964  -28.7456   20.6831 C   0  0  0  0  0  0
  -26.0558  -26.9635   19.4744 C   0  0  0  0  0  0
  -24.8612  -27.7039   19.4928 C   0  0  0  0  0  0
  -23.5958  -29.8344   20.1655 C   0  0  0  0  0  0
  -25.4098  -36.3116   24.0316 C   0  0  1  0  0  0
  -20.5865  -28.3641   23.1336 C   0  0  2  0  0  0
  -20.6757  -26.9393   22.5434 C   0  0  0  0  0  0
  -19.5731  -26.6373   21.5236 C   0  0  0  0  0  0
  -18.1894  -26.7887   22.1620 C   0  0  0  0  0  0
  -19.1526  -28.8797   23.2868 C   0  0  0  0  0  0
  -18.9456  -30.1407   23.8872 C   0  0  0  0  0  0
  -17.6475  -30.6560   24.0544 C   0  0  0  0  0  0
  -25.9045  -34.9476   23.5123 C   0  0  0  0  0  0
  -16.5349  -29.9059   23.6342 C   0  0  0  0  0  0
  -16.7244  -28.6496   23.0322 C   0  0  0  0  0  0
  -26.4443  -31.6626   25.0754 C   0  0  0  0  0  0
  -25.3681  -31.3703   26.1494 C   0  0  0  0  0  0
  -27.0285  -30.3073   24.6144 C   0  0  0  0  0  0
  -27.6018  -32.4372   25.7500 C   0  0  0  0  0  0
  -27.5556  -37.1797   24.8433 C   0  0  0  0  0  0
  -21.4139  -29.3034   22.3766 N   0  0  0  0  0  0
  -26.4283  -37.3811   23.9389 N   0  0  0  0  0  0
  -24.6636  -31.0855   22.0992 N   0  0  0  0  0  0
  -23.4166  -28.8318   23.3119 O   0  0  0  0  0  0
  -28.3606  -26.7195   20.1166 O   0  0  0  0  0  0
  -26.5634  -34.8915   22.4708 O   0  0  0  0  0  0
  -23.5358  -32.1508   23.7535 O   0  0  0  0  0  0
  -29.9091  -19.9090   21.0813 C   0  0  0  0  0  0
  -29.3520  -18.7363   21.5136 C   0  0  0  0  0  0
  -28.6948  -20.3708   22.8881 C   0  0  0  0  0  0
  -28.8798  -20.8360   25.3520 C   0  0  0  0  0  0
  -26.5963  -20.5491   24.2922 C   0  0  0  0  0  0
  -28.4460  -24.0000   19.1074 C   0  0  0  0  0  0
  -29.4549  -17.3405   21.0061 C   0  0  0  0  0  0
  -28.6285  -23.2066   21.5006 C   0  0  0  0  0  0
  -29.8440  -22.3137   21.7999 C   0  0  0  0  0  0
  -30.3986  -16.5032   21.8876 C   0  0  0  0  0  0
  -28.2306  -25.6404   21.0396 C   0  0  0  0  0  0
  -28.0435  -21.0296   24.0788 C   0  0  0  0  0  0
  -28.9134  -24.3650   20.5261 C   0  0  2  0  0  0
  -29.4823  -20.8975   21.9300 N   0  0  0  0  0  0
  -28.6159  -19.0633   22.6234 N   0  3  0  0  0  0
  -30.1805  -15.0885   21.6472 N   0  0  0  0  0  0
  -31.4717  -12.3836   19.0809 H   0  0  0  0  0  0
  -30.3280  -11.2377   19.7221 H   0  0  0  0  0  0
  -29.7137  -11.8452   17.3680 H   0  0  0  0  0  0
  -29.6604  -13.5361   17.8016 H   0  0  0  0  0  0
  -27.7947  -11.3299   18.7458 H   0  0  0  0  0  0
  -27.3618  -12.7127   17.7784 H   0  0  0  0  0  0
  -27.7476  -14.2466   19.6373 H   0  0  0  0  0  0
  -28.6773  -11.8090   21.2337 H   0  0  0  0  0  0
  -28.4507  -13.3786   21.9127 H   0  0  0  0  0  0
  -25.2789   -9.5647   22.4776 H   0  0  0  0  0  0
  -23.9997   -7.4625   22.7479 H   0  0  0  0  0  0
  -21.0854   -8.8807   19.8955 H   0  0  0  0  0  0
  -22.3754  -10.9688   19.6171 H   0  0  0  0  0  0
  -21.2058   -7.6169   23.9708 H   0  0  0  0  0  0
  -21.1452   -6.0530   25.9055 H   0  0  0  0  0  0
  -22.0625   -2.7616   23.2822 H   0  0  0  0  0  0
  -22.4175  -11.9887   22.4715 H   0  0  0  0  0  0
  -21.1190  -13.1271   22.2514 H   0  0  0  0  0  0
  -24.6848  -15.8430   20.5098 H   0  0  0  0  0  0
  -26.2949  -15.6073   20.0499 H   0  0  0  0  0  0
  -26.7127  -32.5536   23.1168 H   0  0  0  0  0  0
  -24.9965  -33.9738   25.0408 H   0  0  0  0  0  0
  -22.6864  -31.3189   21.4220 H   0  0  0  0  0  0
  -23.3726  -35.9723   23.3325 H   0  0  0  0  0  0
  -24.3577  -36.8997   22.2056 H   0  0  0  0  0  0
  -23.7315  -37.6577   23.6697 H   0  0  0  0  0  0
  -26.0359  -31.6190   20.5917 H   0  0  0  0  0  0
  -26.8123  -30.8954   21.9722 H   0  0  0  0  0  0
  -28.0922  -29.1267   21.1522 H   0  0  0  0  0  0
  -26.0739  -25.9862   19.0120 H   0  0  0  0  0  0
  -23.9715  -27.2988   19.0336 H   0  0  0  0  0  0
  -23.6890  -30.6112   19.4057 H   0  0  0  0  0  0
  -22.7177  -29.2523   19.8801 H   0  0  0  0  0  0
  -25.1295  -36.1984   25.0813 H   0  0  0  0  0  0
  -20.9892  -28.3186   24.1478 H   0  0  0  0  0  0
  -20.5694  -26.2224   23.3610 H   0  0  0  0  0  0
  -21.6606  -26.7463   22.1181 H   0  0  0  0  0  0
  -19.6939  -25.6296   21.1240 H   0  0  0  0  0  0
  -19.6674  -27.3205   20.6792 H   0  0  0  0  0  0
  -17.4183  -26.6645   21.4008 H   0  0  0  0  0  0
  -18.0221  -26.0027   22.9002 H   0  0  0  0  0  0
  -19.7962  -30.7191   24.2224 H   0  0  0  0  0  0
  -17.5055  -31.6227   24.5162 H   0  0  0  0  0  0
  -15.5361  -30.2927   23.7679 H   0  0  0  0  0  0
  -15.8659  -28.0807   22.7015 H   0  0  0  0  0  0
  -24.5827  -30.7098   25.7813 H   0  0  0  0  0  0
  -24.8878  -32.2808   26.5082 H   0  0  0  0  0  0
  -25.7995  -30.8776   27.0215 H   0  0  0  0  0  0
  -26.2795  -29.6746   24.1355 H   0  0  0  0  0  0
  -27.4205  -29.7435   25.4624 H   0  0  0  0  0  0
  -27.8562  -30.4420   23.9189 H   0  0  0  0  0  0
  -27.2685  -33.3693   26.2106 H   0  0  0  0  0  0
  -28.3780  -32.6955   25.0277 H   0  0  0  0  0  0
  -28.0748  -31.8508   26.5394 H   0  0  0  0  0  0
  -28.2558  -38.0098   24.7497 H   0  0  0  0  0  0
  -28.1070  -36.2637   24.6245 H   0  0  0  0  0  0
  -27.2260  -37.1448   25.8829 H   0  0  0  0  0  0
  -20.9310  -29.8775   21.7001 H   0  0  0  0  0  0
  -26.0163  -38.2892   24.1391 H   0  0  0  0  0  0
  -30.5634  -20.1095   20.2433 H   0  0  0  0  0  0
  -29.8787  -21.2628   25.2476 H   0  0  0  0  0  0
  -28.9989  -19.7822   25.5992 H   0  0  0  0  0  0
  -28.4060  -21.3204   26.2056 H   0  0  0  0  0  0
  -25.9874  -20.7119   23.4010 H   0  0  0  0  0  0
  -26.1231  -21.0967   25.1088 H   0  0  0  0  0  0
  -26.5475  -19.4883   24.5414 H   0  0  0  0  0  0
  -28.9595  -23.1117   18.7380 H   0  0  0  0  0  0
  -28.6464  -24.8095   18.4066 H   0  0  0  0  0  0
  -27.3727  -23.8002   19.0814 H   0  0  0  0  0  0
  -29.8039  -17.3520   19.9730 H   0  0  0  0  0  0
  -28.4527  -16.9097   20.9775 H   0  0  0  0  0  0
  -28.2796  -23.6186   22.4460 H   0  0  0  0  0  0
  -27.7887  -22.6105   21.1337 H   0  0  0  0  0  0
  -30.3558  -22.6288   22.7090 H   0  0  0  0  0  0
  -30.5724  -22.3856   20.9934 H   0  0  0  0  0  0
  -30.1902  -16.6808   22.9444 H   0  0  0  0  0  0
  -31.4364  -16.7951   21.7219 H   0  0  0  0  0  0
  -28.6805  -25.9453   21.9864 H   0  0  0  0  0  0
  -27.1879  -25.4118   21.2756 H   0  0  0  0  0  0
  -28.0024  -22.0937   23.8701 H   0  0  0  0  0  0
  -29.9852  -24.5666   20.4894 H   0  0  0  0  0  0
  -28.0701  -18.4150   23.1778 H   0  0  0  0  0  0
  -29.3903  -14.6694   22.1172 H   0  0  0  0  0  0
  1 25  1  0  0  0
  1 30  2  0  0  0
  1 86  1  0  0  0
  2  3  1  0  0  0
  2 25  1  0  0  0
  2 87  1  0  0  0
  2 88  1  0  0  0
  3  4  1  0  0  0
  3 89  1  0  0  0
  3 90  1  0  0  0
  4  5  1  0  0  0
  4 91  1  0  0  0
  4 92  1  0  0  0
  5  6  1  0  0  0
  5 26  1  0  0  0
  5 93  1  0  0  0
  6 25  1  0  0  0
  6 94  1  0  0  0
  6 95  1  0  0  0
  7  8  2  0  0  0
  7 26  1  0  0  0
  7 29  1  0  0  0
  8  9  1  0  0  0
  8 22  1  0  0  0
  9 10  1  0  0  0
  9 27  2  0  0  0
 10 11  2  0  0  0
 10 15  1  0  0  0
 11 12  1  0  0  0
 11 96  1  0  0  0
 12 13  2  0  0  0
 12 97  1  0  0  0
 13 14  1  0  0  0
 13 31  1  0  0  0
 14 15  2  0  0  0
 14 98  1  0  0  0
 15 99  1  0  0  0
 16 17  2  0  0  0
 16 21  1  0  0  0
 16 31  1  0  0  0
 17 18  1  0  0  0
 17100  1  0  0  0
 18 19  2  0  0  0
 18101  1  0  0  0
 19 20  1  0  0  0
 19 24  1  0  0  0
 20 21  2  0  0  0
 20102  1  0  0  0
 21 23  1  0  0  0
 22 28  1  0  0  0
 22 32  2  0  0  0
 26 27  1  0  0  0
 28103  1  0  0  0
 28104  1  0  0  0
 29105  1  0  0  0
 29106  1  0  0  0
 33 34  1  0  0  0
 33 66  1  0  0  0
 33 70  2  0  0  0
 34 36  1  0  0  0
 34 59  1  0  0  0
 34107  1  0  0  0
 35 44  2  0  0  0
 35 45  1  0  0  0
 35 68  1  0  0  0
 36 56  1  0  0  0
 36108  1  0  0  0
 37 39  1  0  0  0
 37 47  1  0  0  0
 37 66  1  0  0  0
 37109  1  0  0  0
 38 43  2  0  0  0
 38 46  1  0  0  0
 38 47  1  0  0  0
 39 64  1  0  0  0
 39 67  2  0  0  0
 40 52  1  0  0  0
 40 53  2  0  0  0
 40 58  1  0  0  0
 41110  1  0  0  0
 41111  1  0  0  0
 41112  1  0  0  0
 41 48  1  0  0  0
 42 43  1  0  0  0
 42 66  1  0  0  0
 42113  1  0  0  0
 42114  1  0  0  0
 43 44  1  0  0  0
 44115  1  0  0  0
 45 46  2  0  0  0
 45116  1  0  0  0
 46117  1  0  0  0
 47118  1  0  0  0
 47119  1  0  0  0
 48 56  1  0  0  0
 48 65  1  0  0  0
 48120  1  0  0  0
 49 50  1  0  0  0
 49 53  1  0  0  0
 49 64  1  0  0  0
 49121  1  0  0  0
 50 51  1  0  0  0
 50122  1  0  0  0
 50123  1  0  0  0
 51 52  1  0  0  0
 51124  1  0  0  0
 51125  1  0  0  0
 52126  1  0  0  0
 52127  1  0  0  0
 53 54  1  0  0  0
 54 55  2  0  0  0
 54128  1  0  0  0
 55 57  1  0  0  0
 55129  1  0  0  0
 56 69  2  0  0  0
 57 58  2  0  0  0
 57130  1  0  0  0
 58131  1  0  0  0
 59 60  1  0  0  0
 59 61  1  0  0  0
 59 62  1  0  0  0
 60132  1  0  0  0
 60133  1  0  0  0
 60134  1  0  0  0
 61135  1  0  0  0
 61136  1  0  0  0
 61137  1  0  0  0
 62138  1  0  0  0
 62139  1  0  0  0
 62140  1  0  0  0
 63 65  1  0  0  0
 63141  1  0  0  0
 63142  1  0  0  0
 63143  1  0  0  0
 64144  1  0  0  0
 65145  1  0  0  0
 68 81  1  0  0  0
 71 72  2  0  0  0
 71 84  1  0  0  0
 71146  1  0  0  0
 72 77  1  0  0  0
 72 85  1  0  0  0
 73 82  1  0  0  0
 73 84  1  0  0  0
 73 85  2  0  0  0
 74147  1  0  0  0
 74148  1  0  0  0
 74149  1  0  0  0
 74 82  1  0  0  0
 75 82  1  0  0  0
 75150  1  0  0  0
 75151  1  0  0  0
 75152  1  0  0  0
 76153  1  0  0  0
 76154  1  0  0  0
 76155  1  0  0  0
 76 83  1  0  0  0
 77 80  1  0  0  0
 77156  1  0  0  0
 77157  1  0  0  0
 78 79  1  0  0  0
 78 83  1  0  0  0
 78158  1  0  0  0
 78159  1  0  0  0
 79 84  1  0  0  0
 79160  1  0  0  0
 79161  1  0  0  0
 80 86  1  0  0  0
 80162  1  0  0  0
 80163  1  0  0  0
 81 83  1  0  0  0
 81164  1  0  0  0
 81165  1  0  0  0
 82166  1  0  0  0
 83167  1  0  0  0
 85168  1  0  0  0
 86169  1  0  0  0
M  CHG  1  85   1
M  ISO  4   1 100  68 101  81 101  86 100
M  END
> <chiral flag>
0

> <version>
0

> <s_m_source_file>
/data/baiqing/PycharmProjects/Reinvent-master-3.2/result/LINK_invent/BTK/process_docking_weight1_custom_sum_contain_oxygen_bond_distance_aromatic_linkinvent_7_9_3/rearranged_h_0097.sdf

> <i_m_source_file_index>
25

> <r_mmod_Potential_Energy-OPLS-2005>
-83.8756866455078

> <r_mmod_Stretch_Energy-OPLS-2005>
29.9817314147949

> <r_mmod_Bend_Energy-OPLS-2005>
89.9387969970703

> <r_mmod_Torsional_Energy-OPLS-2005>
268.831909179688

> <r_mmod_Improper_Torsional_Energy-OPLS-2005>
2.68405222892761

> <r_mmod_Van_der_Waal_Energy-OPLS-2005>
131.423629760742

> <r_mmod_Electrostatic_Energy-OPLS-2005>
-200.069290161133

> <r_mmod_Solvation_Energy-OPLS-2005>
-416.030853271484

> <b_mmod_Minimization_Converged-OPLS-2005>
0

> <r_mmod_RMS_Derivative-OPLS-2005>
4.53806209564209

$$$$
25
                    3D
 Structure written by MMmdl.
170178  0  0  1  0            999 V2000
  -30.6564  -14.5706   20.5041 C   0  0  0  0  0  0
  -30.4396  -12.3474   19.4505 C   0  0  0  0  0  0
  -29.5099  -12.4882   18.2245 C   0  0  0  0  0  0
  -28.0268  -12.3649   18.6306 C   0  0  0  0  0  0
  -27.6605  -13.2185   19.8745 C   0  0  2  0  0  0
  -28.7033  -13.0561   21.0053 C   0  0  0  0  0  0
  -25.2583  -13.8204   20.5721 C   0  0  0  0  0  0
  -24.1847  -13.0446   20.9229 C   0  0  0  0  0  0
  -24.6430  -11.6926   20.8760 C   0  0  0  0  0  0
  -23.9094  -10.4300   21.0428 C   0  0  0  0  0  0
  -24.3626   -9.4203   21.9200 C   0  0  0  0  0  0
  -23.6297   -8.2241   22.0753 C   0  0  0  0  0  0
  -22.4286   -8.0281   21.3547 C   0  0  0  0  0  0
  -21.9937   -9.0267   20.4659 C   0  0  0  0  0  0
  -22.7273  -10.2144   20.3079 C   0  0  0  0  0  0
  -21.6853   -6.0736   22.5271 C   0  0  0  0  0  0
  -21.4022   -6.5635   23.8203 C   0  0  0  0  0  0
  -21.3675   -5.6784   24.9163 C   0  0  0  0  0  0
  -21.6044   -4.3048   24.7225 C   0  0  0  0  0  0
  -21.8813   -3.8147   23.4341 C   0  0  0  0  0  0
  -21.9203   -4.6965   22.3400 C   0  0  0  0  0  0
  -22.7849  -13.5230   21.1852 C   0  0  0  0  0  0
  -22.1666   -4.2151   21.0982 F   0  0  0  0  0  0
  -21.5650   -3.4529   25.7739 F   0  0  0  0  0  0
  -30.0278  -13.3610   20.4419 N   0  0  0  0  0  0
  -26.3026  -12.9389   20.3375 N   0  0  0  0  0  0
  -25.9361  -11.6541   20.5803 N   0  0  0  0  0  0
  -22.0442  -12.8257   22.0420 N   0  0  0  0  0  0
  -25.4292  -15.1918   20.4115 N   0  0  0  0  0  0
  -31.8130  -14.7315   20.1067 O   0  0  0  0  0  0
  -21.6637   -6.8887   21.4241 O   0  0  0  0  0  0
  -22.3539  -14.5511   20.6669 O   0  0  0  0  0  0
  -24.6215  -31.8655   23.2071 C   0  0  0  0  0  0
  -25.9077  -32.4807   23.8386 C   0  0  1  0  0  0
  -27.2166  -27.3693   20.1108 C   0  0  0  0  0  0
  -25.5923  -33.8612   24.2319 N   0  0  0  0  0  0
  -23.4123  -30.4881   21.5485 C   0  0  2  0  0  0
  -24.8581  -28.9516   20.1078 C   0  0  0  0  0  0
  -22.7461  -29.4641   22.4980 C   0  0  0  0  0  0
  -18.0281  -28.1388   22.8476 C   0  0  0  0  0  0
  -24.1481  -36.7296   23.2640 C   0  0  0  0  0  0
  -25.9494  -30.8116   21.3706 C   0  0  0  0  0  0
  -26.0239  -29.4440   20.7099 C   0  0  0  0  0  0
  -27.2109  -28.6628   20.7019 C   0  0  0  0  0  0
  -26.0380  -26.9148   19.4855 C   0  0  0  0  0  0
  -24.8634  -27.6900   19.4879 C   0  0  0  0  0  0
  -23.6235  -29.8246   20.1618 C   0  0  0  0  0  0
  -25.4107  -36.3118   24.0341 C   0  0  1  0  0  0
  -20.5879  -28.3682   23.1309 C   0  0  2  0  0  0
  -20.6787  -26.9419   22.5434 C   0  0  0  0  0  0
  -19.5780  -26.6392   21.5223 C   0  0  0  0  0  0
  -18.1926  -26.7947   22.1577 C   0  0  0  0  0  0
  -19.1527  -28.8852   23.2890 C   0  0  0  0  0  0
  -18.9454  -30.1455   23.8899 C   0  0  0  0  0  0
  -17.6448  -30.6584   24.0563 C   0  0  0  0  0  0
  -25.9052  -34.9477   23.5131 C   0  0  0  0  0  0
  -16.5346  -29.9083   23.6320 C   0  0  0  0  0  0
  -16.7262  -28.6501   23.0348 C   0  0  0  0  0  0
  -26.4476  -31.6609   25.0738 C   0  0  0  0  0  0
  -25.3726  -31.3759   26.1486 C   0  0  0  0  0  0
  -27.0314  -30.3037   24.6174 C   0  0  0  0  0  0
  -27.6048  -32.4344   25.7493 C   0  0  0  0  0  0
  -27.5580  -37.1809   24.8466 C   0  0  0  0  0  0
  -21.4184  -29.3040   22.3717 N   0  0  0  0  0  0
  -26.4290  -37.3800   23.9417 N   0  0  0  0  0  0
  -24.6789  -31.0712   22.0988 N   0  0  0  0  0  0
  -23.4205  -28.8180   23.3045 O   0  0  0  0  0  0
  -28.3231  -26.5302   20.1447 O   0  0  0  0  0  0
  -26.5609  -34.8924   22.4687 O   0  0  0  0  0  0
  -23.5382  -32.1427   23.7422 O   0  0  0  0  0  0
  -25.8913  -23.1742   20.7255 C   0  0  0  0  0  0
  -24.9182  -22.3617   21.3048 C   0  0  0  0  0  0
  -27.2472  -22.7859   20.7052 C   0  0  0  0  0  0
  -27.5636  -21.4588   21.2094 C   0  0  0  0  0  0
  -26.4984  -20.7700   21.8700 C   0  0  0  0  0  0
  -26.6631  -19.4742   22.6434 C   0  0  0  0  0  0
  -27.1300  -20.6663   17.1643 C   0  0  0  0  0  0
  -28.1900  -23.8829   20.1244 C   0  0  0  0  0  0
  -28.9620  -20.7521   21.1085 C   0  0  0  0  0  0
  -28.3629  -20.4562   18.0507 C   0  0  0  0  0  0
  -30.0594  -17.0365   20.2795 C   0  0  0  0  0  0
  -28.1224  -19.3979   19.1470 C   0  0  0  0  0  0
  -29.2158  -18.1549   21.0094 C   0  0  0  0  0  0
  -28.1347  -25.2756   20.8832 C   0  0  0  0  0  0
  -25.2222  -21.1997   21.8971 N   0  0  0  0  0  0
  -29.8625  -15.6393   20.7784 N   0  0  0  0  0  0
  -29.0938  -19.4791   20.2745 N   0  3  1  0  0  0
  -31.4800  -12.4666   19.1402 H   0  0  0  0  0  0
  -30.3705  -11.3442   19.8757 H   0  0  0  0  0  0
  -29.7534  -11.7258   17.4821 H   0  0  0  0  0  0
  -29.6841  -13.4487   17.7385 H   0  0  0  0  0  0
  -27.8312  -11.3116   18.8311 H   0  0  0  0  0  0
  -27.3868  -12.6373   17.7910 H   0  0  0  0  0  0
  -27.6902  -14.2599   19.5547 H   0  0  0  0  0  0
  -28.6931  -12.0409   21.4052 H   0  0  0  0  0  0
  -28.4651  -13.7066   21.8487 H   0  0  0  0  0  0
  -25.2755   -9.5650   22.4796 H   0  0  0  0  0  0
  -23.9982   -7.4641   22.7473 H   0  0  0  0  0  0
  -21.0858   -8.8819   19.8983 H   0  0  0  0  0  0
  -22.3736  -10.9699   19.6205 H   0  0  0  0  0  0
  -21.2003   -7.6139   23.9711 H   0  0  0  0  0  0
  -21.1511   -6.0507   25.9066 H   0  0  0  0  0  0
  -22.0584   -2.7611   23.2827 H   0  0  0  0  0  0
  -22.3975  -11.9926   22.4891 H   0  0  0  0  0  0
  -21.1077  -13.1359   22.2575 H   0  0  0  0  0  0
  -24.6529  -15.8380   20.5065 H   0  0  0  0  0  0
  -26.2581  -15.6255   20.0273 H   0  0  0  0  0  0
  -26.7159  -32.5498   23.1155 H   0  0  0  0  0  0
  -25.0094  -33.9778   25.0480 H   0  0  0  0  0  0
  -22.7020  -31.3059   21.4096 H   0  0  0  0  0  0
  -23.3762  -35.9615   23.3321 H   0  0  0  0  0  0
  -24.3569  -36.8888   22.2053 H   0  0  0  0  0  0
  -23.7215  -37.6491   23.6640 H   0  0  0  0  0  0
  -26.0793  -31.5793   20.6069 H   0  0  0  0  0  0
  -26.8322  -30.8565   21.9992 H   0  0  0  0  0  0
  -28.1080  -29.0332   21.1773 H   0  0  0  0  0  0
  -26.0238  -25.9489   19.0016 H   0  0  0  0  0  0
  -23.9688  -27.3090   19.0125 H   0  0  0  0  0  0
  -23.7372  -30.6018   19.4046 H   0  0  0  0  0  0
  -22.7444  -29.2485   19.8641 H   0  0  0  0  0  0
  -25.1291  -36.1980   25.0834 H   0  0  0  0  0  0
  -20.9957  -28.3273   24.1435 H   0  0  0  0  0  0
  -20.5702  -26.2302   23.3633 H   0  0  0  0  0  0
  -21.6662  -26.7473   22.1241 H   0  0  0  0  0  0
  -19.6953  -25.6313   21.1232 H   0  0  0  0  0  0
  -19.6751  -27.3208   20.6759 H   0  0  0  0  0  0
  -17.4244  -26.6769   21.3909 H   0  0  0  0  0  0
  -18.0238  -26.0062   22.8922 H   0  0  0  0  0  0
  -19.7931  -30.7265   24.2273 H   0  0  0  0  0  0
  -17.5003  -31.6261   24.5156 H   0  0  0  0  0  0
  -15.5343  -30.2983   23.7649 H   0  0  0  0  0  0
  -15.8666  -28.0827   22.7063 H   0  0  0  0  0  0
  -24.5877  -30.7121   25.7827 H   0  0  0  0  0  0
  -24.8937  -32.2936   26.4915 H   0  0  0  0  0  0
  -25.8056  -30.8933   27.0258 H   0  0  0  0  0  0
  -26.2882  -29.6809   24.1173 H   0  0  0  0  0  0
  -27.3993  -29.7272   25.4670 H   0  0  0  0  0  0
  -27.8757  -30.4337   23.9405 H   0  0  0  0  0  0
  -27.2661  -33.3639   26.2086 H   0  0  0  0  0  0
  -28.3834  -32.6919   25.0302 H   0  0  0  0  0  0
  -28.0746  -31.8470   26.5396 H   0  0  0  0  0  0
  -28.2623  -38.0087   24.7520 H   0  0  0  0  0  0
  -28.1062  -36.2624   24.6295 H   0  0  0  0  0  0
  -27.2309  -37.1464   25.8874 H   0  0  0  0  0  0
  -20.9372  -29.8742   21.6904 H   0  0  0  0  0  0
  -26.0188  -38.2881   24.1413 H   0  0  0  0  0  0
  -25.5786  -24.1220   20.3101 H   0  0  0  0  0  0
  -23.8829  -22.6694   21.3286 H   0  0  0  0  0  0
  -26.2854  -18.6276   22.0673 H   0  0  0  0  0  0
  -26.0750  -19.5163   23.5605 H   0  0  0  0  0  0
  -27.6868  -19.2904   22.9574 H   0  0  0  0  0  0
  -27.3290  -21.4064   16.3886 H   0  0  0  0  0  0
  -26.2826  -21.0251   17.7528 H   0  0  0  0  0  0
  -26.8306  -19.7409   16.6724 H   0  0  0  0  0  0
  -27.8742  -24.0505   19.0938 H   0  0  0  0  0  0
  -29.2171  -23.5315   20.0633 H   0  0  0  0  0  0
  -29.3557  -20.5915   22.1138 H   0  0  0  0  0  0
  -29.6555  -21.4638   20.6669 H   0  0  0  0  0  0
  -28.6271  -21.4216   18.4805 H   0  0  0  0  0  0
  -29.2114  -20.1520   17.4353 H   0  0  0  0  0  0
  -31.1178  -17.2992   20.3344 H   0  0  0  0  0  0
  -29.8229  -17.0152   19.2145 H   0  0  0  0  0  0
  -28.1679  -18.4157   18.6765 H   0  0  0  0  0  0
  -27.1029  -19.4669   19.5285 H   0  0  0  0  0  0
  -29.6745  -18.3237   21.9854 H   0  0  0  0  0  0
  -28.2180  -17.7645   21.1979 H   0  0  0  0  0  0
  -27.2039  -25.3405   21.4479 H   0  0  0  0  0  0
  -28.8923  -25.2527   21.6650 H   0  0  0  0  0  0
  -28.9360  -15.4057   21.1062 H   0  0  0  0  0  0
  -30.0079  -19.5757   19.8547 H   0  0  0  0  0  0
  1 25  1  0  0  0
  1 30  2  0  0  0
  1 86  1  0  0  0
  2  3  1  0  0  0
  2 25  1  0  0  0
  2 88  1  0  0  0
  2 89  1  0  0  0
  3  4  1  0  0  0
  3 90  1  0  0  0
  3 91  1  0  0  0
  4  5  1  0  0  0
  4 92  1  0  0  0
  4 93  1  0  0  0
  5  6  1  0  0  0
  5 26  1  0  0  0
  5 94  1  0  0  0
  6 25  1  0  0  0
  6 95  1  0  0  0
  6 96  1  0  0  0
  7  8  2  0  0  0
  7 26  1  0  0  0
  7 29  1  0  0  0
  8  9  1  0  0  0
  8 22  1  0  0  0
  9 10  1  0  0  0
  9 27  2  0  0  0
 10 11  2  0  0  0
 10 15  1  0  0  0
 11 12  1  0  0  0
 11 97  1  0  0  0
 12 13  2  0  0  0
 12 98  1  0  0  0
 13 14  1  0  0  0
 13 31  1  0  0  0
 14 15  2  0  0  0
 14 99  1  0  0  0
 15100  1  0  0  0
 16 17  2  0  0  0
 16 21  1  0  0  0
 16 31  1  0  0  0
 17 18  1  0  0  0
 17101  1  0  0  0
 18 19  2  0  0  0
 18102  1  0  0  0
 19 20  1  0  0  0
 19 24  1  0  0  0
 20 21  2  0  0  0
 20103  1  0  0  0
 21 23  1  0  0  0
 22 28  1  0  0  0
 22 32  2  0  0  0
 26 27  1  0  0  0
 28104  1  0  0  0
 28105  1  0  0  0
 29106  1  0  0  0
 29107  1  0  0  0
 33 34  1  0  0  0
 33 66  1  0  0  0
 33 70  2  0  0  0
 34 36  1  0  0  0
 34 59  1  0  0  0
 34108  1  0  0  0
 35 44  2  0  0  0
 35 45  1  0  0  0
 35 68  1  0  0  0
 36 56  1  0  0  0
 36109  1  0  0  0
 37 39  1  0  0  0
 37 47  1  0  0  0
 37 66  1  0  0  0
 37110  1  0  0  0
 38 43  2  0  0  0
 38 46  1  0  0  0
 38 47  1  0  0  0
 39 64  1  0  0  0
 39 67  2  0  0  0
 40 52  1  0  0  0
 40 53  2  0  0  0
 40 58  1  0  0  0
 41111  1  0  0  0
 41112  1  0  0  0
 41113  1  0  0  0
 41 48  1  0  0  0
 42 43  1  0  0  0
 42 66  1  0  0  0
 42114  1  0  0  0
 42115  1  0  0  0
 43 44  1  0  0  0
 44116  1  0  0  0
 45 46  2  0  0  0
 45117  1  0  0  0
 46118  1  0  0  0
 47119  1  0  0  0
 47120  1  0  0  0
 48 56  1  0  0  0
 48 65  1  0  0  0
 48121  1  0  0  0
 49 50  1  0  0  0
 49 53  1  0  0  0
 49 64  1  0  0  0
 49122  1  0  0  0
 50 51  1  0  0  0
 50123  1  0  0  0
 50124  1  0  0  0
 51 52  1  0  0  0
 51125  1  0  0  0
 51126  1  0  0  0
 52127  1  0  0  0
 52128  1  0  0  0
 53 54  1  0  0  0
 54 55  2  0  0  0
 54129  1  0  0  0
 55 57  1  0  0  0
 55130  1  0  0  0
 56 69  2  0  0  0
 57 58  2  0  0  0
 57131  1  0  0  0
 58132  1  0  0  0
 59 60  1  0  0  0
 59 61  1  0  0  0
 59 62  1  0  0  0
 60133  1  0  0  0
 60134  1  0  0  0
 60135  1  0  0  0
 61136  1  0  0  0
 61137  1  0  0  0
 61138  1  0  0  0
 62139  1  0  0  0
 62140  1  0  0  0
 62141  1  0  0  0
 63 65  1  0  0  0
 63142  1  0  0  0
 63143  1  0  0  0
 63144  1  0  0  0
 64145  1  0  0  0
 65146  1  0  0  0
 68 84  1  0  0  0
 71 72  2  0  0  0
 71 73  1  0  0  0
 71147  1  0  0  0
 72 85  1  0  0  0
 72148  1  0  0  0
 73 74  2  0  0  0
 73 78  1  0  0  0
 74 75  1  0  0  0
 74 79  1  0  0  0
 75 76  1  0  0  0
 75 85  2  0  0  0
 76149  1  0  0  0
 76150  1  0  0  0
 76151  1  0  0  0
 77 80  1  0  0  0
 77152  1  0  0  0
 77153  1  0  0  0
 77154  1  0  0  0
 78 84  1  0  0  0
 78155  1  0  0  0
 78156  1  0  0  0
 79157  1  0  0  0
 79158  1  0  0  0
 79 87  1  0  0  0
 80 82  1  0  0  0
 80159  1  0  0  0
 80160  1  0  0  0
 81 83  1  0  0  0
 81 86  1  0  0  0
 81161  1  0  0  0
 81162  1  0  0  0
 82 87  1  0  0  0
 82163  1  0  0  0
 82164  1  0  0  0
 83 87  1  0  0  0
 83165  1  0  0  0
 83166  1  0  0  0
 84167  1  0  0  0
 84168  1  0  0  0
 86169  1  0  0  0
 87170  1  0  0  0
M  CHG  1  87   1
M  ISO  4   1 100  68 101  84 101  86 100
M  END
> <chiral flag>
0

> <version>
0

> <s_m_source_file>
/data/baiqing/PycharmProjects/Reinvent-master-3.2/result/LINK_invent/BTK/process_docking_weight1_custom_sum_contain_oxygen_bond_distance_aromatic_linkinvent_7_9_3/rearranged_h_0097.sdf

> <i_m_source_file_index>
26

> <r_mmod_Potential_Energy-OPLS-2005>
-174.579833984375

> <r_mmod_Stretch_Energy-OPLS-2005>
73.8194274902344

> <r_mmod_Bend_Energy-OPLS-2005>
140.14958190918

> <r_mmod_Torsional_Energy-OPLS-2005>
259.510223388672

> <r_mmod_Improper_Torsional_Energy-OPLS-2005>
7.30873537063599

> <r_mmod_Van_der_Waal_Energy-OPLS-2005>
143.231872558594

> <r_mmod_Electrostatic_Energy-OPLS-2005>
-355.1513671875

> <r_mmod_Solvation_Energy-OPLS-2005>
-475.298004150391

> <b_mmod_Minimization_Converged-OPLS-2005>
0

> <r_mmod_RMS_Derivative-OPLS-2005>
3.51308965682983

$$$$
26
                    3D
 Structure written by MMmdl.
180188  0  0  1  0            999 V2000
  -30.6692  -14.4704   20.7045 C   0  0  0  0  0  0
  -30.4278  -12.3426   19.4263 C   0  0  0  0  0  0
  -29.4863  -12.5094   18.2151 C   0  0  0  0  0  0
  -28.0141  -12.3305   18.6329 C   0  0  0  0  0  0
  -27.6535  -13.1827   19.8724 C   0  0  2  0  0  0
  -28.6829  -12.9560   20.9977 C   0  0  0  0  0  0
  -25.2610  -13.8124   20.5683 C   0  0  0  0  0  0
  -24.1835  -13.0388   20.9175 C   0  0  0  0  0  0
  -24.6371  -11.6860   20.8728 C   0  0  0  0  0  0
  -23.9047  -10.4247   21.0404 C   0  0  0  0  0  0
  -24.3593   -9.4178   21.9176 C   0  0  0  0  0  0
  -23.6286   -8.2213   22.0743 C   0  0  0  0  0  0
  -22.4286   -8.0236   21.3528 C   0  0  0  0  0  0
  -21.9885   -9.0217   20.4640 C   0  0  0  0  0  0
  -22.7203  -10.2108   20.3042 C   0  0  0  0  0  0
  -21.6848   -6.0726   22.5273 C   0  0  0  0  0  0
  -21.4009   -6.5638   23.8194 C   0  0  0  0  0  0
  -21.3639   -5.6799   24.9157 C   0  0  0  0  0  0
  -21.6049   -4.3067   24.7233 C   0  0  0  0  0  0
  -21.8830   -3.8147   23.4361 C   0  0  0  0  0  0
  -21.9204   -4.6957   22.3406 C   0  0  0  0  0  0
  -22.7880  -13.5216   21.1909 C   0  0  0  0  0  0
  -22.1681   -4.2136   21.0990 F   0  0  0  0  0  0
  -21.5626   -3.4546   25.7754 F   0  0  0  0  0  0
  -30.0096  -13.2947   20.4730 N   0  0  0  0  0  0
  -26.2970  -12.9216   20.3318 N   0  0  0  0  0  0
  -25.9278  -11.6401   20.5740 N   0  0  0  0  0  0
  -22.0635  -12.8078   22.0463 N   0  0  0  0  0  0
  -25.4440  -15.1801   20.4060 N   0  0  0  0  0  0
  -31.7709  -14.7100   20.1904 O   0  0  0  0  0  0
  -21.6643   -6.8854   21.4219 O   0  0  0  0  0  0
  -22.3518  -14.5524   20.6832 O   0  0  0  0  0  0
  -24.6099  -31.8717   23.2173 C   0  0  0  0  0  0
  -25.8999  -32.4845   23.8477 C   0  0  1  0  0  0
  -27.2428  -27.4717   20.0808 C   0  0  0  0  0  0
  -25.5868  -33.8646   24.2380 N   0  0  0  0  0  0
  -23.3929  -30.4968   21.5588 C   0  0  2  0  0  0
  -24.8366  -28.9614   20.1294 C   0  0  0  0  0  0
  -22.7378  -29.4664   22.5058 C   0  0  0  0  0  0
  -18.0284  -28.1304   22.8487 C   0  0  0  0  0  0
  -24.1472  -36.7333   23.2652 C   0  0  0  0  0  0
  -25.9170  -30.8529   21.3598 C   0  0  0  0  0  0
  -25.9958  -29.4859   20.7134 C   0  0  0  0  0  0
  -27.1958  -28.7468   20.6864 C   0  0  0  0  0  0
  -26.0508  -26.9402   19.5288 C   0  0  0  0  0  0
  -24.8567  -27.6864   19.5403 C   0  0  0  0  0  0
  -23.5972  -29.8278   20.1731 C   0  0  0  0  0  0
  -25.4086  -36.3133   24.0360 C   0  0  1  0  0  0
  -20.5851  -28.3590   23.1329 C   0  0  2  0  0  0
  -20.6798  -26.9340   22.5393 C   0  0  0  0  0  0
  -19.5780  -26.6300   21.5194 C   0  0  0  0  0  0
  -18.1940  -26.7856   22.1569 C   0  0  0  0  0  0
  -19.1523  -28.8761   23.2902 C   0  0  0  0  0  0
  -18.9452  -30.1399   23.8875 C   0  0  0  0  0  0
  -17.6456  -30.6557   24.0479 C   0  0  0  0  0  0
  -25.8996  -34.9487   23.5158 C   0  0  0  0  0  0
  -16.5350  -29.9017   23.6287 C   0  0  0  0  0  0
  -16.7275  -28.6428   23.0331 C   0  0  0  0  0  0
  -26.4459  -31.6632   25.0799 C   0  0  0  0  0  0
  -25.3796  -31.3711   26.1612 C   0  0  0  0  0  0
  -27.0275  -30.3096   24.6112 C   0  0  0  0  0  0
  -27.6035  -32.4357   25.7553 C   0  0  0  0  0  0
  -27.5568  -37.1822   24.8468 C   0  0  0  0  0  0
  -21.4115  -29.2966   22.3749 N   0  0  0  0  0  0
  -26.4269  -37.3811   23.9423 N   0  0  0  0  0  0
  -24.6596  -31.0870   22.1045 N   0  0  0  0  0  0
  -23.4167  -28.8242   23.3100 O   0  0  0  0  0  0
  -28.4722  -26.8458   20.0457 O   0  0  0  0  0  0
  -26.5573  -34.8917   22.4728 O   0  0  0  0  0  0
  -23.5314  -32.1434   23.7609 O   0  0  0  0  0  0
  -28.1670  -22.3200   22.0017 C   0  0  0  0  0  0
  -28.1692  -22.4330   19.4728 C   0  0  0  0  0  0
  -28.7896  -20.9438   21.6480 C   0  0  0  0  0  0
  -27.9031  -23.2265   20.7714 C   0  0  1  0  0  0
  -27.4713  -21.0462   19.5287 C   0  0  2  0  0  0
  -23.0860  -20.3198   20.5801 C   0  0  0  0  0  0
  -29.2050  -15.5895   23.8152 C   0  0  0  0  0  0
  -28.6212  -24.5886   20.8941 C   0  0  0  0  0  0
  -25.9392  -21.2614   19.6101 C   0  0  0  0  0  0
  -23.5644  -20.4316   19.1237 C   0  0  0  0  0  0
  -25.0744  -20.1798   18.9451 C   0  0  0  0  0  0
  -29.0335  -17.8942   21.2904 C   0  0  0  0  0  0
  -30.3908  -15.6873   22.8307 C   0  0  0  0  0  0
  -29.3524  -16.5109   20.6443 C   0  0  0  0  0  0
  -28.5464  -18.8986   20.1951 C   0  0  0  0  0  0
  -28.5886  -25.4853   19.6451 C   0  0  0  0  0  0
  -29.9970  -15.4182   21.4309 N   0  0  0  0  0  0
  -27.9589  -20.1919   20.6663 N   0  3  1  0  0  0
  -31.4662  -12.4788   19.1265 H   0  0  0  0  0  0
  -30.3686  -11.3290   19.8163 H   0  0  0  0  0  0
  -29.7429  -11.7826   17.4401 H   0  0  0  0  0  0
  -29.6263  -13.4989   17.7763 H   0  0  0  0  0  0
  -27.8568  -11.2730   18.8489 H   0  0  0  0  0  0
  -27.3542  -12.5698   17.8030 H   0  0  0  0  0  0
  -27.7016  -14.2224   19.5593 H   0  0  0  0  0  0
  -28.6814  -11.9141   21.3138 H   0  0  0  0  0  0
  -28.4137  -13.5256   21.8833 H   0  0  0  0  0  0
  -25.2749   -9.5662   22.4728 H   0  0  0  0  0  0
  -24.0026   -7.4585   22.7435 H   0  0  0  0  0  0
  -21.0828   -8.8720   19.8921 H   0  0  0  0  0  0
  -22.3669  -10.9643   19.6143 H   0  0  0  0  0  0
  -21.1990   -7.6145   23.9680 H   0  0  0  0  0  0
  -21.1450   -6.0544   25.9058 H   0  0  0  0  0  0
  -22.0639   -2.7615   23.2877 H   0  0  0  0  0  0
  -22.4341  -11.9674   22.4643 H   0  0  0  0  0  0
  -21.1253  -13.0995   22.2878 H   0  0  0  0  0  0
  -24.6896  -15.8499   20.5174 H   0  0  0  0  0  0
  -26.3053  -15.5971   20.0816 H   0  0  0  0  0  0
  -26.7075  -32.5572   23.1260 H   0  0  0  0  0  0
  -25.0033  -33.9837   25.0540 H   0  0  0  0  0  0
  -22.6803  -31.3118   21.4225 H   0  0  0  0  0  0
  -23.3724  -35.9674   23.3322 H   0  0  0  0  0  0
  -24.3566  -36.8929   22.2062 H   0  0  0  0  0  0
  -23.7220  -37.6547   23.6636 H   0  0  0  0  0  0
  -26.0158  -31.6174   20.5898 H   0  0  0  0  0  0
  -26.8112  -30.9103   21.9697 H   0  0  0  0  0  0
  -28.0958  -29.1594   21.1245 H   0  0  0  0  0  0
  -25.9969  -25.9652   19.0710 H   0  0  0  0  0  0
  -23.9563  -27.2687   19.1111 H   0  0  0  0  0  0
  -23.7001  -30.6010   19.4105 H   0  0  0  0  0  0
  -22.7210  -29.2437   19.8831 H   0  0  0  0  0  0
  -25.1247  -36.2032   25.0850 H   0  0  0  0  0  0
  -20.9962  -28.3114   24.1449 H   0  0  0  0  0  0
  -20.5746  -26.2207   23.3549 H   0  0  0  0  0  0
  -21.6674  -26.7408   22.1168 H   0  0  0  0  0  0
  -19.6960  -25.6195   21.1235 H   0  0  0  0  0  0
  -19.6741  -27.3097   20.6710 H   0  0  0  0  0  0
  -17.4245  -26.6633   21.3932 H   0  0  0  0  0  0
  -18.0293  -25.9973   22.8949 H   0  0  0  0  0  0
  -19.7941  -30.7241   24.2209 H   0  0  0  0  0  0
  -17.4999  -31.6272   24.5006 H   0  0  0  0  0  0
  -15.5333  -30.2941   23.7570 H   0  0  0  0  0  0
  -15.8670  -28.0749   22.7052 H   0  0  0  0  0  0
  -24.5904  -30.7103   25.8012 H   0  0  0  0  0  0
  -24.9076  -32.2855   26.5200 H   0  0  0  0  0  0
  -25.8243  -30.8817   27.0288 H   0  0  0  0  0  0
  -26.2803  -29.6897   24.1142 H   0  0  0  0  0  0
  -27.4051  -29.7282   25.4533 H   0  0  0  0  0  0
  -27.8626  -30.4447   23.9237 H   0  0  0  0  0  0
  -27.2620  -33.3604   26.2210 H   0  0  0  0  0  0
  -28.3806  -32.7015   25.0374 H   0  0  0  0  0  0
  -28.0740  -31.8455   26.5422 H   0  0  0  0  0  0
  -28.2603  -38.0105   24.7493 H   0  0  0  0  0  0
  -28.1047  -36.2638   24.6300 H   0  0  0  0  0  0
  -27.2293  -37.1476   25.8875 H   0  0  0  0  0  0
  -20.9294  -29.8604   21.6892 H   0  0  0  0  0  0
  -26.0182  -38.2891   24.1441 H   0  0  0  0  0  0
  -28.8169  -22.8290   22.7158 H   0  0  0  0  0  0
  -27.2289  -22.1644   22.5361 H   0  0  0  0  0  0
  -29.2400  -22.3151   19.3068 H   0  0  0  0  0  0
  -27.7997  -22.9833   18.6045 H   0  0  0  0  0  0
  -28.9025  -20.3621   22.5632 H   0  0  0  0  0  0
  -29.7922  -21.0868   21.2435 H   0  0  0  0  0  0
  -26.8420  -23.4815   20.7805 H   0  0  0  0  0  0
  -27.6872  -20.5579   18.5769 H   0  0  0  0  0  0
  -21.9965  -20.3421   20.6336 H   0  0  0  0  0  0
  -23.4563  -21.1459   21.1899 H   0  0  0  0  0  0
  -23.4235  -19.3889   21.0365 H   0  0  0  0  0  0
  -29.5347  -15.6808   24.8510 H   0  0  0  0  0  0
  -28.6793  -14.6369   23.7424 H   0  0  0  0  0  0
  -28.4825  -16.3862   23.6502 H   0  0  0  0  0  0
  -29.6591  -24.4506   21.1991 H   0  0  0  0  0  0
  -28.1456  -25.1273   21.7172 H   0  0  0  0  0  0
  -25.6728  -22.2064   19.1288 H   0  0  0  0  0  0
  -25.6465  -21.3857   20.6523 H   0  0  0  0  0  0
  -23.2972  -21.4126   18.7246 H   0  0  0  0  0  0
  -23.0178  -19.7073   18.5167 H   0  0  0  0  0  0
  -25.3304  -19.1905   19.3273 H   0  0  0  0  0  0
  -25.2960  -20.1618   17.8752 H   0  0  0  0  0  0
  -28.2398  -17.7784   22.0292 H   0  0  0  0  0  0
  -29.9198  -18.2946   21.7869 H   0  0  0  0  0  0
  -31.1335  -14.9504   23.1536 H   0  0  0  0  0  0
  -30.8938  -16.6510   22.9341 H   0  0  0  0  0  0
  -29.9331  -16.7006   19.7416 H   0  0  0  0  0  0
  -28.3956  -16.1478   20.2861 H   0  0  0  0  0  0
  -27.7878  -18.3971   19.6034 H   0  0  0  0  0  0
  -29.3709  -19.1030   19.5229 H   0  0  0  0  0  0
  -27.8567  -25.1800   18.9065 H   0  0  0  0  0  0
  -29.5401  -25.3848   19.1229 H   0  0  0  0  0  0
  -27.1208  -19.9411   21.1689 H   0  0  0  0  0  0
  1 25  1  0  0  0
  1 30  2  0  0  0
  1 87  1  0  0  0
  2  3  1  0  0  0
  2 25  1  0  0  0
  2 89  1  0  0  0
  2 90  1  0  0  0
  3  4  1  0  0  0
  3 91  1  0  0  0
  3 92  1  0  0  0
  4  5  1  0  0  0
  4 93  1  0  0  0
  4 94  1  0  0  0
  5  6  1  0  0  0
  5 26  1  0  0  0
  5 95  1  0  0  0
  6 25  1  0  0  0
  6 96  1  0  0  0
  6 97  1  0  0  0
  7  8  2  0  0  0
  7 26  1  0  0  0
  7 29  1  0  0  0
  8  9  1  0  0  0
  8 22  1  0  0  0
  9 10  1  0  0  0
  9 27  2  0  0  0
 10 11  2  0  0  0
 10 15  1  0  0  0
 11 12  1  0  0  0
 11 98  1  0  0  0
 12 13  2  0  0  0
 12 99  1  0  0  0
 13 14  1  0  0  0
 13 31  1  0  0  0
 14 15  2  0  0  0
 14100  1  0  0  0
 15101  1  0  0  0
 16 17  2  0  0  0
 16 21  1  0  0  0
 16 31  1  0  0  0
 17 18  1  0  0  0
 17102  1  0  0  0
 18 19  2  0  0  0
 18103  1  0  0  0
 19 20  1  0  0  0
 19 24  1  0  0  0
 20 21  2  0  0  0
 20104  1  0  0  0
 21 23  1  0  0  0
 22 28  1  0  0  0
 22 32  2  0  0  0
 26 27  1  0  0  0
 28105  1  0  0  0
 28106  1  0  0  0
 29107  1  0  0  0
 29108  1  0  0  0
 33 34  1  0  0  0
 33 66  1  0  0  0
 33 70  2  0  0  0
 34 36  1  0  0  0
 34 59  1  0  0  0
 34109  1  0  0  0
 35 44  2  0  0  0
 35 45  1  0  0  0
 35 68  1  0  0  0
 36 56  1  0  0  0
 36110  1  0  0  0
 37 39  1  0  0  0
 37 47  1  0  0  0
 37 66  1  0  0  0
 37111  1  0  0  0
 38 43  2  0  0  0
 38 46  1  0  0  0
 38 47  1  0  0  0
 39 64  1  0  0  0
 39 67  2  0  0  0
 40 52  1  0  0  0
 40 53  2  0  0  0
 40 58  1  0  0  0
 41112  1  0  0  0
 41113  1  0  0  0
 41114  1  0  0  0
 41 48  1  0  0  0
 42 43  1  0  0  0
 42 66  1  0  0  0
 42115  1  0  0  0
 42116  1  0  0  0
 43 44  1  0  0  0
 44117  1  0  0  0
 45 46  2  0  0  0
 45118  1  0  0  0
 46119  1  0  0  0
 47120  1  0  0  0
 47121  1  0  0  0
 48 56  1  0  0  0
 48 65  1  0  0  0
 48122  1  0  0  0
 49 50  1  0  0  0
 49 53  1  0  0  0
 49 64  1  0  0  0
 49123  1  0  0  0
 50 51  1  0  0  0
 50124  1  0  0  0
 50125  1  0  0  0
 51 52  1  0  0  0
 51126  1  0  0  0
 51127  1  0  0  0
 52128  1  0  0  0
 52129  1  0  0  0
 53 54  1  0  0  0
 54 55  2  0  0  0
 54130  1  0  0  0
 55 57  1  0  0  0
 55131  1  0  0  0
 56 69  2  0  0  0
 57 58  2  0  0  0
 57132  1  0  0  0
 58133  1  0  0  0
 59 60  1  0  0  0
 59 61  1  0  0  0
 59 62  1  0  0  0
 60134  1  0  0  0
 60135  1  0  0  0
 60136  1  0  0  0
 61137  1  0  0  0
 61138  1  0  0  0
 61139  1  0  0  0
 62140  1  0  0  0
 62141  1  0  0  0
 62142  1  0  0  0
 63 65  1  0  0  0
 63143  1  0  0  0
 63144  1  0  0  0
 63145  1  0  0  0
 64146  1  0  0  0
 65147  1  0  0  0
 68 86  1  0  0  0
 71 73  1  0  0  0
 71 74  1  0  0  0
 71148  1  0  0  0
 71149  1  0  0  0
 72 74  1  0  0  0
 72 75  1  0  0  0
 72150  1  0  0  0
 72151  1  0  0  0
 73 88  1  0  0  0
 73152  1  0  0  0
 73153  1  0  0  0
 74 78  1  0  0  0
 74154  1  0  0  0
 75 79  1  0  0  0
 75 88  1  0  0  0
 75155  1  0  0  0
 76 80  1  0  0  0
 76156  1  0  0  0
 76157  1  0  0  0
 76158  1  0  0  0
 77 83  1  0  0  0
 77159  1  0  0  0
 77160  1  0  0  0
 77161  1  0  0  0
 78 86  1  0  0  0
 78162  1  0  0  0
 78163  1  0  0  0
 79 81  1  0  0  0
 79164  1  0  0  0
 79165  1  0  0  0
 80 81  1  0  0  0
 80166  1  0  0  0
 80167  1  0  0  0
 81168  1  0  0  0
 81169  1  0  0  0
 82 84  1  0  0  0
 82 85  1  0  0  0
 82170  1  0  0  0
 82171  1  0  0  0
 83 87  1  0  0  0
 83172  1  0  0  0
 83173  1  0  0  0
 84 87  1  0  0  0
 84174  1  0  0  0
 84175  1  0  0  0
 85176  1  0  0  0
 85177  1  0  0  0
 85 88  1  0  0  0
 86178  1  0  0  0
 86179  1  0  0  0
 88180  1  0  0  0
M  CHG  1  88   1
M  ISO  4   1 100  68 101  86 101  87 100
M  END
> <chiral flag>
0

> <version>
0

> <s_m_source_file>
/data/baiqing/PycharmProjects/Reinvent-master-3.2/result/LINK_invent/BTK/process_docking_weight1_custom_sum_contain_oxygen_bond_distance_aromatic_linkinvent_7_9_3/rearranged_h_0097.sdf

> <i_m_source_file_index>
27

> <r_mmod_Potential_Energy-OPLS-2005>
220.247848510742

> <r_mmod_Stretch_Energy-OPLS-2005>
45.5151748657227

> <r_mmod_Bend_Energy-OPLS-2005>
134.535049438477

> <r_mmod_Torsional_Energy-OPLS-2005>
384.819946289062

> <r_mmod_Improper_Torsional_Energy-OPLS-2005>
4.14806747436523

> <r_mmod_Van_der_Waal_Energy-OPLS-2005>
148.119750976562

> <r_mmod_Electrostatic_Energy-OPLS-2005>
-99.5661315917969

> <r_mmod_Solvation_Energy-OPLS-2005>
-412.646087646484

> <b_mmod_Minimization_Converged-OPLS-2005>
0

> <r_mmod_RMS_Derivative-OPLS-2005>
8.8738842010498

$$$$
27
                    3D
 Structure written by MMmdl.
185193  0  0  1  0            999 V2000
  -31.0635  -14.1992   20.1573 C   0  0  0  0  0  0
  -30.2857  -12.0570   19.3211 C   0  0  0  0  0  0
  -29.3993  -12.3640   18.1145 C   0  0  0  0  0  0
  -27.9438  -12.3708   18.5894 C   0  0  0  0  0  0
  -27.6876  -13.2360   19.8582 C   0  0  2  0  0  0
  -28.8335  -13.1261   20.9237 C   0  0  0  0  0  0
  -25.2769  -13.8249   20.5875 C   0  0  0  0  0  0
  -24.1994  -13.0478   20.9278 C   0  0  0  0  0  0
  -24.6585  -11.6968   20.8853 C   0  0  0  0  0  0
  -23.9203  -10.4326   21.0445 C   0  0  0  0  0  0
  -24.3701   -9.4200   21.9217 C   0  0  0  0  0  0
  -23.6327   -8.2253   22.0768 C   0  0  0  0  0  0
  -22.4310   -8.0313   21.3544 C   0  0  0  0  0  0
  -21.9986   -9.0314   20.4652 C   0  0  0  0  0  0
  -22.7363  -10.2181   20.3077 C   0  0  0  0  0  0
  -21.6859   -6.0780   22.5286 C   0  0  0  0  0  0
  -21.4019   -6.5664   23.8225 C   0  0  0  0  0  0
  -21.3655   -5.6798   24.9175 C   0  0  0  0  0  0
  -21.6044   -4.3065   24.7219 C   0  0  0  0  0  0
  -21.8812   -3.8177   23.4328 C   0  0  0  0  0  0
  -21.9199   -4.7006   22.3397 C   0  0  0  0  0  0
  -22.7970  -13.5233   21.1839 C   0  0  0  0  0  0
  -22.1666   -4.2186   21.0976 F   0  0  0  0  0  0
  -21.5616   -3.4540   25.7721 F   0  0  0  0  0  0
  -30.1436  -13.1898   20.2195 N   0  0  0  0  0  0
  -26.3356  -12.9529   20.3740 N   0  0  0  0  0  0
  -25.9592  -11.6650   20.6089 N   0  0  0  0  0  0
  -22.0582  -12.8212   22.0366 N   0  0  0  0  0  0
  -25.4362  -15.1954   20.4175 N   0  0  0  0  0  0
  -31.3162  -14.9836   21.0289 O   0  0  0  0  0  0
  -21.6635   -6.8928   21.4246 O   0  0  0  0  0  0
  -22.3643  -14.5526   20.6665 O   0  0  0  0  0  0
  -24.6119  -31.8695   23.2123 C   0  0  0  0  0  0
  -25.9023  -32.4838   23.8411 C   0  0  1  0  0  0
  -27.2487  -27.4656   20.0795 C   0  0  0  0  0  0
  -25.5890  -33.8630   24.2345 N   0  0  0  0  0  0
  -23.3988  -30.4911   21.5518 C   0  0  2  0  0  0
  -24.8458  -28.9559   20.1204 C   0  0  0  0  0  0
  -22.7399  -29.4651   22.5013 C   0  0  0  0  0  0
  -18.0270  -28.1369   22.8499 C   0  0  0  0  0  0
  -24.1481  -36.7306   23.2633 C   0  0  0  0  0  0
  -25.9235  -30.8409   21.3617 C   0  0  0  0  0  0
  -26.0014  -29.4734   20.7172 C   0  0  0  0  0  0
  -27.1990  -28.7276   20.7092 C   0  0  0  0  0  0
  -26.0689  -26.9474   19.4962 C   0  0  0  0  0  0
  -24.8709  -27.6867   19.5155 C   0  0  0  0  0  0
  -23.6066  -29.8194   20.1672 C   0  0  0  0  0  0
  -25.4101  -36.3110   24.0339 C   0  0  1  0  0  0
  -20.5858  -28.3650   23.1335 C   0  0  2  0  0  0
  -20.6757  -26.9393   22.5421 C   0  0  0  0  0  0
  -19.5738  -26.6384   21.5214 C   0  0  0  0  0  0
  -18.1918  -26.7924   22.1621 C   0  0  0  0  0  0
  -19.1519  -28.8826   23.2913 C   0  0  0  0  0  0
  -18.9448  -30.1438   23.8919 C   0  0  0  0  0  0
  -17.6453  -30.6581   24.0570 C   0  0  0  0  0  0
  -25.9028  -34.9478   23.5135 C   0  0  0  0  0  0
  -16.5339  -29.9090   23.6327 C   0  0  0  0  0  0
  -16.7261  -28.6497   23.0352 C   0  0  0  0  0  0
  -26.4465  -31.6611   25.0729 C   0  0  0  0  0  0
  -25.3743  -31.3697   26.1488 C   0  0  0  0  0  0
  -27.0287  -30.3066   24.6067 C   0  0  0  0  0  0
  -27.6060  -32.4315   25.7482 C   0  0  0  0  0  0
  -27.5583  -37.1802   24.8465 C   0  0  0  0  0  0
  -21.4132  -29.3015   22.3747 N   0  0  0  0  0  0
  -26.4288  -37.3802   23.9417 N   0  0  0  0  0  0
  -24.6626  -31.0815   22.1008 N   0  0  0  0  0  0
  -23.4181  -28.8190   23.3042 O   0  0  0  0  0  0
  -28.4508  -26.7906   20.0616 O   0  0  0  0  0  0
  -26.5583  -34.8932   22.4694 O   0  0  0  0  0  0
  -23.5316  -32.1423   23.7537 O   0  0  0  0  0  0
  -32.0426  -18.2327   18.4879 C   0  0  0  0  0  0
  -32.8002  -19.2992   19.0157 C   0  0  0  0  0  0
  -33.7772  -19.0025   20.0016 C   0  0  0  0  0  0
  -32.3243  -16.9155   18.8822 C   0  0  0  0  0  0
  -34.0636  -17.6379   20.2644 C   0  0  0  0  0  0
  -34.5127  -20.1186   20.7414 C   0  0  0  0  0  0
  -32.9813  -20.6614   16.9214 C   0  0  0  0  0  0
  -36.2224  -16.2988   20.3836 C   0  0  0  0  0  0
  -34.7104  -16.4763   22.4310 C   0  0  0  0  0  0
  -32.8621  -13.7199   18.5431 C   0  0  0  0  0  0
  -28.7955  -22.0132   21.3981 C   0  0  0  0  0  0
  -31.4966  -15.7538   18.3099 C   0  0  0  0  0  0
  -28.5563  -24.4630   19.2576 C   0  0  0  0  0  0
  -31.2299  -21.3199   18.6349 C   0  0  0  0  0  0
  -29.7400  -23.8408   20.0263 C   0  0  0  0  0  0
  -30.8673  -21.6182   20.1042 C   0  0  0  0  0  0
  -28.7413  -25.9587   18.9382 C   0  0  0  0  0  0
  -32.6265  -20.6998   18.4173 C   0  0  1  0  0  0
  -35.2187  -17.1683   21.1588 C   0  0  0  0  0  0
  -33.3517  -16.6359   19.7078 N   0  0  0  0  0  0
  -31.6378  -14.4292   18.9472 N   0  0  0  0  0  0
  -29.5849  -22.3690   20.1964 N   0  3  1  0  0  0
  -31.3076  -11.8209   19.0356 H   0  0  0  0  0  0
  -29.9423  -11.1462   19.8147 H   0  0  0  0  0  0
  -29.5279  -11.5982   17.3475 H   0  0  0  0  0  0
  -29.6502  -13.3138   17.6434 H   0  0  0  0  0  0
  -27.6808  -11.3317   18.7853 H   0  0  0  0  0  0
  -27.2852  -12.6931   17.7833 H   0  0  0  0  0  0
  -27.6941  -14.2694   19.5107 H   0  0  0  0  0  0
  -28.7549  -12.1947   21.4843 H   0  0  0  0  0  0
  -28.7551  -13.9358   21.6494 H   0  0  0  0  0  0
  -25.2850   -9.5631   22.4797 H   0  0  0  0  0  0
  -24.0015   -7.4643   22.7496 H   0  0  0  0  0  0
  -21.0917   -8.8884   19.8951 H   0  0  0  0  0  0
  -22.3867  -10.9737   19.6183 H   0  0  0  0  0  0
  -21.2007   -7.6174   23.9736 H   0  0  0  0  0  0
  -21.1474   -6.0530   25.9077 H   0  0  0  0  0  0
  -22.0588   -2.7644   23.2822 H   0  0  0  0  0  0
  -22.4159  -11.9862   22.4759 H   0  0  0  0  0  0
  -21.1198  -13.1241   22.2550 H   0  0  0  0  0  0
  -24.6631  -15.8446   20.5137 H   0  0  0  0  0  0
  -26.3004  -15.6457   20.1410 H   0  0  0  0  0  0
  -26.7096  -32.5572   23.1185 H   0  0  0  0  0  0
  -25.0092  -33.9796   25.0525 H   0  0  0  0  0  0
  -22.6869  -31.3070   21.4135 H   0  0  0  0  0  0
  -23.3751  -35.9636   23.3299 H   0  0  0  0  0  0
  -24.3583  -36.8910   22.2050 H   0  0  0  0  0  0
  -23.7230  -37.6509   23.6644 H   0  0  0  0  0  0
  -26.0295  -31.6046   20.5895 H   0  0  0  0  0  0
  -26.8129  -30.9006   21.9759 H   0  0  0  0  0  0
  -28.0924  -29.1287   21.1672 H   0  0  0  0  0  0
  -26.0629  -25.9741   19.0273 H   0  0  0  0  0  0
  -23.9803  -27.2729   19.0622 H   0  0  0  0  0  0
  -23.7148  -30.5913   19.4042 H   0  0  0  0  0  0
  -22.7326  -29.2353   19.8736 H   0  0  0  0  0  0
  -25.1285  -36.1971   25.0835 H   0  0  0  0  0  0
  -20.9955  -28.3194   24.1453 H   0  0  0  0  0  0
  -20.5659  -26.2256   23.3597 H   0  0  0  0  0  0
  -21.6634  -26.7444   22.1218 H   0  0  0  0  0  0
  -19.6895  -25.6302   21.1227 H   0  0  0  0  0  0
  -19.6676  -27.3209   20.6752 H   0  0  0  0  0  0
  -17.4197  -26.6691   21.4011 H   0  0  0  0  0  0
  -18.0303  -26.0066   22.9009 H   0  0  0  0  0  0
  -19.7919  -30.7248   24.2309 H   0  0  0  0  0  0
  -17.5000  -31.6268   24.5157 H   0  0  0  0  0  0
  -15.5336  -30.2991   23.7634 H   0  0  0  0  0  0
  -15.8660  -28.0813   22.7067 H   0  0  0  0  0  0
  -24.5918  -30.7048   25.7819 H   0  0  0  0  0  0
  -24.8935  -32.2845   26.4967 H   0  0  0  0  0  0
  -25.8106  -30.8845   27.0229 H   0  0  0  0  0  0
  -26.2807  -29.6839   24.1147 H   0  0  0  0  0  0
  -27.4103  -29.7297   25.4499 H   0  0  0  0  0  0
  -27.8628  -30.4413   23.9176 H   0  0  0  0  0  0
  -27.2705  -33.3611   26.2100 H   0  0  0  0  0  0
  -28.3850  -32.6874   25.0285 H   0  0  0  0  0  0
  -28.0756  -31.8412   26.5364 H   0  0  0  0  0  0
  -28.2596  -38.0104   24.7544 H   0  0  0  0  0  0
  -28.1076  -36.2641   24.6250 H   0  0  0  0  0  0
  -27.2307  -37.1411   25.8867 H   0  0  0  0  0  0
  -20.9288  -29.8740   21.6978 H   0  0  0  0  0  0
  -26.0167  -38.2876   24.1442 H   0  0  0  0  0  0
  -31.2724  -18.4160   17.7515 H   0  0  0  0  0  0
  -33.8732  -20.9858   20.8948 H   0  0  0  0  0  0
  -35.4023  -20.4273   20.1937 H   0  0  0  0  0  0
  -34.8000  -19.8297   21.7514 H   0  0  0  0  0  0
  -33.9805  -20.2494   16.7764 H   0  0  0  0  0  0
  -32.9745  -21.6591   16.4854 H   0  0  0  0  0  0
  -32.2846  -20.0463   16.3510 H   0  0  0  0  0  0
  -36.6089  -16.8395   19.5191 H   0  0  0  0  0  0
  -35.7613  -15.3805   20.0201 H   0  0  0  0  0  0
  -37.0731  -16.0216   21.0062 H   0  0  0  0  0  0
  -34.0655  -17.1432   23.0048 H   0  0  0  0  0  0
  -35.5376  -16.1815   23.0753 H   0  0  0  0  0  0
  -34.1355  -15.5808   22.1907 H   0  0  0  0  0  0
  -32.6622  -13.0935   17.6735 H   0  0  0  0  0  0
  -33.2517  -13.0843   19.3413 H   0  0  0  0  0  0
  -33.6637  -14.4076   18.2704 H   0  0  0  0  0  0
  -27.8354  -22.5287   21.3998 H   0  0  0  0  0  0
  -29.3256  -22.2760   22.3132 H   0  0  0  0  0  0
  -28.5843  -20.9437   21.4224 H   0  0  0  0  0  0
  -30.4425  -16.0393   18.3453 H   0  0  0  0  0  0
  -31.7344  -15.6621   17.2487 H   0  0  0  0  0  0
  -27.6210  -24.3134   19.7963 H   0  0  0  0  0  0
  -28.4503  -23.9333   18.3098 H   0  0  0  0  0  0
  -31.1918  -22.2528   18.0711 H   0  0  0  0  0  0
  -30.4703  -20.6748   18.1928 H   0  0  0  0  0  0
  -29.8695  -24.3239   20.9961 H   0  0  0  0  0  0
  -30.6537  -24.0536   19.4699 H   0  0  0  0  0  0
  -31.6630  -22.1742   20.6032 H   0  0  0  0  0  0
  -30.7863  -20.6685   20.6343 H   0  0  0  0  0  0
  -28.1507  -26.2420   18.0653 H   0  0  0  0  0  0
  -29.7743  -26.1475   18.6430 H   0  0  0  0  0  0
  -33.3490  -21.3861   18.8545 H   0  0  0  0  0  0
  -35.8074  -18.0205   21.4857 H   0  0  0  0  0  0
  -29.0364  -22.0448   19.4143 H   0  0  0  0  0  0
  1 25  1  0  0  0
  1 30  2  0  0  0
  1 91  1  0  0  0
  2  3  1  0  0  0
  2 25  1  0  0  0
  2 93  1  0  0  0
  2 94  1  0  0  0
  3  4  1  0  0  0
  3 95  1  0  0  0
  3 96  1  0  0  0
  4  5  1  0  0  0
  4 97  1  0  0  0
  4 98  1  0  0  0
  5  6  1  0  0  0
  5 26  1  0  0  0
  5 99  1  0  0  0
  6 25  1  0  0  0
  6100  1  0  0  0
  6101  1  0  0  0
  7  8  2  0  0  0
  7 26  1  0  0  0
  7 29  1  0  0  0
  8  9  1  0  0  0
  8 22  1  0  0  0
  9 10  1  0  0  0
  9 27  2  0  0  0
 10 11  2  0  0  0
 10 15  1  0  0  0
 11 12  1  0  0  0
 11102  1  0  0  0
 12 13  2  0  0  0
 12103  1  0  0  0
 13 14  1  0  0  0
 13 31  1  0  0  0
 14 15  2  0  0  0
 14104  1  0  0  0
 15105  1  0  0  0
 16 17  2  0  0  0
 16 21  1  0  0  0
 16 31  1  0  0  0
 17 18  1  0  0  0
 17106  1  0  0  0
 18 19  2  0  0  0
 18107  1  0  0  0
 19 20  1  0  0  0
 19 24  1  0  0  0
 20 21  2  0  0  0
 20108  1  0  0  0
 21 23  1  0  0  0
 22 28  1  0  0  0
 22 32  2  0  0  0
 26 27  1  0  0  0
 28109  1  0  0  0
 28110  1  0  0  0
 29111  1  0  0  0
 29112  1  0  0  0
 33 34  1  0  0  0
 33 66  1  0  0  0
 33 70  2  0  0  0
 34 36  1  0  0  0
 34 59  1  0  0  0
 34113  1  0  0  0
 35 44  2  0  0  0
 35 45  1  0  0  0
 35 68  1  0  0  0
 36 56  1  0  0  0
 36114  1  0  0  0
 37 39  1  0  0  0
 37 47  1  0  0  0
 37 66  1  0  0  0
 37115  1  0  0  0
 38 43  2  0  0  0
 38 46  1  0  0  0
 38 47  1  0  0  0
 39 64  1  0  0  0
 39 67  2  0  0  0
 40 52  1  0  0  0
 40 53  2  0  0  0
 40 58  1  0  0  0
 41116  1  0  0  0
 41117  1  0  0  0
 41118  1  0  0  0
 41 48  1  0  0  0
 42 43  1  0  0  0
 42 66  1  0  0  0
 42119  1  0  0  0
 42120  1  0  0  0
 43 44  1  0  0  0
 44121  1  0  0  0
 45 46  2  0  0  0
 45122  1  0  0  0
 46123  1  0  0  0
 47124  1  0  0  0
 47125  1  0  0  0
 48 56  1  0  0  0
 48 65  1  0  0  0
 48126  1  0  0  0
 49 50  1  0  0  0
 49 53  1  0  0  0
 49 64  1  0  0  0
 49127  1  0  0  0
 50 51  1  0  0  0
 50128  1  0  0  0
 50129  1  0  0  0
 51 52  1  0  0  0
 51130  1  0  0  0
 51131  1  0  0  0
 52132  1  0  0  0
 52133  1  0  0  0
 53 54  1  0  0  0
 54 55  2  0  0  0
 54134  1  0  0  0
 55 57  1  0  0  0
 55135  1  0  0  0
 56 69  2  0  0  0
 57 58  2  0  0  0
 57136  1  0  0  0
 58137  1  0  0  0
 59 60  1  0  0  0
 59 61  1  0  0  0
 59 62  1  0  0  0
 60138  1  0  0  0
 60139  1  0  0  0
 60140  1  0  0  0
 61141  1  0  0  0
 61142  1  0  0  0
 61143  1  0  0  0
 62144  1  0  0  0
 62145  1  0  0  0
 62146  1  0  0  0
 63 65  1  0  0  0
 63147  1  0  0  0
 63148  1  0  0  0
 63149  1  0  0  0
 64150  1  0  0  0
 65151  1  0  0  0
 68 87  1  0  0  0
 71 72  2  0  0  0
 71 74  1  0  0  0
 71152  1  0  0  0
 72 73  1  0  0  0
 72 88  1  0  0  0
 73 75  2  0  0  0
 73 76  1  0  0  0
 74 82  1  0  0  0
 74 90  2  0  0  0
 75 89  1  0  0  0
 75 90  1  0  0  0
 76153  1  0  0  0
 76154  1  0  0  0
 76155  1  0  0  0
 77156  1  0  0  0
 77157  1  0  0  0
 77158  1  0  0  0
 77 88  1  0  0  0
 78159  1  0  0  0
 78160  1  0  0  0
 78161  1  0  0  0
 78 89  1  0  0  0
 79 89  1  0  0  0
 79162  1  0  0  0
 79163  1  0  0  0
 79164  1  0  0  0
 80 91  1  0  0  0
 80165  1  0  0  0
 80166  1  0  0  0
 80167  1  0  0  0
 81168  1  0  0  0
 81169  1  0  0  0
 81170  1  0  0  0
 81 92  1  0  0  0
 82 91  1  0  0  0
 82171  1  0  0  0
 82172  1  0  0  0
 83 85  1  0  0  0
 83 87  1  0  0  0
 83173  1  0  0  0
 83174  1  0  0  0
 84 86  1  0  0  0
 84 88  1  0  0  0
 84175  1  0  0  0
 84176  1  0  0  0
 85 92  1  0  0  0
 85177  1  0  0  0
 85178  1  0  0  0
 86 92  1  0  0  0
 86179  1  0  0  0
 86180  1  0  0  0
 87181  1  0  0  0
 87182  1  0  0  0
 88183  1  0  0  0
 89184  1  0  0  0
 92185  1  0  0  0
M  CHG  1  92   1
M  ISO  4   1 100  68 101  87 101  91 100
M  END
> <chiral flag>
0

> <version>
0

> <s_m_source_file>
/data/baiqing/PycharmProjects/Reinvent-master-3.2/result/LINK_invent/BTK/process_docking_weight1_custom_sum_contain_oxygen_bond_distance_aromatic_linkinvent_7_9_3/rearranged_h_0097.sdf

> <i_m_source_file_index>
28

> <r_mmod_Potential_Energy-OPLS-2005>
-63.112491607666

> <r_mmod_Stretch_Energy-OPLS-2005>
46.3531150817871

> <r_mmod_Bend_Energy-OPLS-2005>
128.037612915039

> <r_mmod_Torsional_Energy-OPLS-2005>
297.806091308594

> <r_mmod_Improper_Torsional_Energy-OPLS-2005>
5.48883724212646

> <r_mmod_Van_der_Waal_Energy-OPLS-2005>
173.825485229492

> <r_mmod_Electrostatic_Energy-OPLS-2005>
-475.382659912109

> <r_mmod_Solvation_Energy-OPLS-2005>
-435.359924316406

> <b_mmod_Minimization_Converged-OPLS-2005>
0

> <r_mmod_RMS_Derivative-OPLS-2005>
2.38454031944275

$$$$
28
                    3D
 Structure written by MMmdl.
163171  0  0  1  0            999 V2000
  -30.7157  -14.5969   20.4530 C   0  0  0  0  0  0
  -30.4174  -12.3681   19.4475 C   0  0  0  0  0  0
  -29.4945  -12.4740   18.2164 C   0  0  0  0  0  0
  -28.0211  -12.3260   18.6368 C   0  0  0  0  0  0
  -27.6485  -13.2204   19.8491 C   0  0  2  0  0  0
  -28.6989  -13.1412   20.9812 C   0  0  0  0  0  0
  -25.2579  -13.8210   20.5687 C   0  0  0  0  0  0
  -24.1860  -13.0456   20.9240 C   0  0  0  0  0  0
  -24.6460  -11.6944   20.8838 C   0  0  0  0  0  0
  -23.9118  -10.4308   21.0467 C   0  0  0  0  0  0
  -24.3650   -9.4188   21.9215 C   0  0  0  0  0  0
  -23.6312   -8.2223   22.0738 C   0  0  0  0  0  0
  -22.4290   -8.0312   21.3522 C   0  0  0  0  0  0
  -21.9971   -9.0315   20.4620 C   0  0  0  0  0  0
  -22.7321  -10.2185   20.3075 C   0  0  0  0  0  0
  -21.6826   -6.0790   22.5285 C   0  0  0  0  0  0
  -21.3995   -6.5670   23.8232 C   0  0  0  0  0  0
  -21.3679   -5.6805   24.9194 C   0  0  0  0  0  0
  -21.6043   -4.3060   24.7198 C   0  0  0  0  0  0
  -21.8814   -3.8183   23.4311 C   0  0  0  0  0  0
  -21.9188   -4.7024   22.3384 C   0  0  0  0  0  0
  -22.7881  -13.5269   21.1860 C   0  0  0  0  0  0
  -22.1619   -4.2245   21.0946 F   0  0  0  0  0  0
  -21.5689   -3.4512   25.7685 F   0  0  0  0  0  0
  -30.0091  -13.4287   20.3894 N   0  0  0  0  0  0
  -26.2990  -12.9383   20.3306 N   0  0  0  0  0  0
  -25.9377  -11.6550   20.5838 N   0  0  0  0  0  0
  -22.0439  -12.8308   22.0406 N   0  0  0  0  0  0
  -25.4269  -15.1930   20.4053 N   0  0  0  0  0  0
  -31.9095  -14.6239   20.1505 O   0  0  0  0  0  0
  -21.6604   -6.8933   21.4240 O   0  0  0  0  0  0
  -22.3580  -14.5567   20.6690 O   0  0  0  0  0  0
  -24.6252  -31.8689   23.2074 C   0  0  0  0  0  0
  -25.9073  -32.4848   23.8430 C   0  0  1  0  0  0
  -27.2091  -27.3614   20.0647 C   0  0  0  0  0  0
  -25.5901  -33.8644   24.2363 N   0  0  0  0  0  0
  -23.4181  -30.4946   21.5583 C   0  0  2  0  0  0
  -24.8569  -28.9701   20.1126 C   0  0  0  0  0  0
  -22.7523  -29.4647   22.5023 C   0  0  0  0  0  0
  -18.0314  -28.1345   22.8516 C   0  0  0  0  0  0
  -24.1492  -36.7274   23.2644 C   0  0  0  0  0  0
  -25.9655  -30.8064   21.3803 C   0  0  0  0  0  0
  -26.0331  -29.4443   20.7066 C   0  0  0  0  0  0
  -27.2190  -28.6529   20.6704 C   0  0  0  0  0  0
  -26.0030  -26.9494   19.4412 C   0  0  0  0  0  0
  -24.8405  -27.7278   19.4768 C   0  0  0  0  0  0
  -23.6219  -29.8371   20.1746 C   0  0  0  0  0  0
  -25.4121  -36.3138   24.0366 C   0  0  1  0  0  0
  -20.5923  -28.3633   23.1309 C   0  0  2  0  0  0
  -20.6809  -26.9372   22.5387 C   0  0  0  0  0  0
  -19.5749  -26.6367   21.5224 C   0  0  0  0  0  0
  -18.1944  -26.7906   22.1645 C   0  0  0  0  0  0
  -19.1567  -28.8822   23.2907 C   0  0  0  0  0  0
  -18.9459  -30.1440   23.8886 C   0  0  0  0  0  0
  -17.6442  -30.6550   24.0543 C   0  0  0  0  0  0
  -25.9034  -34.9494   23.5177 C   0  0  0  0  0  0
  -16.5344  -29.9017   23.6322 C   0  0  0  0  0  0
  -16.7299  -28.6436   23.0371 C   0  0  0  0  0  0
  -26.4458  -31.6617   25.0757 C   0  0  0  0  0  0
  -25.3687  -31.3682   26.1469 C   0  0  0  0  0  0
  -27.0273  -30.3067   24.6120 C   0  0  0  0  0  0
  -27.6077  -32.4328   25.7458 C   0  0  0  0  0  0
  -27.5612  -37.1792   24.8486 C   0  0  0  0  0  0
  -21.4246  -29.2993   22.3724 N   0  0  0  0  0  0
  -26.4327  -37.3806   23.9416 N   0  0  0  0  0  0
  -24.6894  -31.0737   22.1018 N   0  0  0  0  0  0
  -23.4290  -28.8201   23.3084 O   0  0  0  0  0  0
  -28.3180  -26.5037   20.0954 O   0  0  0  0  0  0
  -26.5601  -34.8941   22.4735 O   0  0  0  0  0  0
  -23.5404  -32.1461   23.7376 O   0  0  0  0  0  0
  -28.8838  -18.8210   20.9455 C   0  0  0  0  0  0
  -28.3529  -20.1383   20.8779 C   0  0  0  0  0  0
  -30.5759  -19.4732   19.3459 C   0  0  0  0  0  0
  -30.0152  -18.4628   20.1813 C   0  0  0  0  0  0
  -28.9276  -21.1480   20.0593 C   0  0  0  0  0  0
  -30.0485  -20.7987   19.2668 C   0  0  0  0  0  0
  -33.5858  -21.0259   19.2442 C   0  0  0  0  0  0
  -28.2157  -22.5270   19.9322 C   0  0  0  0  0  0
  -30.7402  -17.0849   20.2863 C   0  0  0  0  0  0
  -32.9528  -22.1117   18.3695 C   0  0  0  0  0  0
  -28.9780  -23.8993   20.1249 C   0  0  0  0  0  0
  -31.6927  -21.6303   17.6322 C   0  0  0  0  0  0
  -28.0123  -25.0938   19.8159 C   0  0  0  0  0  0
  -30.0512  -15.7842   20.5856 N   0  0  0  0  0  0
  -30.5238  -21.7921   18.4324 O   0  0  0  0  0  0
  -31.4584  -12.4615   19.1341 H   0  0  0  0  0  0
  -30.3368  -11.3832   19.9118 H   0  0  0  0  0  0
  -29.7541  -11.7009   17.4905 H   0  0  0  0  0  0
  -29.6424  -13.4329   17.7130 H   0  0  0  0  0  0
  -27.8473  -11.2765   18.8830 H   0  0  0  0  0  0
  -27.3670  -12.5488   17.7929 H   0  0  0  0  0  0
  -27.6553  -14.2435   19.4774 H   0  0  0  0  0  0
  -28.7102  -12.1552   21.4503 H   0  0  0  0  0  0
  -28.4655  -13.8626   21.7656 H   0  0  0  0  0  0
  -25.2797   -9.5658   22.4792 H   0  0  0  0  0  0
  -24.0035   -7.4598   22.7439 H   0  0  0  0  0  0
  -21.0929   -8.8900   19.8868 H   0  0  0  0  0  0
  -22.3848  -10.9766   19.6189 H   0  0  0  0  0  0
  -21.1913   -7.6165   23.9776 H   0  0  0  0  0  0
  -21.1521   -6.0494   25.9108 H   0  0  0  0  0  0
  -22.0574   -2.7648   23.2754 H   0  0  0  0  0  0
  -22.3972  -11.9993   22.4892 H   0  0  0  0  0  0
  -21.1019  -13.1365   22.2428 H   0  0  0  0  0  0
  -24.6750  -15.8579   20.5505 H   0  0  0  0  0  0
  -26.2874  -15.6301   20.1018 H   0  0  0  0  0  0
  -26.7137  -32.5517   23.1186 H   0  0  0  0  0  0
  -25.0123  -33.9808   25.0564 H   0  0  0  0  0  0
  -22.7066  -31.3119   21.4217 H   0  0  0  0  0  0
  -23.3814  -35.9543   23.3321 H   0  0  0  0  0  0
  -24.3610  -36.8840   22.2053 H   0  0  0  0  0  0
  -23.7143  -37.6451   23.6618 H   0  0  0  0  0  0
  -26.1182  -31.5832   20.6303 H   0  0  0  0  0  0
  -26.8433  -30.8345   22.0142 H   0  0  0  0  0  0
  -28.1317  -29.0190   21.1191 H   0  0  0  0  0  0
  -25.9029  -26.0146   18.9127 H   0  0  0  0  0  0
  -23.9380  -27.3666   19.0040 H   0  0  0  0  0  0
  -23.7179  -30.6096   19.4116 H   0  0  0  0  0  0
  -22.7464  -29.2495   19.8930 H   0  0  0  0  0  0
  -25.1290  -36.2061   25.0862 H   0  0  0  0  0  0
  -21.0027  -28.3163   24.1426 H   0  0  0  0  0  0
  -20.5785  -26.2221   23.3561 H   0  0  0  0  0  0
  -21.6662  -26.7438   22.1118 H   0  0  0  0  0  0
  -19.6896  -25.6295   21.1212 H   0  0  0  0  0  0
  -19.6674  -27.3220   20.6788 H   0  0  0  0  0  0
  -17.4233  -26.6726   21.4020 H   0  0  0  0  0  0
  -18.0293  -26.0024   22.9004 H   0  0  0  0  0  0
  -19.7918  -30.7301   24.2250 H   0  0  0  0  0  0
  -17.4954  -31.6239   24.5111 H   0  0  0  0  0  0
  -15.5331  -30.2882   23.7621 H   0  0  0  0  0  0
  -15.8728  -28.0710   22.7092 H   0  0  0  0  0  0
  -24.5874  -30.7047   25.7739 H   0  0  0  0  0  0
  -24.8842  -32.2799   26.4972 H   0  0  0  0  0  0
  -25.7994  -30.8777   27.0203 H   0  0  0  0  0  0
  -26.2796  -29.6848   24.1177 H   0  0  0  0  0  0
  -27.4067  -29.7284   25.4549 H   0  0  0  0  0  0
  -27.8653  -30.4433   23.9282 H   0  0  0  0  0  0
  -27.2778  -33.3652   26.2057 H   0  0  0  0  0  0
  -28.3816  -32.6850   25.0193 H   0  0  0  0  0  0
  -28.0825  -31.8431   26.5306 H   0  0  0  0  0  0
  -28.2659  -38.0069   24.7579 H   0  0  0  0  0  0
  -28.1098  -36.2618   24.6302 H   0  0  0  0  0  0
  -27.2339  -37.1405   25.8889 H   0  0  0  0  0  0
  -20.9449  -29.8628   21.6843 H   0  0  0  0  0  0
  -26.0264  -38.2918   24.1359 H   0  0  0  0  0  0
  -28.4179  -18.0916   21.5961 H   0  0  0  0  0  0
  -27.4668  -20.3682   21.4519 H   0  0  0  0  0  0
  -31.4432  -19.2104   18.7620 H   0  0  0  0  0  0
  -34.5607  -21.3426   19.6108 H   0  0  0  0  0  0
  -33.7272  -20.1075   18.6731 H   0  0  0  0  0  0
  -32.9682  -20.7980   20.1122 H   0  0  0  0  0  0
  -27.3771  -22.5161   20.6311 H   0  0  0  0  0  0
  -27.7510  -22.5431   18.9454 H   0  0  0  0  0  0
  -31.5267  -17.2147   21.0310 H   0  0  0  0  0  0
  -31.2599  -16.9566   19.3345 H   0  0  0  0  0  0
  -33.6946  -22.4322   17.6339 H   0  0  0  0  0  0
  -32.7318  -23.0012   18.9621 H   0  0  0  0  0  0
  -29.8420  -23.9580   19.4632 H   0  0  0  0  0  0
  -29.3526  -23.9785   21.1449 H   0  0  0  0  0  0
  -31.8110  -20.6338   17.2084 H   0  0  0  0  0  0
  -31.5487  -22.2847   16.7716 H   0  0  0  0  0  0
  -27.1109  -24.8483   20.3803 H   0  0  0  0  0  0
  -27.7695  -25.0138   18.7540 H   0  0  0  0  0  0
  -29.0662  -15.7805   20.7917 H   0  0  0  0  0  0
  1 25  1  0  0  0
  1 30  2  0  0  0
  1 84  1  0  0  0
  2  3  1  0  0  0
  2 25  1  0  0  0
  2 86  1  0  0  0
  2 87  1  0  0  0
  3  4  1  0  0  0
  3 88  1  0  0  0
  3 89  1  0  0  0
  4  5  1  0  0  0
  4 90  1  0  0  0
  4 91  1  0  0  0
  5  6  1  0  0  0
  5 26  1  0  0  0
  5 92  1  0  0  0
  6 25  1  0  0  0
  6 93  1  0  0  0
  6 94  1  0  0  0
  7  8  2  0  0  0
  7 26  1  0  0  0
  7 29  1  0  0  0
  8  9  1  0  0  0
  8 22  1  0  0  0
  9 10  1  0  0  0
  9 27  2  0  0  0
 10 11  2  0  0  0
 10 15  1  0  0  0
 11 12  1  0  0  0
 11 95  1  0  0  0
 12 13  2  0  0  0
 12 96  1  0  0  0
 13 14  1  0  0  0
 13 31  1  0  0  0
 14 15  2  0  0  0
 14 97  1  0  0  0
 15 98  1  0  0  0
 16 17  2  0  0  0
 16 21  1  0  0  0
 16 31  1  0  0  0
 17 18  1  0  0  0
 17 99  1  0  0  0
 18 19  2  0  0  0
 18100  1  0  0  0
 19 20  1  0  0  0
 19 24  1  0  0  0
 20 21  2  0  0  0
 20101  1  0  0  0
 21 23  1  0  0  0
 22 28  1  0  0  0
 22 32  2  0  0  0
 26 27  1  0  0  0
 28102  1  0  0  0
 28103  1  0  0  0
 29104  1  0  0  0
 29105  1  0  0  0
 33 34  1  0  0  0
 33 66  1  0  0  0
 33 70  2  0  0  0
 34 36  1  0  0  0
 34 59  1  0  0  0
 34106  1  0  0  0
 35 44  2  0  0  0
 35 45  1  0  0  0
 35 68  1  0  0  0
 36 56  1  0  0  0
 36107  1  0  0  0
 37 39  1  0  0  0
 37 47  1  0  0  0
 37 66  1  0  0  0
 37108  1  0  0  0
 38 43  2  0  0  0
 38 46  1  0  0  0
 38 47  1  0  0  0
 39 64  1  0  0  0
 39 67  2  0  0  0
 40 52  1  0  0  0
 40 53  2  0  0  0
 40 58  1  0  0  0
 41109  1  0  0  0
 41110  1  0  0  0
 41111  1  0  0  0
 41 48  1  0  0  0
 42 43  1  0  0  0
 42 66  1  0  0  0
 42112  1  0  0  0
 42113  1  0  0  0
 43 44  1  0  0  0
 44114  1  0  0  0
 45 46  2  0  0  0
 45115  1  0  0  0
 46116  1  0  0  0
 47117  1  0  0  0
 47118  1  0  0  0
 48 56  1  0  0  0
 48 65  1  0  0  0
 48119  1  0  0  0
 49 50  1  0  0  0
 49 53  1  0  0  0
 49 64  1  0  0  0
 49120  1  0  0  0
 50 51  1  0  0  0
 50121  1  0  0  0
 50122  1  0  0  0
 51 52  1  0  0  0
 51123  1  0  0  0
 51124  1  0  0  0
 52125  1  0  0  0
 52126  1  0  0  0
 53 54  1  0  0  0
 54 55  2  0  0  0
 54127  1  0  0  0
 55 57  1  0  0  0
 55128  1  0  0  0
 56 69  2  0  0  0
 57 58  2  0  0  0
 57129  1  0  0  0
 58130  1  0  0  0
 59 60  1  0  0  0
 59 61  1  0  0  0
 59 62  1  0  0  0
 60131  1  0  0  0
 60132  1  0  0  0
 60133  1  0  0  0
 61134  1  0  0  0
 61135  1  0  0  0
 61136  1  0  0  0
 62137  1  0  0  0
 62138  1  0  0  0
 62139  1  0  0  0
 63 65  1  0  0  0
 63140  1  0  0  0
 63141  1  0  0  0
 63142  1  0  0  0
 64143  1  0  0  0
 65144  1  0  0  0
 68 83  1  0  0  0
 71 72  2  0  0  0
 71 74  1  0  0  0
 71145  1  0  0  0
 72 75  1  0  0  0
 72146  1  0  0  0
 73 74  2  0  0  0
 73 76  1  0  0  0
 73147  1  0  0  0
 74 79  1  0  0  0
 75 76  2  0  0  0
 75 78  1  0  0  0
 76 85  1  0  0  0
 77 80  1  0  0  0
 77148  1  0  0  0
 77149  1  0  0  0
 77150  1  0  0  0
 78 81  1  0  0  0
 78151  1  0  0  0
 78152  1  0  0  0
 79 84  1  0  0  0
 79153  1  0  0  0
 79154  1  0  0  0
 80 82  1  0  0  0
 80155  1  0  0  0
 80156  1  0  0  0
 81 83  1  0  0  0
 81157  1  0  0  0
 81158  1  0  0  0
 82 85  1  0  0  0
 82159  1  0  0  0
 82160  1  0  0  0
 83161  1  0  0  0
 83162  1  0  0  0
 84163  1  0  0  0
M  ISO  4   1 100  68 101  83 101  84 100
M  END
> <chiral flag>
0

> <version>
0

> <s_m_source_file>
/data/baiqing/PycharmProjects/Reinvent-master-3.2/result/LINK_invent/BTK/process_docking_weight1_custom_sum_contain_oxygen_bond_distance_aromatic_linkinvent_7_9_3/rearranged_h_0097.sdf

> <i_m_source_file_index>
29

> <r_mmod_Potential_Energy-OPLS-2005>
15.496940612793

> <r_mmod_Stretch_Energy-OPLS-2005>
63.9264640808105

> <r_mmod_Bend_Energy-OPLS-2005>
163.677276611328

> <r_mmod_Torsional_Energy-OPLS-2005>
205.2353515625

> <r_mmod_Improper_Torsional_Energy-OPLS-2005>
7.00482320785522

> <r_mmod_Van_der_Waal_Energy-OPLS-2005>
161.774490356445

> <r_mmod_Electrostatic_Energy-OPLS-2005>
-422.837524414062

> <r_mmod_Solvation_Energy-OPLS-2005>
-208.901275634766

> <b_mmod_Minimization_Converged-OPLS-2005>
0

> <r_mmod_RMS_Derivative-OPLS-2005>
4.82784605026245

$$$$
29
                    3D
 Structure written by MMmdl.
172180  0  0  1  0            999 V2000
  -30.6622  -14.6912   20.4584 C   0  0  0  0  0  0
  -30.4209  -12.4253   19.4718 C   0  0  0  0  0  0
  -29.5049  -12.4982   18.2335 C   0  0  0  0  0  0
  -28.0338  -12.3230   18.6532 C   0  0  0  0  0  0
  -27.6381  -13.2314   19.8474 C   0  0  2  0  0  0
  -28.6806  -13.1893   20.9839 C   0  0  0  0  0  0
  -25.2500  -13.8181   20.5719 C   0  0  0  0  0  0
  -24.1792  -13.0403   20.9179 C   0  0  0  0  0  0
  -24.6389  -11.6887   20.8697 C   0  0  0  0  0  0
  -23.9051  -10.4259   21.0369 C   0  0  0  0  0  0
  -24.3594   -9.4199   21.9167 C   0  0  0  0  0  0
  -23.6279   -8.2244   22.0743 C   0  0  0  0  0  0
  -22.4271   -8.0261   21.3532 C   0  0  0  0  0  0
  -21.9894   -9.0227   20.4648 C   0  0  0  0  0  0
  -22.7203  -10.2114   20.3042 C   0  0  0  0  0  0
  -21.6858   -6.0741   22.5257 C   0  0  0  0  0  0
  -21.4043   -6.5637   23.8199 C   0  0  0  0  0  0
  -21.3657   -5.6785   24.9157 C   0  0  0  0  0  0
  -21.6039   -4.3042   24.7195 C   0  0  0  0  0  0
  -21.8821   -3.8138   23.4306 C   0  0  0  0  0  0
  -21.9215   -4.6979   22.3377 C   0  0  0  0  0  0
  -22.7835  -13.5227   21.1848 C   0  0  0  0  0  0
  -22.1680   -4.2160   21.0963 F   0  0  0  0  0  0
  -21.5620   -3.4523   25.7701 F   0  0  0  0  0  0
  -29.9868  -13.4975   20.3958 N   0  0  0  0  0  0
  -26.2925  -12.9393   20.3296 N   0  0  0  0  0  0
  -25.9302  -11.6508   20.5685 N   0  0  0  0  0  0
  -22.0482  -12.8221   22.0399 N   0  0  0  0  0  0
  -25.4188  -15.1910   20.4253 N   0  0  0  0  0  0
  -31.8567  -14.7406   20.1630 O   0  0  0  0  0  0
  -21.6635   -6.8858   21.4205 O   0  0  0  0  0  0
  -22.3527  -14.5535   20.6701 O   0  0  0  0  0  0
  -24.6267  -31.8584   23.2081 C   0  0  0  0  0  0
  -25.9121  -32.4797   23.8387 C   0  0  1  0  0  0
  -27.1954  -27.2675   20.0977 C   0  0  0  0  0  0
  -25.5979  -33.8611   24.2296 N   0  0  0  0  0  0
  -23.4219  -30.4809   21.5530 C   0  0  2  0  0  0
  -24.8621  -28.9440   20.1063 C   0  0  0  0  0  0
  -22.7464  -29.4561   22.4950 C   0  0  0  0  0  0
  -18.0268  -28.1423   22.8470 C   0  0  0  0  0  0
  -24.1488  -36.7243   23.2612 C   0  0  0  0  0  0
  -25.9672  -30.7623   21.3968 C   0  0  0  0  0  0
  -26.0335  -29.3886   20.7327 C   0  0  0  0  0  0
  -27.1954  -28.5537   20.7388 C   0  0  0  0  0  0
  -26.0132  -26.9262   19.3997 C   0  0  0  0  0  0
  -24.8547  -27.7202   19.4334 C   0  0  0  0  0  0
  -23.6374  -29.8322   20.1630 C   0  0  0  0  0  0
  -25.4134  -36.3097   24.0311 C   0  0  1  0  0  0
  -20.5868  -28.3704   23.1294 C   0  0  2  0  0  0
  -20.6809  -26.9446   22.5394 C   0  0  0  0  0  0
  -19.5790  -26.6432   21.5199 C   0  0  0  0  0  0
  -18.1953  -26.7966   22.1588 C   0  0  0  0  0  0
  -19.1520  -28.8883   23.2888 C   0  0  0  0  0  0
  -18.9458  -30.1491   23.8896 C   0  0  0  0  0  0
  -17.6464  -30.6639   24.0562 C   0  0  0  0  0  0
  -25.9079  -34.9472   23.5109 C   0  0  0  0  0  0
  -16.5344  -29.9120   23.6375 C   0  0  0  0  0  0
  -16.7254  -28.6542   23.0356 C   0  0  0  0  0  0
  -26.4538  -31.6616   25.0746 C   0  0  0  0  0  0
  -25.3774  -31.3761   26.1468 C   0  0  0  0  0  0
  -27.0388  -30.3050   24.6212 C   0  0  0  0  0  0
  -27.6141  -32.4299   25.7494 C   0  0  0  0  0  0
  -27.5569  -37.1781   24.8466 C   0  0  0  0  0  0
  -21.4178  -29.3022   22.3678 N   0  0  0  0  0  0
  -26.4295  -37.3809   23.9413 N   0  0  0  0  0  0
  -24.6895  -31.0533   22.1076 N   0  0  0  0  0  0
  -23.4165  -28.8064   23.3032 O   0  0  0  0  0  0
  -28.2782  -26.3583   20.1906 O   0  0  0  0  0  0
  -26.5598  -34.8935   22.4640 O   0  0  0  0  0  0
  -23.5423  -32.1399   23.7397 O   0  0  0  0  0  0
  -29.8277  -19.7137   19.6572 C   0  0  0  0  0  0
  -28.9178  -20.4565   21.5142 C   0  0  0  0  0  0
  -29.2588  -20.8992   20.2640 C   0  0  0  0  0  0
  -29.8575  -18.6193   20.5145 C   0  0  0  0  0  0
  -26.6091  -21.7574   18.9033 C   0  0  0  0  0  0
  -27.6227  -19.7457   25.4815 C   0  0  0  0  0  0
  -29.8199  -19.4013   26.6671 C   0  0  0  0  0  0
  -30.5711  -17.2311   20.3367 C   0  0  0  0  0  0
  -28.0244  -22.1074   18.4325 C   0  0  0  0  0  0
  -29.7168  -19.0906   24.1509 C   0  0  0  0  0  0
  -28.7546  -23.6536   20.4359 C   0  0  0  0  0  0
  -29.0627  -18.3850   22.9350 C   0  0  0  0  0  0
  -28.1578  -24.9501   19.6850 C   0  0  0  0  0  0
  -29.0338  -22.3112   19.5793 C   0  0  1  0  0  0
  -28.9463  -18.9512   25.4803 C   0  0  0  0  0  0
  -29.2835  -19.1123   21.6906 N   0  0  0  0  0  0
  -29.9557  -15.8706   20.6029 N   0  0  0  0  0  0
  -31.4645  -12.5247   19.1690 H   0  0  0  0  0  0
  -30.3380  -11.4516   19.9535 H   0  0  0  0  0  0
  -29.7805  -11.7250   17.5157 H   0  0  0  0  0  0
  -29.6368  -13.4530   17.7238 H   0  0  0  0  0  0
  -27.8992  -11.2777   18.9341 H   0  0  0  0  0  0
  -27.3706  -12.5018   17.8048 H   0  0  0  0  0  0
  -27.6298  -14.2497   19.4584 H   0  0  0  0  0  0
  -28.6927  -12.2144   21.4713 H   0  0  0  0  0  0
  -28.4171  -13.9124   21.7563 H   0  0  0  0  0  0
  -25.2739   -9.5721   22.4746 H   0  0  0  0  0  0
  -24.0005   -7.4641   22.7476 H   0  0  0  0  0  0
  -21.0828   -8.8719   19.8961 H   0  0  0  0  0  0
  -22.3621  -10.9644   19.6166 H   0  0  0  0  0  0
  -21.2034   -7.6138   23.9700 H   0  0  0  0  0  0
  -21.1496   -6.0512   25.9069 H   0  0  0  0  0  0
  -22.0612   -2.7597   23.2787 H   0  0  0  0  0  0
  -22.4109  -11.9889   22.4778 H   0  0  0  0  0  0
  -21.1105  -13.1267   22.2625 H   0  0  0  0  0  0
  -24.6457  -15.8356   20.5465 H   0  0  0  0  0  0
  -26.2693  -15.6420   20.1128 H   0  0  0  0  0  0
  -26.7137  -32.5469   23.1075 H   0  0  0  0  0  0
  -25.0304  -33.9847   25.0543 H   0  0  0  0  0  0
  -22.7144  -31.3001   21.4213 H   0  0  0  0  0  0
  -23.3817  -35.9514   23.3311 H   0  0  0  0  0  0
  -24.3513  -36.8840   22.2013 H   0  0  0  0  0  0
  -23.7231  -37.6435   23.6619 H   0  0  0  0  0  0
  -26.1187  -31.5212   20.6268 H   0  0  0  0  0  0
  -26.8394  -30.8051   22.0380 H   0  0  0  0  0  0
  -28.0737  -28.8741   21.2792 H   0  0  0  0  0  0
  -25.9229  -26.0402   18.7955 H   0  0  0  0  0  0
  -23.9631  -27.3915   18.9181 H   0  0  0  0  0  0
  -23.7647  -30.6144   19.4137 H   0  0  0  0  0  0
  -22.7524  -29.2733   19.8541 H   0  0  0  0  0  0
  -25.1345  -36.1925   25.0812 H   0  0  0  0  0  0
  -20.9975  -28.3296   24.1412 H   0  0  0  0  0  0
  -20.5812  -26.2276   23.3569 H   0  0  0  0  0  0
  -21.6680  -26.7575   22.1131 H   0  0  0  0  0  0
  -19.6993  -25.6367   21.1199 H   0  0  0  0  0  0
  -19.6785  -27.3259   20.6765 H   0  0  0  0  0  0
  -17.4253  -26.6676   21.3970 H   0  0  0  0  0  0
  -18.0365  -26.0124   22.9004 H   0  0  0  0  0  0
  -19.7942  -30.7301   24.2249 H   0  0  0  0  0  0
  -17.5040  -31.6326   24.5165 H   0  0  0  0  0  0
  -15.5351  -30.3015   23.7821 H   0  0  0  0  0  0
  -15.8613  -28.0906   22.7067 H   0  0  0  0  0  0
  -24.5955  -30.7108   25.7773 H   0  0  0  0  0  0
  -24.8952  -32.2930   26.4867 H   0  0  0  0  0  0
  -25.8091  -30.8943   27.0251 H   0  0  0  0  0  0
  -26.2970  -29.6768   24.1262 H   0  0  0  0  0  0
  -27.4126  -29.7358   25.4727 H   0  0  0  0  0  0
  -27.8830  -30.4360   23.9444 H   0  0  0  0  0  0
  -27.2852  -33.3639   26.2051 H   0  0  0  0  0  0
  -28.3968  -32.6754   25.0306 H   0  0  0  0  0  0
  -28.0772  -31.8404   26.5414 H   0  0  0  0  0  0
  -28.2645  -38.0022   24.7548 H   0  0  0  0  0  0
  -28.1037  -36.2589   24.6316 H   0  0  0  0  0  0
  -27.2254  -37.1439   25.8851 H   0  0  0  0  0  0
  -20.9376  -29.8653   21.6802 H   0  0  0  0  0  0
  -26.0167  -38.2863   24.1487 H   0  0  0  0  0  0
  -30.2219  -19.6753   18.6497 H   0  0  0  0  0  0
  -28.4417  -20.9949   22.3246 H   0  0  0  0  0  0
  -26.0144  -21.3810   18.0745 H   0  0  0  0  0  0
  -26.0867  -22.6171   19.3192 H   0  0  0  0  0  0
  -26.6301  -20.9899   19.6746 H   0  0  0  0  0  0
  -27.0810  -19.5906   26.4143 H   0  0  0  0  0  0
  -26.9541  -19.4384   24.6769 H   0  0  0  0  0  0
  -27.7961  -20.8213   25.3830 H   0  0  0  0  0  0
  -29.2922  -19.2974   27.6131 H   0  0  0  0  0  0
  -30.1013  -20.4532   26.5749 H   0  0  0  0  0  0
  -30.7363  -18.8135   26.7415 H   0  0  0  0  0  0
  -30.9311  -17.1935   19.3056 H   0  0  0  0  0  0
  -31.4819  -17.2711   20.9364 H   0  0  0  0  0  0
  -27.9951  -22.9759   17.7757 H   0  0  0  0  0  0
  -28.3945  -21.2999   17.7978 H   0  0  0  0  0  0
  -29.8612  -20.1539   23.9589 H   0  0  0  0  0  0
  -30.7244  -18.6874   24.2702 H   0  0  0  0  0  0
  -28.0491  -23.3936   21.2259 H   0  0  0  0  0  0
  -29.6846  -23.9290   20.9344 H   0  0  0  0  0  0
  -27.9843  -18.2967   23.0628 H   0  0  0  0  0  0
  -29.4348  -17.3653   22.8406 H   0  0  0  0  0  0
  -27.1159  -24.6681   19.5950 H   0  0  0  0  0  0
  -28.5446  -24.9663   18.6652 H   0  0  0  0  0  0
  -29.9875  -22.5084   19.0909 H   0  0  0  0  0  0
  -28.7162  -17.8945   25.6249 H   0  0  0  0  0  0
  -28.9607  -15.8148   20.7462 H   0  0  0  0  0  0
  1 25  1  0  0  0
  1 30  2  0  0  0
  1 87  1  0  0  0
  2  3  1  0  0  0
  2 25  1  0  0  0
  2 88  1  0  0  0
  2 89  1  0  0  0
  3  4  1  0  0  0
  3 90  1  0  0  0
  3 91  1  0  0  0
  4  5  1  0  0  0
  4 92  1  0  0  0
  4 93  1  0  0  0
  5  6  1  0  0  0
  5 26  1  0  0  0
  5 94  1  0  0  0
  6 25  1  0  0  0
  6 95  1  0  0  0
  6 96  1  0  0  0
  7  8  2  0  0  0
  7 26  1  0  0  0
  7 29  1  0  0  0
  8  9  1  0  0  0
  8 22  1  0  0  0
  9 10  1  0  0  0
  9 27  2  0  0  0
 10 11  2  0  0  0
 10 15  1  0  0  0
 11 12  1  0  0  0
 11 97  1  0  0  0
 12 13  2  0  0  0
 12 98  1  0  0  0
 13 14  1  0  0  0
 13 31  1  0  0  0
 14 15  2  0  0  0
 14 99  1  0  0  0
 15100  1  0  0  0
 16 17  2  0  0  0
 16 21  1  0  0  0
 16 31  1  0  0  0
 17 18  1  0  0  0
 17101  1  0  0  0
 18 19  2  0  0  0
 18102  1  0  0  0
 19 20  1  0  0  0
 19 24  1  0  0  0
 20 21  2  0  0  0
 20103  1  0  0  0
 21 23  1  0  0  0
 22 28  1  0  0  0
 22 32  2  0  0  0
 26 27  1  0  0  0
 28104  1  0  0  0
 28105  1  0  0  0
 29106  1  0  0  0
 29107  1  0  0  0
 33 34  1  0  0  0
 33 66  1  0  0  0
 33 70  2  0  0  0
 34 36  1  0  0  0
 34 59  1  0  0  0
 34108  1  0  0  0
 35 44  2  0  0  0
 35 45  1  0  0  0
 35 68  1  0  0  0
 36 56  1  0  0  0
 36109  1  0  0  0
 37 39  1  0  0  0
 37 47  1  0  0  0
 37 66  1  0  0  0
 37110  1  0  0  0
 38 43  2  0  0  0
 38 46  1  0  0  0
 38 47  1  0  0  0
 39 64  1  0  0  0
 39 67  2  0  0  0
 40 52  1  0  0  0
 40 53  2  0  0  0
 40 58  1  0  0  0
 41111  1  0  0  0
 41112  1  0  0  0
 41113  1  0  0  0
 41 48  1  0  0  0
 42 43  1  0  0  0
 42 66  1  0  0  0
 42114  1  0  0  0
 42115  1  0  0  0
 43 44  1  0  0  0
 44116  1  0  0  0
 45 46  2  0  0  0
 45117  1  0  0  0
 46118  1  0  0  0
 47119  1  0  0  0
 47120  1  0  0  0
 48 56  1  0  0  0
 48 65  1  0  0  0
 48121  1  0  0  0
 49 50  1  0  0  0
 49 53  1  0  0  0
 49 64  1  0  0  0
 49122  1  0  0  0
 50 51  1  0  0  0
 50123  1  0  0  0
 50124  1  0  0  0
 51 52  1  0  0  0
 51125  1  0  0  0
 51126  1  0  0  0
 52127  1  0  0  0
 52128  1  0  0  0
 53 54  1  0  0  0
 54 55  2  0  0  0
 54129  1  0  0  0
 55 57  1  0  0  0
 55130  1  0  0  0
 56 69  2  0  0  0
 57 58  2  0  0  0
 57131  1  0  0  0
 58132  1  0  0  0
 59 60  1  0  0  0
 59 61  1  0  0  0
 59 62  1  0  0  0
 60133  1  0  0  0
 60134  1  0  0  0
 60135  1  0  0  0
 61136  1  0  0  0
 61137  1  0  0  0
 61138  1  0  0  0
 62139  1  0  0  0
 62140  1  0  0  0
 62141  1  0  0  0
 63 65  1  0  0  0
 63142  1  0  0  0
 63143  1  0  0  0
 63144  1  0  0  0
 64145  1  0  0  0
 65146  1  0  0  0
 68 83  1  0  0  0
 71 73  1  0  0  0
 71 74  2  0  0  0
 71147  1  0  0  0
 72 73  2  0  0  0
 72 86  1  0  0  0
 72148  1  0  0  0
 73 84  1  0  0  0
 74 78  1  0  0  0
 74 86  1  0  0  0
 75 79  1  0  0  0
 75149  1  0  0  0
 75150  1  0  0  0
 75151  1  0  0  0
 76152  1  0  0  0
 76153  1  0  0  0
 76154  1  0  0  0
 76 85  1  0  0  0
 77 85  1  0  0  0
 77155  1  0  0  0
 77156  1  0  0  0
 77157  1  0  0  0
 78 87  1  0  0  0
 78158  1  0  0  0
 78159  1  0  0  0
 79160  1  0  0  0
 79161  1  0  0  0
 79 84  1  0  0  0
 80 82  1  0  0  0
 80 85  1  0  0  0
 80162  1  0  0  0
 80163  1  0  0  0
 81 83  1  0  0  0
 81 84  1  0  0  0
 81164  1  0  0  0
 81165  1  0  0  0
 82 86  1  0  0  0
 82166  1  0  0  0
 82167  1  0  0  0
 83168  1  0  0  0
 83169  1  0  0  0
 84170  1  0  0  0
 85171  1  0  0  0
 87172  1  0  0  0
M  ISO  4   1 100  68 101  83 101  87 100
M  END
> <chiral flag>
0

> <version>
0

> <s_m_source_file>
/data/baiqing/PycharmProjects/Reinvent-master-3.2/result/LINK_invent/BTK/process_docking_weight1_custom_sum_contain_oxygen_bond_distance_aromatic_linkinvent_7_9_3/rearranged_h_0097.sdf

> <i_m_source_file_index>
30

> <r_mmod_Potential_Energy-OPLS-2005>
131.235534667969

> <r_mmod_Stretch_Energy-OPLS-2005>
101.992965698242

> <r_mmod_Bend_Energy-OPLS-2005>
185.966110229492

> <r_mmod_Torsional_Energy-OPLS-2005>
246.079513549805

> <r_mmod_Improper_Torsional_Energy-OPLS-2005>
6.68989562988281

> <r_mmod_Van_der_Waal_Energy-OPLS-2005>
127.116310119629

> <r_mmod_Electrostatic_Energy-OPLS-2005>
-420.728057861328

> <r_mmod_Solvation_Energy-OPLS-2005>
-196.854675292969

> <b_mmod_Minimization_Converged-OPLS-2005>
0

> <r_mmod_RMS_Derivative-OPLS-2005>
5.73866367340088

$$$$
30
                    3D
 Structure written by MMmdl.
168176  0  0  1  0            999 V2000
  -30.6026  -14.7304   20.4667 C   0  0  0  0  0  0
  -30.4398  -12.4489   19.4598 C   0  0  0  0  0  0
  -29.5103  -12.5043   18.2277 C   0  0  0  0  0  0
  -28.0359  -12.3299   18.6443 C   0  0  0  0  0  0
  -27.6439  -13.2259   19.8494 C   0  0  2  0  0  0
  -28.6909  -13.1437   20.9804 C   0  0  0  0  0  0
  -25.2527  -13.8186   20.5675 C   0  0  0  0  0  0
  -24.1813  -13.0437   20.9198 C   0  0  0  0  0  0
  -24.6388  -11.6911   20.8725 C   0  0  0  0  0  0
  -23.9061  -10.4287   21.0386 C   0  0  0  0  0  0
  -24.3609   -9.4205   21.9171 C   0  0  0  0  0  0
  -23.6286   -8.2239   22.0751 C   0  0  0  0  0  0
  -22.4269   -8.0269   21.3537 C   0  0  0  0  0  0
  -21.9900   -9.0244   20.4645 C   0  0  0  0  0  0
  -22.7224  -10.2126   20.3048 C   0  0  0  0  0  0
  -21.6855   -6.0718   22.5266 C   0  0  0  0  0  0
  -21.4022   -6.5628   23.8196 C   0  0  0  0  0  0
  -21.3666   -5.6784   24.9160 C   0  0  0  0  0  0
  -21.6046   -4.3045   24.7221 C   0  0  0  0  0  0
  -21.8823   -3.8133   23.4345 C   0  0  0  0  0  0
  -21.9201   -4.6946   22.3397 C   0  0  0  0  0  0
  -22.7840  -13.5225   21.1863 C   0  0  0  0  0  0
  -22.1668   -4.2130   21.0975 F   0  0  0  0  0  0
  -21.5632   -3.4535   25.7741 F   0  0  0  0  0  0
  -29.9899  -13.5012   20.3962 N   0  0  0  0  0  0
  -26.2948  -12.9377   20.3265 N   0  0  0  0  0  0
  -25.9313  -11.6525   20.5727 N   0  0  0  0  0  0
  -22.0489  -12.8210   22.0423 N   0  0  0  0  0  0
  -25.4223  -15.1909   20.4090 N   0  0  0  0  0  0
  -31.7960  -14.8468   20.1806 O   0  0  0  0  0  0
  -21.6643   -6.8856   21.4225 O   0  0  0  0  0  0
  -22.3516  -14.5518   20.6694 O   0  0  0  0  0  0
  -24.6293  -31.8554   23.1953 C   0  0  0  0  0  0
  -25.9125  -32.4748   23.8310 C   0  0  1  0  0  0
  -27.2331  -27.2733   20.1219 C   0  0  0  0  0  0
  -25.5924  -33.8551   24.2239 N   0  0  0  0  0  0
  -23.4263  -30.4738   21.5401 C   0  0  2  0  0  0
  -24.8741  -28.9166   20.1093 C   0  0  0  0  0  0
  -22.7497  -29.4594   22.4925 C   0  0  0  0  0  0
  -18.0286  -28.1379   22.8484 C   0  0  0  0  0  0
  -24.1491  -36.7278   23.2641 C   0  0  0  0  0  0
  -25.9692  -30.7706   21.3727 C   0  0  0  0  0  0
  -26.0425  -29.3932   20.7154 C   0  0  0  0  0  0
  -27.2191  -28.5815   20.7119 C   0  0  0  0  0  0
  -26.0377  -26.8524   19.4978 C   0  0  0  0  0  0
  -24.8769  -27.6541   19.4922 C   0  0  0  0  0  0
  -23.6418  -29.8008   20.1578 C   0  0  0  0  0  0
  -25.4119  -36.3068   24.0329 C   0  0  1  0  0  0
  -20.5888  -28.3689   23.1272 C   0  0  2  0  0  0
  -20.6775  -26.9403   22.5409 C   0  0  0  0  0  0
  -19.5755  -26.6376   21.5207 C   0  0  0  0  0  0
  -18.1935  -26.7922   22.1621 C   0  0  0  0  0  0
  -19.1539  -28.8850   23.2873 C   0  0  0  0  0  0
  -18.9465  -30.1450   23.8888 C   0  0  0  0  0  0
  -17.6465  -30.6582   24.0555 C   0  0  0  0  0  0
  -25.9060  -34.9435   23.5089 C   0  0  0  0  0  0
  -16.5354  -29.9081   23.6320 C   0  0  0  0  0  0
  -16.7274  -28.6495   23.0350 C   0  0  0  0  0  0
  -26.4487  -31.6569   25.0698 C   0  0  0  0  0  0
  -25.3701  -31.3738   26.1411 C   0  0  0  0  0  0
  -27.0316  -30.2979   24.6173 C   0  0  0  0  0  0
  -27.6033  -32.4315   25.7481 C   0  0  0  0  0  0
  -27.5585  -37.1790   24.8462 C   0  0  0  0  0  0
  -21.4205  -29.3037   22.3670 N   0  0  0  0  0  0
  -26.4291  -37.3770   23.9410 N   0  0  0  0  0  0
  -24.6938  -31.0517   22.0922 N   0  0  0  0  0  0
  -23.4196  -28.8143   23.3034 O   0  0  0  0  0  0
  -28.3697  -26.4405   20.2077 O   0  0  0  0  0  0
  -26.5641  -34.8916   22.4663 O   0  0  0  0  0  0
  -23.5448  -32.1372   23.7253 O   0  0  0  0  0  0
  -30.7279  -22.7170   19.6664 C   0  0  0  0  0  0
  -29.0830  -21.0463   20.2224 C   0  0  0  0  0  0
  -29.4259  -22.4540   20.1108 C   0  0  0  0  0  0
  -31.5864  -21.7084   19.1863 C   0  0  0  0  0  0
  -29.9421  -19.9518   19.7792 C   0  0  0  0  0  0
  -31.1682  -20.3373   19.1260 C   0  0  0  0  0  0
  -34.0981  -21.7367   19.6464 C   0  0  0  0  0  0
  -31.2736  -19.1911   16.8449 C   0  0  0  0  0  0
  -32.5057  -18.0724   18.7742 C   0  0  0  0  0  0
  -28.5465  -23.7137   20.5505 C   0  0  0  0  0  0
  -32.9618  -22.1984   18.7202 C   0  0  0  0  0  0
  -29.4731  -18.4185   19.8427 C   0  0  0  0  0  0
  -30.1293  -17.3243   20.8425 C   0  0  0  0  0  0
  -28.4919  -25.0579   19.6372 C   0  0  0  0  0  0
  -31.9786  -19.3894   18.1975 C   0  0  0  0  0  0
  -29.7984  -15.8390   20.6693 N   0  0  0  0  0  0
  -31.4780  -12.5902   19.1534 H   0  0  0  0  0  0
  -30.3988  -11.4684   19.9377 H   0  0  0  0  0  0
  -29.7892  -11.7324   17.5089 H   0  0  0  0  0  0
  -29.6379  -13.4595   17.7154 H   0  0  0  0  0  0
  -27.8896  -11.2799   18.9011 H   0  0  0  0  0  0
  -27.3773  -12.5293   17.7986 H   0  0  0  0  0  0
  -27.6417  -14.2494   19.4739 H   0  0  0  0  0  0
  -28.7268  -12.1395   21.4043 H   0  0  0  0  0  0
  -28.4298  -13.8126   21.8019 H   0  0  0  0  0  0
  -25.2751   -9.5696   22.4744 H   0  0  0  0  0  0
  -24.0002   -7.4637   22.7471 H   0  0  0  0  0  0
  -21.0832   -8.8753   19.8958 H   0  0  0  0  0  0
  -22.3665  -10.9657   19.6162 H   0  0  0  0  0  0
  -21.2013   -7.6139   23.9687 H   0  0  0  0  0  0
  -21.1487   -6.0518   25.9058 H   0  0  0  0  0  0
  -22.0603   -2.7596   23.2848 H   0  0  0  0  0  0
  -22.4123  -11.9887   22.4826 H   0  0  0  0  0  0
  -21.1099  -13.1218   22.2611 H   0  0  0  0  0  0
  -24.6528  -15.8425   20.5179 H   0  0  0  0  0  0
  -26.2623  -15.6284   20.0532 H   0  0  0  0  0  0
  -26.7191  -32.5402   23.1053 H   0  0  0  0  0  0
  -25.0057  -33.9681   25.0375 H   0  0  0  0  0  0
  -22.7235  -31.2958   21.3919 H   0  0  0  0  0  0
  -23.3760  -35.9603   23.3300 H   0  0  0  0  0  0
  -24.3588  -36.8905   22.2055 H   0  0  0  0  0  0
  -23.7229  -37.6475   23.6665 H   0  0  0  0  0  0
  -26.1078  -31.5326   20.6048 H   0  0  0  0  0  0
  -26.8461  -30.8196   22.0062 H   0  0  0  0  0  0
  -28.1159  -28.9419   21.1971 H   0  0  0  0  0  0
  -25.9633  -25.8812   19.0341 H   0  0  0  0  0  0
  -23.9783  -27.2802   19.0203 H   0  0  0  0  0  0
  -23.7599  -30.5729   19.3970 H   0  0  0  0  0  0
  -22.7610  -29.2295   19.8582 H   0  0  0  0  0  0
  -25.1296  -36.1926   25.0824 H   0  0  0  0  0  0
  -20.9981  -28.3268   24.1392 H   0  0  0  0  0  0
  -20.5673  -26.2294   23.3619 H   0  0  0  0  0  0
  -21.6648  -26.7435   22.1203 H   0  0  0  0  0  0
  -19.6926  -25.6288   21.1239 H   0  0  0  0  0  0
  -19.6690  -27.3184   20.6737 H   0  0  0  0  0  0
  -17.4202  -26.6658   21.4024 H   0  0  0  0  0  0
  -18.0343  -26.0058   22.9014 H   0  0  0  0  0  0
  -19.7940  -30.7264   24.2262 H   0  0  0  0  0  0
  -17.5016  -31.6259   24.5161 H   0  0  0  0  0  0
  -15.5354  -30.2982   23.7643 H   0  0  0  0  0  0
  -15.8676  -28.0809   22.7077 H   0  0  0  0  0  0
  -24.5863  -30.7111   25.7727 H   0  0  0  0  0  0
  -24.8906  -32.2914   26.4830 H   0  0  0  0  0  0
  -25.7996  -30.8908   27.0192 H   0  0  0  0  0  0
  -26.2881  -29.6752   24.1179 H   0  0  0  0  0  0
  -27.3961  -29.7221   25.4690 H   0  0  0  0  0  0
  -27.8787  -30.4236   23.9422 H   0  0  0  0  0  0
  -27.2628  -33.3623   26.2035 H   0  0  0  0  0  0
  -28.3868  -32.6857   25.0329 H   0  0  0  0  0  0
  -28.0667  -31.8456   26.5427 H   0  0  0  0  0  0
  -28.2602  -38.0089   24.7516 H   0  0  0  0  0  0
  -28.1083  -36.2620   24.6279 H   0  0  0  0  0  0
  -27.2304  -37.1430   25.8866 H   0  0  0  0  0  0
  -20.9401  -29.8750   21.6860 H   0  0  0  0  0  0
  -26.0178  -38.2848   24.1414 H   0  0  0  0  0  0
  -31.0784  -23.7387   19.6718 H   0  0  0  0  0  0
  -28.1169  -20.7962   20.6379 H   0  0  0  0  0  0
  -35.0567  -22.1336   19.3115 H   0  0  0  0  0  0
  -34.1859  -20.6507   19.6806 H   0  0  0  0  0  0
  -33.9362  -22.0836   20.6677 H   0  0  0  0  0  0
  -31.0848  -20.1510   16.3618 H   0  0  0  0  0  0
  -30.3169  -18.6813   16.9365 H   0  0  0  0  0  0
  -31.8912  -18.6044   16.1642 H   0  0  0  0  0  0
  -32.9472  -18.2135   19.7608 H   0  0  0  0  0  0
  -33.2949  -17.6750   18.1347 H   0  0  0  0  0  0
  -31.7459  -17.2957   18.8026 H   0  0  0  0  0  0
  -28.9267  -24.0043   21.5295 H   0  0  0  0  0  0
  -27.5266  -23.3747   20.7315 H   0  0  0  0  0  0
  -32.9776  -23.2890   18.7033 H   0  0  0  0  0  0
  -33.1520  -21.9252   17.6829 H   0  0  0  0  0  0
  -29.5369  -18.0163   18.8351 H   0  0  0  0  0  0
  -28.4013  -18.4321   20.0414 H   0  0  0  0  0  0
  -29.8034  -17.5881   21.8492 H   0  0  0  0  0  0
  -31.2077  -17.4315   20.9009 H   0  0  0  0  0  0
  -27.8096  -24.8984   18.8052 H   0  0  0  0  0  0
  -29.4567  -25.1235   19.1376 H   0  0  0  0  0  0
  -32.9096  -19.8712   17.9260 H   0  0  0  0  0  0
  -28.8243  -15.6119   20.8013 H   0  0  0  0  0  0
  1 25  1  0  0  0
  1 30  2  0  0  0
  1 86  1  0  0  0
  2  3  1  0  0  0
  2 25  1  0  0  0
  2 87  1  0  0  0
  2 88  1  0  0  0
  3  4  1  0  0  0
  3 89  1  0  0  0
  3 90  1  0  0  0
  4  5  1  0  0  0
  4 91  1  0  0  0
  4 92  1  0  0  0
  5  6  1  0  0  0
  5 26  1  0  0  0
  5 93  1  0  0  0
  6 25  1  0  0  0
  6 94  1  0  0  0
  6 95  1  0  0  0
  7  8  2  0  0  0
  7 26  1  0  0  0
  7 29  1  0  0  0
  8  9  1  0  0  0
  8 22  1  0  0  0
  9 10  1  0  0  0
  9 27  2  0  0  0
 10 11  2  0  0  0
 10 15  1  0  0  0
 11 12  1  0  0  0
 11 96  1  0  0  0
 12 13  2  0  0  0
 12 97  1  0  0  0
 13 14  1  0  0  0
 13 31  1  0  0  0
 14 15  2  0  0  0
 14 98  1  0  0  0
 15 99  1  0  0  0
 16 17  2  0  0  0
 16 21  1  0  0  0
 16 31  1  0  0  0
 17 18  1  0  0  0
 17100  1  0  0  0
 18 19  2  0  0  0
 18101  1  0  0  0
 19 20  1  0  0  0
 19 24  1  0  0  0
 20 21  2  0  0  0
 20102  1  0  0  0
 21 23  1  0  0  0
 22 28  1  0  0  0
 22 32  2  0  0  0
 26 27  1  0  0  0
 28103  1  0  0  0
 28104  1  0  0  0
 29105  1  0  0  0
 29106  1  0  0  0
 33 34  1  0  0  0
 33 66  1  0  0  0
 33 70  2  0  0  0
 34 36  1  0  0  0
 34 59  1  0  0  0
 34107  1  0  0  0
 35 44  2  0  0  0
 35 45  1  0  0  0
 35 68  1  0  0  0
 36 56  1  0  0  0
 36108  1  0  0  0
 37 39  1  0  0  0
 37 47  1  0  0  0
 37 66  1  0  0  0
 37109  1  0  0  0
 38 43  2  0  0  0
 38 46  1  0  0  0
 38 47  1  0  0  0
 39 64  1  0  0  0
 39 67  2  0  0  0
 40 52  1  0  0  0
 40 53  2  0  0  0
 40 58  1  0  0  0
 41110  1  0  0  0
 41111  1  0  0  0
 41112  1  0  0  0
 41 48  1  0  0  0
 42 43  1  0  0  0
 42 66  1  0  0  0
 42113  1  0  0  0
 42114  1  0  0  0
 43 44  1  0  0  0
 44115  1  0  0  0
 45 46  2  0  0  0
 45116  1  0  0  0
 46117  1  0  0  0
 47118  1  0  0  0
 47119  1  0  0  0
 48 56  1  0  0  0
 48 65  1  0  0  0
 48120  1  0  0  0
 49 50  1  0  0  0
 49 53  1  0  0  0
 49 64  1  0  0  0
 49121  1  0  0  0
 50 51  1  0  0  0
 50122  1  0  0  0
 50123  1  0  0  0
 51 52  1  0  0  0
 51124  1  0  0  0
 51125  1  0  0  0
 52126  1  0  0  0
 52127  1  0  0  0
 53 54  1  0  0  0
 54 55  2  0  0  0
 54128  1  0  0  0
 55 57  1  0  0  0
 55129  1  0  0  0
 56 69  2  0  0  0
 57 58  2  0  0  0
 57130  1  0  0  0
 58131  1  0  0  0
 59 60  1  0  0  0
 59 61  1  0  0  0
 59 62  1  0  0  0
 60132  1  0  0  0
 60133  1  0  0  0
 60134  1  0  0  0
 61135  1  0  0  0
 61136  1  0  0  0
 61137  1  0  0  0
 62138  1  0  0  0
 62139  1  0  0  0
 62140  1  0  0  0
 63 65  1  0  0  0
 63141  1  0  0  0
 63142  1  0  0  0
 63143  1  0  0  0
 64144  1  0  0  0
 65145  1  0  0  0
 68 84  1  0  0  0
 71 73  2  0  0  0
 71 74  1  0  0  0
 71146  1  0  0  0
 72 73  1  0  0  0
 72 75  2  0  0  0
 72147  1  0  0  0
 73 80  1  0  0  0
 74 76  2  0  0  0
 74 81  1  0  0  0
 75 76  1  0  0  0
 75 82  1  0  0  0
 76 85  1  0  0  0
 77 81  1  0  0  0
 77148  1  0  0  0
 77149  1  0  0  0
 77150  1  0  0  0
 78151  1  0  0  0
 78152  1  0  0  0
 78153  1  0  0  0
 78 85  1  0  0  0
 79 85  1  0  0  0
 79154  1  0  0  0
 79155  1  0  0  0
 79156  1  0  0  0
 80 84  1  0  0  0
 80157  1  0  0  0
 80158  1  0  0  0
 81159  1  0  0  0
 81160  1  0  0  0
 82 83  1  0  0  0
 82161  1  0  0  0
 82162  1  0  0  0
 83 86  1  0  0  0
 83163  1  0  0  0
 83164  1  0  0  0
 84165  1  0  0  0
 84166  1  0  0  0
 85167  1  0  0  0
 86168  1  0  0  0
M  ISO  4   1 100  68 101  84 101  86 100
M  END
> <chiral flag>
0

> <version>
0

> <s_m_source_file>
/data/baiqing/PycharmProjects/Reinvent-master-3.2/result/LINK_invent/BTK/process_docking_weight1_custom_sum_contain_oxygen_bond_distance_aromatic_linkinvent_7_9_3/rearranged_h_0097.sdf

> <i_m_source_file_index>
31

> <r_mmod_Potential_Energy-OPLS-2005>
179.013900756836

> <r_mmod_Stretch_Energy-OPLS-2005>
131.191421508789

> <r_mmod_Bend_Energy-OPLS-2005>
196.729629516602

> <r_mmod_Torsional_Energy-OPLS-2005>
224.303894042969

> <r_mmod_Improper_Torsional_Energy-OPLS-2005>
6.00793504714966

> <r_mmod_Van_der_Waal_Energy-OPLS-2005>
146.106811523438

> <r_mmod_Electrostatic_Energy-OPLS-2005>
-399.36328125

> <r_mmod_Solvation_Energy-OPLS-2005>
-203.094619750977

> <b_mmod_Minimization_Converged-OPLS-2005>
0

> <r_mmod_RMS_Derivative-OPLS-2005>
1.43975961208344

$$$$
31
                    3D
 Structure written by MMmdl.
179187  0  0  1  0            999 V2000
  -30.5118  -14.9711   20.3976 C   0  0  0  0  0  0
  -30.4447  -12.5926   19.5143 C   0  0  0  0  0  0
  -29.5312  -12.5469   18.2659 C   0  0  0  0  0  0
  -28.0588  -12.3401   18.6682 C   0  0  0  0  0  0
  -27.6360  -13.2542   19.8479 C   0  0  2  0  0  0
  -28.6776  -13.2656   20.9894 C   0  0  0  0  0  0
  -25.2489  -13.8224   20.5716 C   0  0  0  0  0  0
  -24.1799  -13.0443   20.9217 C   0  0  0  0  0  0
  -24.6407  -11.6932   20.8737 C   0  0  0  0  0  0
  -23.9074  -10.4303   21.0394 C   0  0  0  0  0  0
  -24.3619   -9.4218   21.9176 C   0  0  0  0  0  0
  -23.6308   -8.2249   22.0736 C   0  0  0  0  0  0
  -22.4293   -8.0277   21.3523 C   0  0  0  0  0  0
  -21.9927   -9.0254   20.4630 C   0  0  0  0  0  0
  -22.7239  -10.2142   20.3047 C   0  0  0  0  0  0
  -21.6862   -6.0739   22.5276 C   0  0  0  0  0  0
  -21.4019   -6.5640   23.8210 C   0  0  0  0  0  0
  -21.3663   -5.6786   24.9171 C   0  0  0  0  0  0
  -21.6048   -4.3054   24.7216 C   0  0  0  0  0  0
  -21.8816   -3.8139   23.4339 C   0  0  0  0  0  0
  -21.9193   -4.6965   22.3394 C   0  0  0  0  0  0
  -22.7820  -13.5219   21.1863 C   0  0  0  0  0  0
  -22.1657   -4.2147   21.0975 F   0  0  0  0  0  0
  -21.5631   -3.4529   25.7729 F   0  0  0  0  0  0
  -29.9568  -13.6884   20.4035 N   0  0  0  0  0  0
  -26.2922  -12.9464   20.3276 N   0  0  0  0  0  0
  -25.9355  -11.6581   20.5737 N   0  0  0  0  0  0
  -22.0442  -12.8241   22.0422 N   0  0  0  0  0  0
  -25.4177  -15.1958   20.4145 N   0  0  0  0  0  0
  -31.6939  -15.0666   20.0496 O   0  0  0  0  0  0
  -21.6642   -6.8892   21.4237 O   0  0  0  0  0  0
  -22.3514  -14.5509   20.6671 O   0  0  0  0  0  0
  -24.6457  -31.8393   23.1839 C   0  0  0  0  0  0
  -25.9214  -32.4659   23.8245 C   0  0  1  0  0  0
  -27.2206  -27.1038   20.1516 C   0  0  0  0  0  0
  -25.5945  -33.8473   24.2147 N   0  0  0  0  0  0
  -23.4516  -30.4560   21.5309 C   0  0  2  0  0  0
  -24.9017  -28.8761   20.1074 C   0  0  0  0  0  0
  -22.7578  -29.4513   22.4847 C   0  0  0  0  0  0
  -18.0302  -28.1389   22.8468 C   0  0  0  0  0  0
  -24.1499  -36.7247   23.2646 C   0  0  0  0  0  0
  -26.0096  -30.6992   21.3920 C   0  0  0  0  0  0
  -26.0795  -29.3092   20.7296 C   0  0  0  0  0  0
  -27.2381  -28.4401   20.7325 C   0  0  0  0  0  0
  -26.0165  -26.7774   19.4881 C   0  0  0  0  0  0
  -24.8857  -27.6253   19.4697 C   0  0  0  0  0  0
  -23.6791  -29.7815   20.1511 C   0  0  0  0  0  0
  -25.4133  -36.3010   24.0304 C   0  0  1  0  0  0
  -20.5915  -28.3718   23.1226 C   0  0  2  0  0  0
  -20.6788  -26.9417   22.5404 C   0  0  0  0  0  0
  -19.5767  -26.6366   21.5211 C   0  0  0  0  0  0
  -18.1947  -26.7929   22.1616 C   0  0  0  0  0  0
  -19.1559  -28.8872   23.2836 C   0  0  0  0  0  0
  -18.9475  -30.1471   23.8855 C   0  0  0  0  0  0
  -17.6473  -30.6591   24.0547 C   0  0  0  0  0  0
  -25.9085  -34.9385   23.5041 C   0  0  0  0  0  0
  -16.5362  -29.9076   23.6340 C   0  0  0  0  0  0
  -16.7288  -28.6494   23.0360 C   0  0  0  0  0  0
  -26.4514  -31.6555   25.0721 C   0  0  0  0  0  0
  -25.3681  -31.3778   26.1411 C   0  0  0  0  0  0
  -27.0391  -30.2931   24.6379 C   0  0  0  0  0  0
  -27.6029  -32.4341   25.7512 C   0  0  0  0  0  0
  -27.5578  -37.1782   24.8456 C   0  0  0  0  0  0
  -21.4263  -29.3033   22.3592 N   0  0  0  0  0  0
  -26.4288  -37.3727   23.9396 N   0  0  0  0  0  0
  -24.7213  -31.0214   22.0895 N   0  0  0  0  0  0
  -23.4201  -28.8076   23.3027 O   0  0  0  0  0  0
  -28.2703  -26.1057   20.2346 O   0  0  0  0  0  0
  -26.5684  -34.8890   22.4630 O   0  0  0  0  0  0
  -23.5570  -32.1293   23.7035 O   0  0  0  0  0  0
  -30.8133  -21.1288   21.7808 C   0  0  0  0  0  0
  -31.7551  -20.4881   22.6011 C   0  0  0  0  0  0
  -29.9079  -20.4498   20.9258 C   0  0  0  0  0  0
  -31.7785  -19.0878   22.5912 C   0  0  0  0  0  0
  -30.0961  -18.9308   20.9398 C   0  0  0  0  0  0
  -32.7473  -18.2669   23.4218 C   0  0  0  0  0  0
  -34.6996  -26.7576   23.1150 C   0  0  0  0  0  0
  -33.8378  -25.3611   21.1661 C   0  0  0  0  0  0
  -32.7496  -21.3111   23.4208 C   0  0  0  0  0  0
  -28.9268  -21.5719   20.1852 C   0  0  0  0  0  0
  -29.6259  -17.6319   20.0740 C   0  0  0  0  0  0
  -32.1351  -22.0961   24.6035 C   0  0  0  0  0  0
  -29.0334  -23.2689   20.4883 C   0  0  0  0  0  0
  -31.6784  -23.5376   24.2894 C   0  0  0  0  0  0
  -32.3667  -25.6834   23.2337 C   0  0  0  0  0  0
  -28.0480  -24.5675   19.9923 C   0  0  0  0  0  0
  -33.4597  -26.2945   22.3311 C   0  0  0  0  0  0
  -30.9783  -18.3733   21.7956 N   0  0  0  0  0  0
  -29.6841  -16.1141   20.5743 N   0  0  0  0  0  0
  -32.7891  -24.3906   23.8113 N   0  3  0  0  0  0
  -31.4801  -12.7486   19.2085 H   0  0  0  0  0  0
  -30.4329  -11.6350   20.0386 H   0  0  0  0  0  0
  -29.8547  -11.7538   17.5920 H   0  0  0  0  0  0
  -29.6298  -13.4799   17.7097 H   0  0  0  0  0  0
  -27.9370  -11.2938   18.9482 H   0  0  0  0  0  0
  -27.4054  -12.5047   17.8096 H   0  0  0  0  0  0
  -27.6028  -14.2631   19.4360 H   0  0  0  0  0  0
  -28.7650  -12.2811   21.4509 H   0  0  0  0  0  0
  -28.3752  -13.9515   21.7818 H   0  0  0  0  0  0
  -25.2755   -9.5711   22.4762 H   0  0  0  0  0  0
  -24.0006   -7.4657   22.7478 H   0  0  0  0  0  0
  -21.0840   -8.8778   19.8972 H   0  0  0  0  0  0
  -22.3674  -10.9682   19.6168 H   0  0  0  0  0  0
  -21.2010   -7.6145   23.9722 H   0  0  0  0  0  0
  -21.1495   -6.0507   25.9080 H   0  0  0  0  0  0
  -22.0597   -2.7603   23.2824 H   0  0  0  0  0  0
  -22.4006  -11.9913   22.4868 H   0  0  0  0  0  0
  -21.1058  -13.1309   22.2571 H   0  0  0  0  0  0
  -24.6509  -15.8502   20.5270 H   0  0  0  0  0  0
  -26.2601  -15.6323   20.0631 H   0  0  0  0  0  0
  -26.7281  -32.5238   23.0971 H   0  0  0  0  0  0
  -25.0026  -33.9576   25.0248 H   0  0  0  0  0  0
  -22.7562  -31.2832   21.3738 H   0  0  0  0  0  0
  -23.3755  -35.9584   23.3294 H   0  0  0  0  0  0
  -24.3578  -36.8901   22.2062 H   0  0  0  0  0  0
  -23.7264  -37.6440   23.6702 H   0  0  0  0  0  0
  -26.1795  -31.4559   20.6254 H   0  0  0  0  0  0
  -26.8727  -30.7400   22.0444 H   0  0  0  0  0  0
  -28.1336  -28.7648   21.2428 H   0  0  0  0  0  0
  -25.9186  -25.8206   18.9987 H   0  0  0  0  0  0
  -23.9894  -27.2902   18.9667 H   0  0  0  0  0  0
  -23.8137  -30.5547   19.3932 H   0  0  0  0  0  0
  -22.7927  -29.2242   19.8426 H   0  0  0  0  0  0
  -25.1331  -36.1829   25.0796 H   0  0  0  0  0  0
  -21.0000  -28.3310   24.1352 H   0  0  0  0  0  0
  -20.5677  -26.2331   23.3624 H   0  0  0  0  0  0
  -21.6653  -26.7422   22.1207 H   0  0  0  0  0  0
  -19.6933  -25.6269   21.1265 H   0  0  0  0  0  0
  -19.6712  -27.3149   20.6720 H   0  0  0  0  0  0
  -17.4219  -26.6656   21.4020 H   0  0  0  0  0  0
  -18.0351  -26.0076   22.9018 H   0  0  0  0  0  0
  -19.7955  -30.7292   24.2201 H   0  0  0  0  0  0
  -17.5033  -31.6272   24.5147 H   0  0  0  0  0  0
  -15.5362  -30.2963   23.7700 H   0  0  0  0  0  0
  -15.8686  -28.0804   22.7102 H   0  0  0  0  0  0
  -24.5812  -30.7195   25.7709 H   0  0  0  0  0  0
  -24.8937  -32.2983   26.4823 H   0  0  0  0  0  0
  -25.7932  -30.8918   27.0202 H   0  0  0  0  0  0
  -26.3030  -29.6637   24.1363 H   0  0  0  0  0  0
  -27.3918  -29.7265   25.5008 H   0  0  0  0  0  0
  -27.8977  -30.4122   23.9767 H   0  0  0  0  0  0
  -27.2587  -33.3631   26.2069 H   0  0  0  0  0  0
  -28.3848  -32.6927   25.0360 H   0  0  0  0  0  0
  -28.0696  -31.8499   26.5452 H   0  0  0  0  0  0
  -28.2576  -38.0097   24.7500 H   0  0  0  0  0  0
  -28.1090  -36.2620   24.6284 H   0  0  0  0  0  0
  -27.2291  -37.1428   25.8858 H   0  0  0  0  0  0
  -20.9483  -29.8723   21.6746 H   0  0  0  0  0  0
  -26.0149  -38.2795   24.1385 H   0  0  0  0  0  0
  -30.8307  -22.2015   21.8117 H   0  0  0  0  0  0
  -33.7640  -18.3984   23.0504 H   0  0  0  0  0  0
  -32.5108  -17.2018   23.3790 H   0  0  0  0  0  0
  -32.7148  -18.5698   24.4682 H   0  0  0  0  0  0
  -35.4332  -27.2142   22.4489 H   0  0  0  0  0  0
  -35.1968  -25.9335   23.6274 H   0  0  0  0  0  0
  -34.4353  -27.5058   23.8636 H   0  0  0  0  0  0
  -34.5166  -25.8596   20.4729 H   0  0  0  0  0  0
  -32.9567  -25.0629   20.5958 H   0  0  0  0  0  0
  -34.3376  -24.4539   21.5078 H   0  0  0  0  0  0
  -33.2910  -21.9716   22.7435 H   0  0  0  0  0  0
  -33.5266  -20.6622   23.8221 H   0  0  0  0  0  0
  -27.9037  -21.2644   20.4050 H   0  0  0  0  0  0
  -29.0374  -21.4229   19.1101 H   0  0  0  0  0  0
  -30.2109  -17.6655   19.1530 H   0  0  0  0  0  0
  -28.6002  -17.8243   19.7600 H   0  0  0  0  0  0
  -32.8815  -22.1542   25.3964 H   0  0  0  0  0  0
  -31.3100  -21.5288   25.0358 H   0  0  0  0  0  0
  -30.0373  -23.5547   20.1757 H   0  0  0  0  0  0
  -29.0297  -23.3679   21.5732 H   0  0  0  0  0  0
  -31.2570  -23.9919   25.1874 H   0  0  0  0  0  0
  -30.8727  -23.5220   23.5571 H   0  0  0  0  0  0
  -31.4662  -25.5395   22.6342 H   0  0  0  0  0  0
  -32.0913  -26.3716   24.0340 H   0  0  0  0  0  0
  -27.0578  -24.3416   20.3907 H   0  0  0  0  0  0
  -27.9398  -24.4623   18.9127 H   0  0  0  0  0  0
  -33.0227  -27.1902   21.8856 H   0  0  0  0  0  0
  -28.7985  -15.8460   20.9752 H   0  0  0  0  0  0
  -33.2847  -23.9003   23.0859 H   0  0  0  0  0  0
  -33.4350  -24.5605   24.5669 H   0  0  0  0  0  0
  1 25  1  0  0  0
  1 30  2  0  0  0
  1 89  1  0  0  0
  2  3  1  0  0  0
  2 25  1  0  0  0
  2 91  1  0  0  0
  2 92  1  0  0  0
  3  4  1  0  0  0
  3 93  1  0  0  0
  3 94  1  0  0  0
  4  5  1  0  0  0
  4 95  1  0  0  0
  4 96  1  0  0  0
  5  6  1  0  0  0
  5 26  1  0  0  0
  5 97  1  0  0  0
  6 25  1  0  0  0
  6 98  1  0  0  0
  6 99  1  0  0  0
  7  8  2  0  0  0
  7 26  1  0  0  0
  7 29  1  0  0  0
  8  9  1  0  0  0
  8 22  1  0  0  0
  9 10  1  0  0  0
  9 27  2  0  0  0
 10 11  2  0  0  0
 10 15  1  0  0  0
 11 12  1  0  0  0
 11100  1  0  0  0
 12 13  2  0  0  0
 12101  1  0  0  0
 13 14  1  0  0  0
 13 31  1  0  0  0
 14 15  2  0  0  0
 14102  1  0  0  0
 15103  1  0  0  0
 16 17  2  0  0  0
 16 21  1  0  0  0
 16 31  1  0  0  0
 17 18  1  0  0  0
 17104  1  0  0  0
 18 19  2  0  0  0
 18105  1  0  0  0
 19 20  1  0  0  0
 19 24  1  0  0  0
 20 21  2  0  0  0
 20106  1  0  0  0
 21 23  1  0  0  0
 22 28  1  0  0  0
 22 32  2  0  0  0
 26 27  1  0  0  0
 28107  1  0  0  0
 28108  1  0  0  0
 29109  1  0  0  0
 29110  1  0  0  0
 33 34  1  0  0  0
 33 66  1  0  0  0
 33 70  2  0  0  0
 34 36  1  0  0  0
 34 59  1  0  0  0
 34111  1  0  0  0
 35 44  2  0  0  0
 35 45  1  0  0  0
 35 68  1  0  0  0
 36 56  1  0  0  0
 36112  1  0  0  0
 37 39  1  0  0  0
 37 47  1  0  0  0
 37 66  1  0  0  0
 37113  1  0  0  0
 38 43  2  0  0  0
 38 46  1  0  0  0
 38 47  1  0  0  0
 39 64  1  0  0  0
 39 67  2  0  0  0
 40 52  1  0  0  0
 40 53  2  0  0  0
 40 58  1  0  0  0
 41114  1  0  0  0
 41115  1  0  0  0
 41116  1  0  0  0
 41 48  1  0  0  0
 42 43  1  0  0  0
 42 66  1  0  0  0
 42117  1  0  0  0
 42118  1  0  0  0
 43 44  1  0  0  0
 44119  1  0  0  0
 45 46  2  0  0  0
 45120  1  0  0  0
 46121  1  0  0  0
 47122  1  0  0  0
 47123  1  0  0  0
 48 56  1  0  0  0
 48 65  1  0  0  0
 48124  1  0  0  0
 49 50  1  0  0  0
 49 53  1  0  0  0
 49 64  1  0  0  0
 49125  1  0  0  0
 50 51  1  0  0  0
 50126  1  0  0  0
 50127  1  0  0  0
 51 52  1  0  0  0
 51128  1  0  0  0
 51129  1  0  0  0
 52130  1  0  0  0
 52131  1  0  0  0
 53 54  1  0  0  0
 54 55  2  0  0  0
 54132  1  0  0  0
 55 57  1  0  0  0
 55133  1  0  0  0
 56 69  2  0  0  0
 57 58  2  0  0  0
 57134  1  0  0  0
 58135  1  0  0  0
 59 60  1  0  0  0
 59 61  1  0  0  0
 59 62  1  0  0  0
 60136  1  0  0  0
 60137  1  0  0  0
 60138  1  0  0  0
 61139  1  0  0  0
 61140  1  0  0  0
 61141  1  0  0  0
 62142  1  0  0  0
 62143  1  0  0  0
 62144  1  0  0  0
 63 65  1  0  0  0
 63145  1  0  0  0
 63146  1  0  0  0
 63147  1  0  0  0
 64148  1  0  0  0
 65149  1  0  0  0
 68 86  1  0  0  0
 71 72  2  0  0  0
 71 73  1  0  0  0
 71150  1  0  0  0
 72 74  1  0  0  0
 72 79  1  0  0  0
 73 75  2  0  0  0
 73 80  1  0  0  0
 74 76  1  0  0  0
 74 88  2  0  0  0
 75 81  1  0  0  0
 75 88  1  0  0  0
 76151  1  0  0  0
 76152  1  0  0  0
 76153  1  0  0  0
 77154  1  0  0  0
 77155  1  0  0  0
 77156  1  0  0  0
 77 87  1  0  0  0
 78 87  1  0  0  0
 78157  1  0  0  0
 78158  1  0  0  0
 78159  1  0  0  0
 79 82  1  0  0  0
 79160  1  0  0  0
 79161  1  0  0  0
 80 83  1  0  0  0
 80162  1  0  0  0
 80163  1  0  0  0
 81 89  1  0  0  0
 81164  1  0  0  0
 81165  1  0  0  0
 82 84  1  0  0  0
 82166  1  0  0  0
 82167  1  0  0  0
 83 86  1  0  0  0
 83168  1  0  0  0
 83169  1  0  0  0
 84 90  1  0  0  0
 84170  1  0  0  0
 84171  1  0  0  0
 85 87  1  0  0  0
 85 90  1  0  0  0
 85172  1  0  0  0
 85173  1  0  0  0
 86174  1  0  0  0
 86175  1  0  0  0
 87176  1  0  0  0
 89177  1  0  0  0
 90178  1  0  0  0
 90179  1  0  0  0
M  CHG  1  90   1
M  ISO  4   1 100  68 101  86 101  89 100
M  END
> <chiral flag>
0

> <version>
0

> <s_m_source_file>
/data/baiqing/PycharmProjects/Reinvent-master-3.2/result/LINK_invent/BTK/process_docking_weight1_custom_sum_contain_oxygen_bond_distance_aromatic_linkinvent_7_9_3/rearranged_h_0097.sdf

> <i_m_source_file_index>
32

> <r_mmod_Potential_Energy-OPLS-2005>
262.963623046875

> <r_mmod_Stretch_Energy-OPLS-2005>
315.911529541016

> <r_mmod_Bend_Energy-OPLS-2005>
351.9990234375

> <r_mmod_Torsional_Energy-OPLS-2005>
244.2451171875

> <r_mmod_Improper_Torsional_Energy-OPLS-2005>
5.83649873733521

> <r_mmod_Van_der_Waal_Energy-OPLS-2005>
132.293014526367

> <r_mmod_Electrostatic_Energy-OPLS-2005>
-519.205139160156

> <r_mmod_Solvation_Energy-OPLS-2005>
-483.141418457031

> <b_mmod_Minimization_Converged-OPLS-2005>
0

> <r_mmod_RMS_Derivative-OPLS-2005>
2.2019259929657

$$$$
32
                    3D
 Structure written by MMmdl.
175183  0  0  1  0            999 V2000
  -30.6403  -14.7242   20.4677 C   0  0  0  0  0  0
  -30.4244  -12.4448   19.4775 C   0  0  0  0  0  0
  -29.5077  -12.5030   18.2371 C   0  0  0  0  0  0
  -28.0332  -12.3336   18.6489 C   0  0  0  0  0  0
  -27.6393  -13.2349   19.8507 C   0  0  2  0  0  0
  -28.6832  -13.1754   20.9874 C   0  0  0  0  0  0
  -25.2461  -13.8167   20.5661 C   0  0  0  0  0  0
  -24.1784  -13.0420   20.9248 C   0  0  0  0  0  0
  -24.6391  -11.6908   20.8781 C   0  0  0  0  0  0
  -23.9065  -10.4289   21.0426 C   0  0  0  0  0  0
  -24.3620   -9.4202   21.9194 C   0  0  0  0  0  0
  -23.6295   -8.2237   22.0752 C   0  0  0  0  0  0
  -22.4279   -8.0276   21.3540 C   0  0  0  0  0  0
  -21.9917   -9.0249   20.4646 C   0  0  0  0  0  0
  -22.7243  -10.2130   20.3064 C   0  0  0  0  0  0
  -21.6852   -6.0733   22.5277 C   0  0  0  0  0  0
  -21.4012   -6.5634   23.8210 C   0  0  0  0  0  0
  -21.3662   -5.6785   24.9171 C   0  0  0  0  0  0
  -21.6047   -4.3046   24.7220 C   0  0  0  0  0  0
  -21.8817   -3.8142   23.4337 C   0  0  0  0  0  0
  -21.9192   -4.6963   22.3397 C   0  0  0  0  0  0
  -22.7806  -13.5205   21.1886 C   0  0  0  0  0  0
  -22.1661   -4.2148   21.0973 F   0  0  0  0  0  0
  -21.5633   -3.4530   25.7730 F   0  0  0  0  0  0
  -29.9864  -13.5143   20.4046 N   0  0  0  0  0  0
  -26.2917  -12.9407   20.3278 N   0  0  0  0  0  0
  -25.9324  -11.6549   20.5778 N   0  0  0  0  0  0
  -22.0443  -12.8208   22.0444 N   0  0  0  0  0  0
  -25.4053  -15.1860   20.3912 N   0  0  0  0  0  0
  -31.8284  -14.7909   20.1430 O   0  0  0  0  0  0
  -21.6639   -6.8877   21.4238 O   0  0  0  0  0  0
  -22.3496  -14.5503   20.6714 O   0  0  0  0  0  0
  -24.6273  -31.8562   23.1972 C   0  0  0  0  0  0
  -25.9108  -32.4752   23.8316 C   0  0  1  0  0  0
  -27.2311  -27.2928   20.1382 C   0  0  0  0  0  0
  -25.5903  -33.8552   24.2247 N   0  0  0  0  0  0
  -23.4244  -30.4751   21.5403 C   0  0  2  0  0  0
  -24.8744  -28.9161   20.1185 C   0  0  0  0  0  0
  -22.7488  -29.4600   22.4930 C   0  0  0  0  0  0
  -18.0291  -28.1392   22.8489 C   0  0  0  0  0  0
  -24.1495  -36.7306   23.2647 C   0  0  0  0  0  0
  -25.9650  -30.7785   21.3717 C   0  0  0  0  0  0
  -26.0417  -29.3992   20.7243 C   0  0  0  0  0  0
  -27.2263  -28.6002   20.7205 C   0  0  0  0  0  0
  -26.0454  -26.8602   19.5125 C   0  0  0  0  0  0
  -24.8782  -27.6514   19.5043 C   0  0  0  0  0  0
  -23.6425  -29.8006   20.1596 C   0  0  0  0  0  0
  -25.4121  -36.3071   24.0325 C   0  0  1  0  0  0
  -20.5892  -28.3689   23.1287 C   0  0  2  0  0  0
  -20.6779  -26.9406   22.5422 C   0  0  0  0  0  0
  -19.5754  -26.6379   21.5223 C   0  0  0  0  0  0
  -18.1934  -26.7933   22.1631 C   0  0  0  0  0  0
  -19.1544  -28.8861   23.2876 C   0  0  0  0  0  0
  -18.9465  -30.1466   23.8887 C   0  0  0  0  0  0
  -17.6464  -30.6588   24.0572 C   0  0  0  0  0  0
  -25.9058  -34.9439   23.5101 C   0  0  0  0  0  0
  -16.5355  -29.9090   23.6337 C   0  0  0  0  0  0
  -16.7276  -28.6514   23.0344 C   0  0  0  0  0  0
  -26.4479  -31.6561   25.0695 C   0  0  0  0  0  0
  -25.3704  -31.3706   26.1412 C   0  0  0  0  0  0
  -27.0324  -30.2968   24.6177 C   0  0  0  0  0  0
  -27.6034  -32.4301   25.7468 C   0  0  0  0  0  0
  -27.5585  -37.1807   24.8459 C   0  0  0  0  0  0
  -21.4197  -29.3029   22.3668 N   0  0  0  0  0  0
  -26.4299  -37.3765   23.9398 N   0  0  0  0  0  0
  -24.6910  -31.0554   22.0932 N   0  0  0  0  0  0
  -23.4194  -28.8162   23.3038 O   0  0  0  0  0  0
  -28.3557  -26.4472   20.0926 O   0  0  0  0  0  0
  -26.5645  -34.8916   22.4676 O   0  0  0  0  0  0
  -23.5427  -32.1371   23.7285 O   0  0  0  0  0  0
  -30.1782  -19.9697   20.5657 C   0  0  0  0  0  0
  -29.1480  -20.9768   20.7408 C   0  0  0  0  0  0
  -29.6887  -18.6655   20.5998 C   0  0  0  0  0  0
  -28.0006  -20.2236   20.8184 C   0  0  0  0  0  0
  -23.7386  -21.2285   22.2245 C   0  0  0  0  0  0
  -24.9013  -22.1249   24.2797 C   0  0  0  0  0  0
  -27.3635  -25.1166   21.9742 C   0  0  0  0  0  0
  -29.8103  -25.5103   21.6420 C   0  0  0  0  0  0
  -27.3706  -17.7485   20.8921 C   0  0  0  0  0  0
  -29.3129  -22.5398   21.0098 C   0  0  0  0  0  0
  -26.6066  -20.7397   21.0359 C   0  0  0  0  0  0
  -30.4861  -17.2970   20.4816 C   0  0  0  0  0  0
  -28.6256  -23.7550   20.1845 C   0  0  0  0  0  0
  -26.2551  -20.9030   22.5242 C   0  0  0  0  0  0
  -25.0424  -21.8193   22.7821 C   0  0  0  0  0  0
  -28.4881  -25.2020   20.9168 C   0  0  0  0  0  0
  -28.3153  -18.8446   20.7665 N   0  0  0  0  0  0
  -29.9223  -15.8913   20.6730 N   0  0  0  0  0  0
  -31.4680  -12.5541   19.1765 H   0  0  0  0  0  0
  -30.3560  -11.4705   19.9631 H   0  0  0  0  0  0
  -29.7868  -11.7257   17.5243 H   0  0  0  0  0  0
  -29.6405  -13.4555   17.7224 H   0  0  0  0  0  0
  -27.8875  -11.2846   18.9103 H   0  0  0  0  0  0
  -27.3784  -12.5279   17.7987 H   0  0  0  0  0  0
  -27.6324  -14.2566   19.4702 H   0  0  0  0  0  0
  -28.7145  -12.1810   21.4346 H   0  0  0  0  0  0
  -28.4208  -13.8666   21.7902 H   0  0  0  0  0  0
  -25.2767   -9.5674   22.4768 H   0  0  0  0  0  0
  -24.0005   -7.4622   22.7463 H   0  0  0  0  0  0
  -21.0850   -8.8763   19.8947 H   0  0  0  0  0  0
  -22.3704  -10.9666   19.6172 H   0  0  0  0  0  0
  -21.1998   -7.6142   23.9710 H   0  0  0  0  0  0
  -21.1495   -6.0518   25.9073 H   0  0  0  0  0  0
  -22.0598   -2.7605   23.2836 H   0  0  0  0  0  0
  -22.4056  -11.9878   22.4855 H   0  0  0  0  0  0
  -21.1052  -13.1223   22.2620 H   0  0  0  0  0  0
  -24.6058  -15.8076   20.4364 H   0  0  0  0  0  0
  -26.1886  -15.5817   19.8915 H   0  0  0  0  0  0
  -26.7194  -32.5406   23.1072 H   0  0  0  0  0  0
  -24.9971  -33.9674   25.0339 H   0  0  0  0  0  0
  -22.7193  -31.2954   21.3916 H   0  0  0  0  0  0
  -23.3737  -35.9659   23.3296 H   0  0  0  0  0  0
  -24.3596  -36.8943   22.2068 H   0  0  0  0  0  0
  -23.7273  -37.6513   23.6684 H   0  0  0  0  0  0
  -26.0958  -31.5357   20.5975 H   0  0  0  0  0  0
  -26.8455  -30.8329   22.0009 H   0  0  0  0  0  0
  -28.1281  -28.9736   21.1847 H   0  0  0  0  0  0
  -26.0220  -25.8889   19.0386 H   0  0  0  0  0  0
  -23.9847  -27.2744   19.0266 H   0  0  0  0  0  0
  -23.7635  -30.5731   19.3988 H   0  0  0  0  0  0
  -22.7632  -29.2284   19.8591 H   0  0  0  0  0  0
  -25.1309  -36.1920   25.0819 H   0  0  0  0  0  0
  -20.9979  -28.3266   24.1409 H   0  0  0  0  0  0
  -20.5682  -26.2293   23.3621 H   0  0  0  0  0  0
  -21.6649  -26.7429   22.1216 H   0  0  0  0  0  0
  -19.6907  -25.6286   21.1256 H   0  0  0  0  0  0
  -19.6702  -27.3193   20.6756 H   0  0  0  0  0  0
  -17.4204  -26.6679   21.4031 H   0  0  0  0  0  0
  -18.0331  -26.0078   22.9032 H   0  0  0  0  0  0
  -19.7939  -30.7292   24.2239 H   0  0  0  0  0  0
  -17.5019  -31.6265   24.5180 H   0  0  0  0  0  0
  -15.5357  -30.2986   23.7678 H   0  0  0  0  0  0
  -15.8675  -28.0843   22.7047 H   0  0  0  0  0  0
  -24.5868  -30.7080   25.7716 H   0  0  0  0  0  0
  -24.8909  -32.2871   26.4857 H   0  0  0  0  0  0
  -25.8009  -30.8848   27.0172 H   0  0  0  0  0  0
  -26.2929  -29.6733   24.1137 H   0  0  0  0  0  0
  -27.3921  -29.7210   25.4713 H   0  0  0  0  0  0
  -27.8836  -30.4229   23.9485 H   0  0  0  0  0  0
  -27.2614  -33.3572   26.2077 H   0  0  0  0  0  0
  -28.3814  -32.6925   25.0288 H   0  0  0  0  0  0
  -28.0739  -31.8419   26.5354 H   0  0  0  0  0  0
  -28.2591  -38.0115   24.7504 H   0  0  0  0  0  0
  -28.1098  -36.2644   24.6287 H   0  0  0  0  0  0
  -27.2305  -37.1455   25.8862 H   0  0  0  0  0  0
  -20.9387  -29.8734   21.6854 H   0  0  0  0  0  0
  -26.0180  -38.2844   24.1370 H   0  0  0  0  0  0
  -31.2344  -20.1867   20.4800 H   0  0  0  0  0  0
  -22.8859  -21.8675   22.4578 H   0  0  0  0  0  0
  -23.5391  -20.2421   22.6444 H   0  0  0  0  0  0
  -23.7747  -21.1276   21.1396 H   0  0  0  0  0  0
  -24.0785  -22.8157   24.4671 H   0  0  0  0  0  0
  -25.8067  -22.5862   24.6765 H   0  0  0  0  0  0
  -24.7116  -21.2166   24.8523 H   0  0  0  0  0  0
  -27.2904  -26.0315   22.5638 H   0  0  0  0  0  0
  -27.5315  -24.3005   22.6760 H   0  0  0  0  0  0
  -26.3922  -24.9376   21.5132 H   0  0  0  0  0  0
  -29.7736  -26.4835   22.1337 H   0  0  0  0  0  0
  -30.6468  -25.5273   20.9424 H   0  0  0  0  0  0
  -30.0421  -24.7754   22.4127 H   0  0  0  0  0  0
  -27.4080  -17.1385   19.9900 H   0  0  0  0  0  0
  -26.3487  -18.0931   21.0331 H   0  0  0  0  0  0
  -27.6314  -17.1383   21.7568 H   0  0  0  0  0  0
  -30.3864  -22.7293   21.0206 H   0  0  0  0  0  0
  -29.0113  -22.6527   22.0507 H   0  0  0  0  0  0
  -25.8695  -20.1201   20.5272 H   0  0  0  0  0  0
  -26.5156  -21.7083   20.5499 H   0  0  0  0  0  0
  -31.3379  -17.3663   21.1604 H   0  0  0  0  0  0
  -30.9399  -17.2939   19.4896 H   0  0  0  0  0  0
  -27.6305  -23.4605   19.8585 H   0  0  0  0  0  0
  -29.1899  -23.8831   19.2603 H   0  0  0  0  0  0
  -27.1164  -21.3445   23.0279 H   0  0  0  0  0  0
  -26.1113  -19.9247   22.9842 H   0  0  0  0  0  0
  -25.2225  -22.7710   22.2794 H   0  0  0  0  0  0
  -28.9457  -15.8046   20.9006 H   0  0  0  0  0  0
  1 25  1  0  0  0
  1 30  2  0  0  0
  1 88  1  0  0  0
  2  3  1  0  0  0
  2 25  1  0  0  0
  2 89  1  0  0  0
  2 90  1  0  0  0
  3  4  1  0  0  0
  3 91  1  0  0  0
  3 92  1  0  0  0
  4  5  1  0  0  0
  4 93  1  0  0  0
  4 94  1  0  0  0
  5  6  1  0  0  0
  5 26  1  0  0  0
  5 95  1  0  0  0
  6 25  1  0  0  0
  6 96  1  0  0  0
  6 97  1  0  0  0
  7  8  2  0  0  0
  7 26  1  0  0  0
  7 29  1  0  0  0
  8  9  1  0  0  0
  8 22  1  0  0  0
  9 10  1  0  0  0
  9 27  2  0  0  0
 10 11  2  0  0  0
 10 15  1  0  0  0
 11 12  1  0  0  0
 11 98  1  0  0  0
 12 13  2  0  0  0
 12 99  1  0  0  0
 13 14  1  0  0  0
 13 31  1  0  0  0
 14 15  2  0  0  0
 14100  1  0  0  0
 15101  1  0  0  0
 16 17  2  0  0  0
 16 21  1  0  0  0
 16 31  1  0  0  0
 17 18  1  0  0  0
 17102  1  0  0  0
 18 19  2  0  0  0
 18103  1  0  0  0
 19 20  1  0  0  0
 19 24  1  0  0  0
 20 21  2  0  0  0
 20104  1  0  0  0
 21 23  1  0  0  0
 22 28  1  0  0  0
 22 32  2  0  0  0
 26 27  1  0  0  0
 28105  1  0  0  0
 28106  1  0  0  0
 29107  1  0  0  0
 29108  1  0  0  0
 33 34  1  0  0  0
 33 66  1  0  0  0
 33 70  2  0  0  0
 34 36  1  0  0  0
 34 59  1  0  0  0
 34109  1  0  0  0
 35 44  2  0  0  0
 35 45  1  0  0  0
 35 68  1  0  0  0
 36 56  1  0  0  0
 36110  1  0  0  0
 37 39  1  0  0  0
 37 47  1  0  0  0
 37 66  1  0  0  0
 37111  1  0  0  0
 38 43  2  0  0  0
 38 46  1  0  0  0
 38 47  1  0  0  0
 39 64  1  0  0  0
 39 67  2  0  0  0
 40 52  1  0  0  0
 40 53  2  0  0  0
 40 58  1  0  0  0
 41112  1  0  0  0
 41113  1  0  0  0
 41114  1  0  0  0
 41 48  1  0  0  0
 42 43  1  0  0  0
 42 66  1  0  0  0
 42115  1  0  0  0
 42116  1  0  0  0
 43 44  1  0  0  0
 44117  1  0  0  0
 45 46  2  0  0  0
 45118  1  0  0  0
 46119  1  0  0  0
 47120  1  0  0  0
 47121  1  0  0  0
 48 56  1  0  0  0
 48 65  1  0  0  0
 48122  1  0  0  0
 49 50  1  0  0  0
 49 53  1  0  0  0
 49 64  1  0  0  0
 49123  1  0  0  0
 50 51  1  0  0  0
 50124  1  0  0  0
 50125  1  0  0  0
 51 52  1  0  0  0
 51126  1  0  0  0
 51127  1  0  0  0
 52128  1  0  0  0
 52129  1  0  0  0
 53 54  1  0  0  0
 54 55  2  0  0  0
 54130  1  0  0  0
 55 57  1  0  0  0
 55131  1  0  0  0
 56 69  2  0  0  0
 57 58  2  0  0  0
 57132  1  0  0  0
 58133  1  0  0  0
 59 60  1  0  0  0
 59 61  1  0  0  0
 59 62  1  0  0  0
 60134  1  0  0  0
 60135  1  0  0  0
 60136  1  0  0  0
 61137  1  0  0  0
 61138  1  0  0  0
 61139  1  0  0  0
 62140  1  0  0  0
 62141  1  0  0  0
 62142  1  0  0  0
 63 65  1  0  0  0
 63143  1  0  0  0
 63144  1  0  0  0
 63145  1  0  0  0
 64146  1  0  0  0
 65147  1  0  0  0
 68 86  1  0  0  0
 71 72  1  0  0  0
 71 73  2  0  0  0
 71148  1  0  0  0
 72 74  2  0  0  0
 72 80  1  0  0  0
 73 82  1  0  0  0
 73 87  1  0  0  0
 74 81  1  0  0  0
 74 87  1  0  0  0
 75149  1  0  0  0
 75150  1  0  0  0
 75151  1  0  0  0
 75 85  1  0  0  0
 76 85  1  0  0  0
 76152  1  0  0  0
 76153  1  0  0  0
 76154  1  0  0  0
 77155  1  0  0  0
 77156  1  0  0  0
 77157  1  0  0  0
 77 86  1  0  0  0
 78 86  1  0  0  0
 78158  1  0  0  0
 78159  1  0  0  0
 78160  1  0  0  0
 79 87  1  0  0  0
 79161  1  0  0  0
 79162  1  0  0  0
 79163  1  0  0  0
 80 83  1  0  0  0
 80164  1  0  0  0
 80165  1  0  0  0
 81 84  1  0  0  0
 81166  1  0  0  0
 81167  1  0  0  0
 82 88  1  0  0  0
 82168  1  0  0  0
 82169  1  0  0  0
 83 86  1  0  0  0
 83170  1  0  0  0
 83171  1  0  0  0
 84 85  1  0  0  0
 84172  1  0  0  0
 84173  1  0  0  0
 85174  1  0  0  0
 88175  1  0  0  0
M  ISO  4   1 100  68 101  86 101  88 100
M  END
> <chiral flag>
0

> <version>
0

> <s_m_source_file>
/data/baiqing/PycharmProjects/Reinvent-master-3.2/result/LINK_invent/BTK/process_docking_weight1_custom_sum_contain_oxygen_bond_distance_aromatic_linkinvent_7_9_3/rearranged_h_0097.sdf

> <i_m_source_file_index>
33

> <r_mmod_Potential_Energy-OPLS-2005>
84.6909790039062

> <r_mmod_Stretch_Energy-OPLS-2005>
113.805938720703

> <r_mmod_Bend_Energy-OPLS-2005>
198.261352539062

> <r_mmod_Torsional_Energy-OPLS-2005>
248.68440246582

> <r_mmod_Improper_Torsional_Energy-OPLS-2005>
7.63033390045166

> <r_mmod_Van_der_Waal_Energy-OPLS-2005>
105.313987731934

> <r_mmod_Electrostatic_Energy-OPLS-2005>
-460.191741943359

> <r_mmod_Solvation_Energy-OPLS-2005>
-198.476898193359

> <b_mmod_Minimization_Converged-OPLS-2005>
0

> <r_mmod_RMS_Derivative-OPLS-2005>
1.28334271907806

$$$$
33
                    3D
 Structure written by MMmdl.
179187  0  0  1  0            999 V2000
  -30.5959  -14.7335   20.4468 C   0  0  0  0  0  0
  -30.4305  -12.4364   19.4859 C   0  0  0  0  0  0
  -29.5107  -12.5048   18.2444 C   0  0  0  0  0  0
  -28.0343  -12.3428   18.6541 C   0  0  0  0  0  0
  -27.6449  -13.2330   19.8653 C   0  0  2  0  0  0
  -28.6893  -13.1440   21.0027 C   0  0  0  0  0  0
  -25.2496  -13.8224   20.5696 C   0  0  0  0  0  0
  -24.1782  -13.0446   20.9206 C   0  0  0  0  0  0
  -24.6389  -11.6935   20.8756 C   0  0  0  0  0  0
  -23.9081  -10.4294   21.0394 C   0  0  0  0  0  0
  -24.3635   -9.4211   21.9168 C   0  0  0  0  0  0
  -23.6299   -8.2248   22.0743 C   0  0  0  0  0  0
  -22.4281   -8.0277   21.3531 C   0  0  0  0  0  0
  -21.9926   -9.0259   20.4639 C   0  0  0  0  0  0
  -22.7258  -10.2127   20.3043 C   0  0  0  0  0  0
  -21.6856   -6.0739   22.5273 C   0  0  0  0  0  0
  -21.4020   -6.5639   23.8210 C   0  0  0  0  0  0
  -21.3652   -5.6789   24.9174 C   0  0  0  0  0  0
  -21.6036   -4.3056   24.7233 C   0  0  0  0  0  0
  -21.8815   -3.8151   23.4349 C   0  0  0  0  0  0
  -21.9189   -4.6963   22.3402 C   0  0  0  0  0  0
  -22.7796  -13.5205   21.1867 C   0  0  0  0  0  0
  -22.1661   -4.2150   21.0978 F   0  0  0  0  0  0
  -21.5632   -3.4537   25.7739 F   0  0  0  0  0  0
  -29.9959  -13.4939   20.4311 N   0  0  0  0  0  0
  -26.2937  -12.9427   20.3354 N   0  0  0  0  0  0
  -25.9327  -11.6564   20.5816 N   0  0  0  0  0  0
  -22.0486  -12.8160   22.0435 N   0  0  0  0  0  0
  -25.4158  -15.1938   20.4043 N   0  0  0  0  0  0
  -31.7566  -14.8636   20.0510 O   0  0  0  0  0  0
  -21.6649   -6.8876   21.4227 O   0  0  0  0  0  0
  -22.3439  -14.5498   20.6727 O   0  0  0  0  0  0
  -24.6306  -31.8568   23.2002 C   0  0  0  0  0  0
  -25.9134  -32.4759   23.8338 C   0  0  1  0  0  0
  -27.2160  -27.2735   20.1191 C   0  0  0  0  0  0
  -25.5919  -33.8563   24.2260 N   0  0  0  0  0  0
  -23.4250  -30.4812   21.5453 C   0  0  2  0  0  0
  -24.8706  -28.9350   20.1091 C   0  0  0  0  0  0
  -22.7493  -29.4615   22.4945 C   0  0  0  0  0  0
  -18.0281  -28.1383   22.8494 C   0  0  0  0  0  0
  -24.1486  -36.7285   23.2641 C   0  0  0  0  0  0
  -25.9709  -30.7728   21.3785 C   0  0  0  0  0  0
  -26.0426  -29.3981   20.7193 C   0  0  0  0  0  0
  -27.2189  -28.5814   20.7112 C   0  0  0  0  0  0
  -26.0180  -26.8797   19.4782 C   0  0  0  0  0  0
  -24.8634  -27.6834   19.4783 C   0  0  0  0  0  0
  -23.6407  -29.8191   20.1604 C   0  0  0  0  0  0
  -25.4107  -36.3070   24.0336 C   0  0  1  0  0  0
  -20.5883  -28.3693   23.1289 C   0  0  2  0  0  0
  -20.6774  -26.9412   22.5424 C   0  0  0  0  0  0
  -19.5749  -26.6384   21.5223 C   0  0  0  0  0  0
  -18.1923  -26.7927   22.1626 C   0  0  0  0  0  0
  -19.1533  -28.8857   23.2883 C   0  0  0  0  0  0
  -18.9463  -30.1454   23.8902 C   0  0  0  0  0  0
  -17.6463  -30.6586   24.0565 C   0  0  0  0  0  0
  -25.9063  -34.9447   23.5110 C   0  0  0  0  0  0
  -16.5354  -29.9088   23.6328 C   0  0  0  0  0  0
  -16.7269  -28.6504   23.0358 C   0  0  0  0  0  0
  -26.4492  -31.6579   25.0731 C   0  0  0  0  0  0
  -25.3698  -31.3735   26.1442 C   0  0  0  0  0  0
  -27.0326  -30.2987   24.6221 C   0  0  0  0  0  0
  -27.6059  -32.4313   25.7487 C   0  0  0  0  0  0
  -27.5581  -37.1780   24.8453 C   0  0  0  0  0  0
  -21.4202  -29.3038   22.3683 N   0  0  0  0  0  0
  -26.4276  -37.3774   23.9432 N   0  0  0  0  0  0
  -24.6947  -31.0544   22.0976 N   0  0  0  0  0  0
  -23.4205  -28.8151   23.3031 O   0  0  0  0  0  0
  -28.3100  -26.3776   20.1785 O   0  0  0  0  0  0
  -26.5650  -34.8912   22.4689 O   0  0  0  0  0  0
  -23.5467  -32.1387   23.7316 O   0  0  0  0  0  0
  -29.3418  -19.2579   17.8520 C   0  0  0  0  0  0
  -28.6827  -21.8751   18.0497 C   0  0  0  0  0  0
  -29.3540  -19.7739   19.1773 C   0  0  0  0  0  0
  -28.9979  -21.2138   19.2617 C   0  0  0  0  0  0
  -28.9748  -20.0273   16.7418 C   0  0  0  0  0  0
  -28.9039  -19.4196   15.3577 C   0  0  0  0  0  0
  -32.0366  -19.1045   25.1623 C   0  0  0  0  0  0
  -31.1818  -21.5997   23.5536 C   0  0  0  0  0  0
  -32.7337  -20.8706   21.0138 C   0  0  0  0  0  0
  -28.7880  -22.1870   20.4856 C   0  0  0  0  0  0
  -32.3559  -19.3499   23.6809 C   0  0  0  0  0  0
  -29.1456  -23.7806   20.3709 C   0  0  0  0  0  0
  -29.7088  -17.1086   19.7993 C   0  0  0  0  0  0
  -31.2217  -18.9275   20.7574 C   0  0  0  0  0  0
  -28.0428  -24.9073   20.0206 C   0  0  0  0  0  0
  -29.7651  -18.6823   20.2910 C   0  0  1  0  0  0
  -31.2759  -20.1838   22.9381 C   0  0  2  0  0  0
  -28.6593  -21.3197   16.8327 N   0  0  0  0  0  0
  -29.8010  -15.8485   20.6688 N   0  0  0  0  0  0
  -31.4671  -20.2270   21.4513 N   0  3  1  0  0  0
  -31.4752  -12.5484   19.1908 H   0  0  0  0  0  0
  -30.3622  -11.4548   19.9595 H   0  0  0  0  0  0
  -29.7825  -11.7254   17.5315 H   0  0  0  0  0  0
  -29.6490  -13.4543   17.7259 H   0  0  0  0  0  0
  -27.8797  -11.2934   18.9043 H   0  0  0  0  0  0
  -27.3797  -12.5502   17.8061 H   0  0  0  0  0  0
  -27.6471  -14.2595   19.4992 H   0  0  0  0  0  0
  -28.7203  -12.1377   21.4233 H   0  0  0  0  0  0
  -28.4307  -13.8081   21.8286 H   0  0  0  0  0  0
  -25.2780   -9.5680   22.4749 H   0  0  0  0  0  0
  -23.9996   -7.4636   22.7462 H   0  0  0  0  0  0
  -21.0862   -8.8765   19.8960 H   0  0  0  0  0  0
  -22.3704  -10.9654   19.6157 H   0  0  0  0  0  0
  -21.2022   -7.6151   23.9712 H   0  0  0  0  0  0
  -21.1473   -6.0536   25.9072 H   0  0  0  0  0  0
  -22.0603   -2.7616   23.2864 H   0  0  0  0  0  0
  -22.4138  -11.9830   22.4794 H   0  0  0  0  0  0
  -21.1095  -13.1129   22.2672 H   0  0  0  0  0  0
  -24.6402  -15.8421   20.4934 H   0  0  0  0  0  0
  -26.2420  -15.6245   20.0108 H   0  0  0  0  0  0
  -26.7203  -32.5411   23.1084 H   0  0  0  0  0  0
  -24.9987  -33.9703   25.0348 H   0  0  0  0  0  0
  -22.7198  -31.3033   21.4032 H   0  0  0  0  0  0
  -23.3762  -35.9601   23.3270 H   0  0  0  0  0  0
  -24.3578  -36.8953   22.2061 H   0  0  0  0  0  0
  -23.7220  -37.6469   23.6690 H   0  0  0  0  0  0
  -26.1092  -31.5342   20.6094 H   0  0  0  0  0  0
  -26.8487  -30.8194   22.0117 H   0  0  0  0  0  0
  -28.1147  -28.9321   21.2054 H   0  0  0  0  0  0
  -25.9356  -25.9268   18.9789 H   0  0  0  0  0  0
  -23.9664  -27.3280   18.9898 H   0  0  0  0  0  0
  -23.7589  -30.5964   19.4049 H   0  0  0  0  0  0
  -22.7582  -29.2518   19.8586 H   0  0  0  0  0  0
  -25.1280  -36.1912   25.0825 H   0  0  0  0  0  0
  -20.9960  -28.3268   24.1416 H   0  0  0  0  0  0
  -20.5669  -26.2305   23.3632 H   0  0  0  0  0  0
  -21.6644  -26.7431   22.1219 H   0  0  0  0  0  0
  -19.6915  -25.6298   21.1248 H   0  0  0  0  0  0
  -19.6687  -27.3206   20.6764 H   0  0  0  0  0  0
  -17.4199  -26.6692   21.4020 H   0  0  0  0  0  0
  -18.0301  -26.0056   22.9006 H   0  0  0  0  0  0
  -19.7941  -30.7261   24.2283 H   0  0  0  0  0  0
  -17.5021  -31.6266   24.5165 H   0  0  0  0  0  0
  -15.5356  -30.2993   23.7652 H   0  0  0  0  0  0
  -15.8667  -28.0821   22.7081 H   0  0  0  0  0  0
  -24.5910  -30.7039   25.7770 H   0  0  0  0  0  0
  -24.8836  -32.2900   26.4797 H   0  0  0  0  0  0
  -25.7998  -30.8967   27.0260 H   0  0  0  0  0  0
  -26.2904  -29.6749   24.1228 H   0  0  0  0  0  0
  -27.3976  -29.7240   25.4744 H   0  0  0  0  0  0
  -27.8793  -30.4253   23.9473 H   0  0  0  0  0  0
  -27.2684  -33.3634   26.2026 H   0  0  0  0  0  0
  -28.3861  -32.6842   25.0296 H   0  0  0  0  0  0
  -28.0719  -31.8458   26.5421 H   0  0  0  0  0  0
  -28.2561  -38.0114   24.7555 H   0  0  0  0  0  0
  -28.1114  -36.2655   24.6191 H   0  0  0  0  0  0
  -27.2318  -37.1323   25.8856 H   0  0  0  0  0  0
  -20.9399  -29.8762   21.6882 H   0  0  0  0  0  0
  -26.0158  -38.2847   24.1457 H   0  0  0  0  0  0
  -29.5926  -18.2377   17.6183 H   0  0  0  0  0  0
  -28.3988  -22.9137   18.0360 H   0  0  0  0  0  0
  -28.5263  -18.3971   15.3998 H   0  0  0  0  0  0
  -29.8932  -19.4045   14.9030 H   0  0  0  0  0  0
  -28.2377  -19.9907   14.7097 H   0  0  0  0  0  0
  -32.7809  -18.4468   25.6141 H   0  0  0  0  0  0
  -31.0604  -18.6335   25.2876 H   0  0  0  0  0  0
  -32.0369  -20.0318   25.7352 H   0  0  0  0  0  0
  -30.7113  -21.5633   24.5361 H   0  0  0  0  0  0
  -30.5918  -22.2913   22.9585 H   0  0  0  0  0  0
  -32.1659  -22.0492   23.6857 H   0  0  0  0  0  0
  -32.7480  -20.9984   19.9308 H   0  0  0  0  0  0
  -33.6084  -20.2808   21.2852 H   0  0  0  0  0  0
  -32.8497  -21.8658   21.4398 H   0  0  0  0  0  0
  -29.3224  -21.7631   21.3238 H   0  0  0  0  0  0
  -27.7408  -22.1042   20.7791 H   0  0  0  0  0  0
  -32.4813  -18.3705   23.2256 H   0  0  0  0  0  0
  -33.3284  -19.8361   23.6031 H   0  0  0  0  0  0
  -30.0145  -23.9125   19.7259 H   0  0  0  0  0  0
  -29.5025  -24.0650   21.3609 H   0  0  0  0  0  0
  -30.4592  -16.9738   19.0194 H   0  0  0  0  0  0
  -28.7458  -16.9828   19.3012 H   0  0  0  0  0  0
  -31.8468  -18.8709   19.8644 H   0  0  0  0  0  0
  -31.5476  -18.0882   21.3655 H   0  0  0  0  0  0
  -27.1584  -24.6672   20.6128 H   0  0  0  0  0  0
  -27.7579  -24.7589   18.9809 H   0  0  0  0  0  0
  -29.0794  -18.8038   21.1299 H   0  0  0  0  0  0
  -30.3077  -19.7066   23.1013 H   0  0  0  0  0  0
  -28.9353  -15.6224   21.1365 H   0  0  0  0  0  0
  -30.7474  -20.8353   21.0863 H   0  0  0  0  0  0
  1 25  1  0  0  0
  1 30  2  0  0  0
  1 89  1  0  0  0
  2  3  1  0  0  0
  2 25  1  0  0  0
  2 91  1  0  0  0
  2 92  1  0  0  0
  3  4  1  0  0  0
  3 93  1  0  0  0
  3 94  1  0  0  0
  4  5  1  0  0  0
  4 95  1  0  0  0
  4 96  1  0  0  0
  5  6  1  0  0  0
  5 26  1  0  0  0
  5 97  1  0  0  0
  6 25  1  0  0  0
  6 98  1  0  0  0
  6 99  1  0  0  0
  7  8  2  0  0  0
  7 26  1  0  0  0
  7 29  1  0  0  0
  8  9  1  0  0  0
  8 22  1  0  0  0
  9 10  1  0  0  0
  9 27  2  0  0  0
 10 11  2  0  0  0
 10 15  1  0  0  0
 11 12  1  0  0  0
 11100  1  0  0  0
 12 13  2  0  0  0
 12101  1  0  0  0
 13 14  1  0  0  0
 13 31  1  0  0  0
 14 15  2  0  0  0
 14102  1  0  0  0
 15103  1  0  0  0
 16 17  2  0  0  0
 16 21  1  0  0  0
 16 31  1  0  0  0
 17 18  1  0  0  0
 17104  1  0  0  0
 18 19  2  0  0  0
 18105  1  0  0  0
 19 20  1  0  0  0
 19 24  1  0  0  0
 20 21  2  0  0  0
 20106  1  0  0  0
 21 23  1  0  0  0
 22 28  1  0  0  0
 22 32  2  0  0  0
 26 27  1  0  0  0
 28107  1  0  0  0
 28108  1  0  0  0
 29109  1  0  0  0
 29110  1  0  0  0
 33 34  1  0  0  0
 33 66  1  0  0  0
 33 70  2  0  0  0
 34 36  1  0  0  0
 34 59  1  0  0  0
 34111  1  0  0  0
 35 44  2  0  0  0
 35 45  1  0  0  0
 35 68  1  0  0  0
 36 56  1  0  0  0
 36112  1  0  0  0
 37 39  1  0  0  0
 37 47  1  0  0  0
 37 66  1  0  0  0
 37113  1  0  0  0
 38 43  2  0  0  0
 38 46  1  0  0  0
 38 47  1  0  0  0
 39 64  1  0  0  0
 39 67  2  0  0  0
 40 52  1  0  0  0
 40 53  2  0  0  0
 40 58  1  0  0  0
 41114  1  0  0  0
 41115  1  0  0  0
 41116  1  0  0  0
 41 48  1  0  0  0
 42 43  1  0  0  0
 42 66  1  0  0  0
 42117  1  0  0  0
 42118  1  0  0  0
 43 44  1  0  0  0
 44119  1  0  0  0
 45 46  2  0  0  0
 45120  1  0  0  0
 46121  1  0  0  0
 47122  1  0  0  0
 47123  1  0  0  0
 48 56  1  0  0  0
 48 65  1  0  0  0
 48124  1  0  0  0
 49 50  1  0  0  0
 49 53  1  0  0  0
 49 64  1  0  0  0
 49125  1  0  0  0
 50 51  1  0  0  0
 50126  1  0  0  0
 50127  1  0  0  0
 51 52  1  0  0  0
 51128  1  0  0  0
 51129  1  0  0  0
 52130  1  0  0  0
 52131  1  0  0  0
 53 54  1  0  0  0
 54 55  2  0  0  0
 54132  1  0  0  0
 55 57  1  0  0  0
 55133  1  0  0  0
 56 69  2  0  0  0
 57 58  2  0  0  0
 57134  1  0  0  0
 58135  1  0  0  0
 59 60  1  0  0  0
 59 61  1  0  0  0
 59 62  1  0  0  0
 60136  1  0  0  0
 60137  1  0  0  0
 60138  1  0  0  0
 61139  1  0  0  0
 61140  1  0  0  0
 61141  1  0  0  0
 62142  1  0  0  0
 62143  1  0  0  0
 62144  1  0  0  0
 63 65  1  0  0  0
 63145  1  0  0  0
 63146  1  0  0  0
 63147  1  0  0  0
 64148  1  0  0  0
 65149  1  0  0  0
 68 85  1  0  0  0
 71 73  2  0  0  0
 71 75  1  0  0  0
 71150  1  0  0  0
 72 74  2  0  0  0
 72 88  1  0  0  0
 72151  1  0  0  0
 73 74  1  0  0  0
 73 86  1  0  0  0
 74 80  1  0  0  0
 75 76  1  0  0  0
 75 88  2  0  0  0
 76152  1  0  0  0
 76153  1  0  0  0
 76154  1  0  0  0
 77 81  1  0  0  0
 77155  1  0  0  0
 77156  1  0  0  0
 77157  1  0  0  0
 78158  1  0  0  0
 78159  1  0  0  0
 78160  1  0  0  0
 78 87  1  0  0  0
 79161  1  0  0  0
 79162  1  0  0  0
 79163  1  0  0  0
 79 90  1  0  0  0
 80 82  1  0  0  0
 80164  1  0  0  0
 80165  1  0  0  0
 81 87  1  0  0  0
 81166  1  0  0  0
 81167  1  0  0  0
 82 85  1  0  0  0
 82168  1  0  0  0
 82169  1  0  0  0
 83 89  1  0  0  0
 83170  1  0  0  0
 83171  1  0  0  0
 83 86  1  0  0  0
 84 86  1  0  0  0
 84 90  1  0  0  0
 84172  1  0  0  0
 84173  1  0  0  0
 85174  1  0  0  0
 85175  1  0  0  0
 86176  1  0  0  0
 87 90  1  0  0  0
 87177  1  0  0  0
 89178  1  0  0  0
 90179  1  0  0  0
M  CHG  1  90   1
M  ISO  4   1 100  68 101  85 101  89 100
M  END
> <chiral flag>
0

> <version>
0

> <s_m_source_file>
/data/baiqing/PycharmProjects/Reinvent-master-3.2/result/LINK_invent/BTK/process_docking_weight1_custom_sum_contain_oxygen_bond_distance_aromatic_linkinvent_7_9_3/rearranged_h_0097.sdf

> <i_m_source_file_index>
34

> <r_mmod_Potential_Energy-OPLS-2005>
48.7551612854004

> <r_mmod_Stretch_Energy-OPLS-2005>
147.919860839844

> <r_mmod_Bend_Energy-OPLS-2005>
228.171737670898

> <r_mmod_Torsional_Energy-OPLS-2005>
270.818206787109

> <r_mmod_Improper_Torsional_Energy-OPLS-2005>
8.76883602142334

> <r_mmod_Van_der_Waal_Energy-OPLS-2005>
153.682373046875

> <r_mmod_Electrostatic_Energy-OPLS-2005>
-391.599884033203

> <r_mmod_Solvation_Energy-OPLS-2005>
-449.009857177734

> <b_mmod_Minimization_Converged-OPLS-2005>
0

> <r_mmod_RMS_Derivative-OPLS-2005>
2.5769510269165

$$$$
34
                    3D
 Structure written by MMmdl.
170178  0  0  1  0            999 V2000
  -30.6721  -14.5998   20.4950 C   0  0  0  0  0  0
  -30.4145  -12.3673   19.4661 C   0  0  0  0  0  0
  -29.5019  -12.4984   18.2305 C   0  0  0  0  0  0
  -28.0216  -12.3574   18.6357 C   0  0  0  0  0  0
  -27.6461  -13.2299   19.8644 C   0  0  2  0  0  0
  -28.6886  -13.1051   20.9976 C   0  0  0  0  0  0
  -25.2495  -13.8202   20.5727 C   0  0  0  0  0  0
  -24.1783  -13.0438   20.9236 C   0  0  0  0  0  0
  -24.6384  -11.6925   20.8789 C   0  0  0  0  0  0
  -23.9060  -10.4295   21.0419 C   0  0  0  0  0  0
  -24.3605   -9.4210   21.9205 C   0  0  0  0  0  0
  -23.6280   -8.2241   22.0764 C   0  0  0  0  0  0
  -22.4262   -8.0277   21.3546 C   0  0  0  0  0  0
  -21.9902   -9.0257   20.4662 C   0  0  0  0  0  0
  -22.7231  -10.2139   20.3076 C   0  0  0  0  0  0
  -21.6844   -6.0747   22.5291 C   0  0  0  0  0  0
  -21.4009   -6.5647   23.8229 C   0  0  0  0  0  0
  -21.3665   -5.6802   24.9184 C   0  0  0  0  0  0
  -21.6030   -4.3063   24.7230 C   0  0  0  0  0  0
  -21.8818   -3.8158   23.4356 C   0  0  0  0  0  0
  -21.9181   -4.6975   22.3407 C   0  0  0  0  0  0
  -22.7804  -13.5229   21.1878 C   0  0  0  0  0  0
  -22.1656   -4.2155   21.0981 F   0  0  0  0  0  0
  -21.5626   -3.4541   25.7747 F   0  0  0  0  0  0
  -30.0010  -13.4123   20.4210 N   0  0  0  0  0  0
  -26.2942  -12.9416   20.3346 N   0  0  0  0  0  0
  -25.9313  -11.6559   20.5795 N   0  0  0  0  0  0
  -22.0426  -12.8228   22.0434 N   0  0  0  0  0  0
  -25.4153  -15.1923   20.4137 N   0  0  0  0  0  0
  -31.8564  -14.6746   20.1596 O   0  0  0  0  0  0
  -21.6623   -6.8879   21.4248 O   0  0  0  0  0  0
  -22.3505  -14.5537   20.6717 O   0  0  0  0  0  0
  -24.6212  -31.8626   23.2010 C   0  0  0  0  0  0
  -25.9055  -32.4786   23.8355 C   0  0  1  0  0  0
  -27.2299  -27.3373   20.1186 C   0  0  0  0  0  0
  -25.5881  -33.8584   24.2301 N   0  0  0  0  0  0
  -23.4121  -30.4823   21.5456 C   0  0  2  0  0  0
  -24.8579  -28.9303   20.1129 C   0  0  0  0  0  0
  -22.7439  -29.4628   22.4967 C   0  0  0  0  0  0
  -18.0281  -28.1380   22.8489 C   0  0  0  0  0  0
  -24.1472  -36.7302   23.2646 C   0  0  0  0  0  0
  -25.9501  -30.7925   21.3725 C   0  0  0  0  0  0
  -26.0211  -29.4213   20.7163 C   0  0  0  0  0  0
  -27.2041  -28.6323   20.7137 C   0  0  0  0  0  0
  -26.0394  -26.8779   19.5092 C   0  0  0  0  0  0
  -24.8662  -27.6610   19.5076 C   0  0  0  0  0  0
  -23.6232  -29.8077   20.1627 C   0  0  0  0  0  0
  -25.4079  -36.3082   24.0351 C   0  0  1  0  0  0
  -20.5865  -28.3671   23.1291 C   0  0  2  0  0  0
  -20.6765  -26.9398   22.5402 C   0  0  0  0  0  0
  -19.5740  -26.6372   21.5201 C   0  0  0  0  0  0
  -18.1917  -26.7922   22.1623 C   0  0  0  0  0  0
  -19.1523  -28.8844   23.2892 C   0  0  0  0  0  0
  -18.9448  -30.1451   23.8883 C   0  0  0  0  0  0
  -17.6449  -30.6575   24.0556 C   0  0  0  0  0  0
  -25.9021  -34.9451   23.5127 C   0  0  0  0  0  0
  -16.5340  -29.9067   23.6341 C   0  0  0  0  0  0
  -16.7263  -28.6494   23.0345 C   0  0  0  0  0  0
  -26.4451  -31.6573   25.0709 C   0  0  0  0  0  0
  -25.3719  -31.3708   26.1477 C   0  0  0  0  0  0
  -27.0304  -30.3032   24.6109 C   0  0  0  0  0  0
  -27.6036  -32.4300   25.7468 C   0  0  0  0  0  0
  -27.5563  -37.1772   24.8465 C   0  0  0  0  0  0
  -21.4153  -29.3032   22.3699 N   0  0  0  0  0  0
  -26.4263  -37.3767   23.9414 N   0  0  0  0  0  0
  -24.6793  -31.0640   22.0957 N   0  0  0  0  0  0
  -23.4167  -28.8176   23.3048 O   0  0  0  0  0  0
  -28.3941  -26.5649   20.1887 O   0  0  0  0  0  0
  -26.5620  -34.8912   22.4704 O   0  0  0  0  0  0
  -23.5383  -32.1436   23.7347 O   0  0  0  0  0  0
  -30.1383  -19.3620   21.7133 C   0  0  0  0  0  0
  -29.9252  -20.7569   21.5404 C   0  0  0  0  0  0
  -29.3761  -21.2375   20.3154 C   0  0  0  0  0  0
  -29.8635  -18.4476   20.6795 C   0  0  0  0  0  0
  -28.9681  -20.2151   19.4008 C   0  0  0  0  0  0
  -29.2283  -20.5289   16.8896 C   0  0  0  0  0  0
  -32.4800  -22.7490   23.7355 C   0  0  0  0  0  0
  -29.5884  -21.4265   23.9411 C   0  0  0  0  0  0
  -29.4617  -22.7562   19.8740 C   0  0  0  0  0  0
  -28.2749  -20.5521   18.0907 C   0  0  0  0  0  0
  -30.6238  -17.0834   20.6213 C   0  0  0  0  0  0
  -31.9132  -21.6170   22.8627 C   0  0  0  0  0  0
  -28.5206  -23.9152   20.4219 C   0  0  0  0  0  0
  -28.5520  -25.2493   19.5541 C   0  0  0  0  0  0
  -30.3845  -21.6948   22.6559 C   0  0  1  0  0  0
  -29.2217  -18.8799   19.5693 N   0  0  0  0  0  0
  -29.9700  -15.7441   20.7388 N   0  0  0  0  0  0
  -31.4626  -12.4565   19.1746 H   0  0  0  0  0  0
  -30.3166  -11.3815   19.9205 H   0  0  0  0  0  0
  -29.7608  -11.7401   17.4886 H   0  0  0  0  0  0
  -29.6639  -13.4662   17.7521 H   0  0  0  0  0  0
  -27.8429  -11.3050   18.8606 H   0  0  0  0  0  0
  -27.3738  -12.6008   17.7917 H   0  0  0  0  0  0
  -27.6586  -14.2630   19.5193 H   0  0  0  0  0  0
  -28.6876  -12.0993   21.4165 H   0  0  0  0  0  0
  -28.4484  -13.7773   21.8223 H   0  0  0  0  0  0
  -25.2745   -9.5672   22.4792 H   0  0  0  0  0  0
  -23.9984   -7.4627   22.7482 H   0  0  0  0  0  0
  -21.0841   -8.8780   19.8971 H   0  0  0  0  0  0
  -22.3691  -10.9679   19.6193 H   0  0  0  0  0  0
  -21.2002   -7.6151   23.9728 H   0  0  0  0  0  0
  -21.1493   -6.0530   25.9084 H   0  0  0  0  0  0
  -22.0585   -2.7614   23.2850 H   0  0  0  0  0  0
  -22.4010  -11.9884   22.4827 H   0  0  0  0  0  0
  -21.1064  -13.1301   22.2632 H   0  0  0  0  0  0
  -24.6437  -15.8407   20.5255 H   0  0  0  0  0  0
  -26.2592  -15.6404   20.0766 H   0  0  0  0  0  0
  -26.7092  -32.5476   23.1085 H   0  0  0  0  0  0
  -25.0016  -33.9747   25.0434 H   0  0  0  0  0  0
  -22.7020  -31.2984   21.4043 H   0  0  0  0  0  0
  -23.3737  -35.9632   23.3313 H   0  0  0  0  0  0
  -24.3558  -36.8914   22.2055 H   0  0  0  0  0  0
  -23.7229  -37.6512   23.6661 H   0  0  0  0  0  0
  -26.0871  -31.5567   20.6071 H   0  0  0  0  0  0
  -26.8266  -30.8354   22.0063 H   0  0  0  0  0  0
  -28.0975  -29.0088   21.1920 H   0  0  0  0  0  0
  -25.9821  -25.8986   19.0606 H   0  0  0  0  0  0
  -23.9663  -27.2696   19.0536 H   0  0  0  0  0  0
  -23.7315  -30.5818   19.4029 H   0  0  0  0  0  0
  -22.7432  -29.2310   19.8706 H   0  0  0  0  0  0
  -25.1250  -36.1948   25.0849 H   0  0  0  0  0  0
  -20.9965  -28.3246   24.1408 H   0  0  0  0  0  0
  -20.5650  -26.2281   23.3600 H   0  0  0  0  0  0
  -21.6640  -26.7421   22.1192 H   0  0  0  0  0  0
  -19.6894  -25.6273   21.1240 H   0  0  0  0  0  0
  -19.6679  -27.3179   20.6721 H   0  0  0  0  0  0
  -17.4183  -26.6652   21.4034 H   0  0  0  0  0  0
  -18.0344  -26.0060   22.9020 H   0  0  0  0  0  0
  -19.7932  -30.7296   24.2214 H   0  0  0  0  0  0
  -17.5003  -31.6259   24.5169 H   0  0  0  0  0  0
  -15.5342  -30.2958   23.7695 H   0  0  0  0  0  0
  -15.8669  -28.0832   22.7037 H   0  0  0  0  0  0
  -24.5918  -30.6974   25.7875 H   0  0  0  0  0  0
  -24.8882  -32.2882   26.4881 H   0  0  0  0  0  0
  -25.8115  -30.8981   27.0270 H   0  0  0  0  0  0
  -26.2864  -29.6831   24.1100 H   0  0  0  0  0  0
  -27.3980  -29.7223   25.4581 H   0  0  0  0  0  0
  -27.8763  -30.4360   23.9351 H   0  0  0  0  0  0
  -27.2662  -33.3630   26.2003 H   0  0  0  0  0  0
  -28.3861  -32.6816   25.0305 H   0  0  0  0  0  0
  -28.0680  -31.8426   26.5410 H   0  0  0  0  0  0
  -28.2584  -38.0061   24.7522 H   0  0  0  0  0  0
  -28.1080  -36.2621   24.6276 H   0  0  0  0  0  0
  -27.2319  -37.1381   25.8880 H   0  0  0  0  0  0
  -20.9303  -29.8748   21.6929 H   0  0  0  0  0  0
  -26.0189  -38.2852   24.1436 H   0  0  0  0  0  0
  -30.6471  -19.0074   22.5991 H   0  0  0  0  0  0
  -29.6009  -19.5191   16.7178 H   0  0  0  0  0  0
  -30.0868  -21.1813   17.0533 H   0  0  0  0  0  0
  -28.7228  -20.8574   15.9815 H   0  0  0  0  0  0
  -33.5600  -22.8277   23.6115 H   0  0  0  0  0  0
  -32.2818  -22.5828   24.7950 H   0  0  0  0  0  0
  -32.0550  -23.7150   23.4625 H   0  0  0  0  0  0
  -28.5194  -21.5407   23.7534 H   0  0  0  0  0  0
  -29.8576  -22.1262   24.7314 H   0  0  0  0  0  0
  -29.7519  -20.4160   24.3159 H   0  0  0  0  0  0
  -29.4231  -22.7968   18.7884 H   0  0  0  0  0  0
  -30.4893  -23.0606   20.0753 H   0  0  0  0  0  0
  -27.7764  -21.5175   18.1622 H   0  0  0  0  0  0
  -27.4701  -19.8352   17.9269 H   0  0  0  0  0  0
  -31.4076  -17.1182   21.3797 H   0  0  0  0  0  0
  -31.1620  -17.0970   19.6722 H   0  0  0  0  0  0
  -32.2067  -20.6469   23.2661 H   0  0  0  0  0  0
  -32.3877  -21.6911   21.8832 H   0  0  0  0  0  0
  -28.8060  -24.1625   21.4426 H   0  0  0  0  0  0
  -27.4907  -23.5636   20.4792 H   0  0  0  0  0  0
  -27.9249  -25.1384   18.6706 H   0  0  0  0  0  0
  -29.5573  -25.3083   19.1354 H   0  0  0  0  0  0
  -30.1663  -22.7176   22.3680 H   0  0  0  0  0  0
  -28.9825  -15.7041   20.9390 H   0  0  0  0  0  0
  1 25  1  0  0  0
  1 30  2  0  0  0
  1 87  1  0  0  0
  2  3  1  0  0  0
  2 25  1  0  0  0
  2 88  1  0  0  0
  2 89  1  0  0  0
  3  4  1  0  0  0
  3 90  1  0  0  0
  3 91  1  0  0  0
  4  5  1  0  0  0
  4 92  1  0  0  0
  4 93  1  0  0  0
  5  6  1  0  0  0
  5 26  1  0  0  0
  5 94  1  0  0  0
  6 25  1  0  0  0
  6 95  1  0  0  0
  6 96  1  0  0  0
  7  8  2  0  0  0
  7 26  1  0  0  0
  7 29  1  0  0  0
  8  9  1  0  0  0
  8 22  1  0  0  0
  9 10  1  0  0  0
  9 27  2  0  0  0
 10 11  2  0  0  0
 10 15  1  0  0  0
 11 12  1  0  0  0
 11 97  1  0  0  0
 12 13  2  0  0  0
 12 98  1  0  0  0
 13 14  1  0  0  0
 13 31  1  0  0  0
 14 15  2  0  0  0
 14 99  1  0  0  0
 15100  1  0  0  0
 16 17  2  0  0  0
 16 21  1  0  0  0
 16 31  1  0  0  0
 17 18  1  0  0  0
 17101  1  0  0  0
 18 19  2  0  0  0
 18102  1  0  0  0
 19 20  1  0  0  0
 19 24  1  0  0  0
 20 21  2  0  0  0
 20103  1  0  0  0
 21 23  1  0  0  0
 22 28  1  0  0  0
 22 32  2  0  0  0
 26 27  1  0  0  0
 28104  1  0  0  0
 28105  1  0  0  0
 29106  1  0  0  0
 29107  1  0  0  0
 33 34  1  0  0  0
 33 66  1  0  0  0
 33 70  2  0  0  0
 34 36  1  0  0  0
 34 59  1  0  0  0
 34108  1  0  0  0
 35 44  2  0  0  0
 35 45  1  0  0  0
 35 68  1  0  0  0
 36 56  1  0  0  0
 36109  1  0  0  0
 37 39  1  0  0  0
 37 47  1  0  0  0
 37 66  1  0  0  0
 37110  1  0  0  0
 38 43  2  0  0  0
 38 46  1  0  0  0
 38 47  1  0  0  0
 39 64  1  0  0  0
 39 67  2  0  0  0
 40 52  1  0  0  0
 40 53  2  0  0  0
 40 58  1  0  0  0
 41111  1  0  0  0
 41112  1  0  0  0
 41113  1  0  0  0
 41 48  1  0  0  0
 42 43  1  0  0  0
 42 66  1  0  0  0
 42114  1  0  0  0
 42115  1  0  0  0
 43 44  1  0  0  0
 44116  1  0  0  0
 45 46  2  0  0  0
 45117  1  0  0  0
 46118  1  0  0  0
 47119  1  0  0  0
 47120  1  0  0  0
 48 56  1  0  0  0
 48 65  1  0  0  0
 48121  1  0  0  0
 49 50  1  0  0  0
 49 53  1  0  0  0
 49 64  1  0  0  0
 49122  1  0  0  0
 50 51  1  0  0  0
 50123  1  0  0  0
 50124  1  0  0  0
 51 52  1  0  0  0
 51125  1  0  0  0
 51126  1  0  0  0
 52127  1  0  0  0
 52128  1  0  0  0
 53 54  1  0  0  0
 54 55  2  0  0  0
 54129  1  0  0  0
 55 57  1  0  0  0
 55130  1  0  0  0
 56 69  2  0  0  0
 57 58  2  0  0  0
 57131  1  0  0  0
 58132  1  0  0  0
 59 60  1  0  0  0
 59 61  1  0  0  0
 59 62  1  0  0  0
 60133  1  0  0  0
 60134  1  0  0  0
 60135  1  0  0  0
 61136  1  0  0  0
 61137  1  0  0  0
 61138  1  0  0  0
 62139  1  0  0  0
 62140  1  0  0  0
 62141  1  0  0  0
 63 65  1  0  0  0
 63142  1  0  0  0
 63143  1  0  0  0
 63144  1  0  0  0
 64145  1  0  0  0
 65146  1  0  0  0
 68 84  1  0  0  0
 71 72  2  0  0  0
 71 74  1  0  0  0
 71147  1  0  0  0
 72 73  1  0  0  0
 72 85  1  0  0  0
 73 75  2  0  0  0
 73 79  1  0  0  0
 74 81  1  0  0  0
 74 86  2  0  0  0
 75 80  1  0  0  0
 75 86  1  0  0  0
 76 80  1  0  0  0
 76148  1  0  0  0
 76149  1  0  0  0
 76150  1  0  0  0
 77 82  1  0  0  0
 77151  1  0  0  0
 77152  1  0  0  0
 77153  1  0  0  0
 78154  1  0  0  0
 78155  1  0  0  0
 78156  1  0  0  0
 78 85  1  0  0  0
 79 83  1  0  0  0
 79157  1  0  0  0
 79158  1  0  0  0
 80159  1  0  0  0
 80160  1  0  0  0
 81 87  1  0  0  0
 81161  1  0  0  0
 81162  1  0  0  0
 82 85  1  0  0  0
 82163  1  0  0  0
 82164  1  0  0  0
 83 84  1  0  0  0
 83165  1  0  0  0
 83166  1  0  0  0
 84167  1  0  0  0
 84168  1  0  0  0
 85169  1  0  0  0
 87170  1  0  0  0
M  ISO  4   1 100  68 101  84 101  87 100
M  END
> <chiral flag>
0

> <version>
0

> <s_m_source_file>
/data/baiqing/PycharmProjects/Reinvent-master-3.2/result/LINK_invent/BTK/process_docking_weight1_custom_sum_contain_oxygen_bond_distance_aromatic_linkinvent_7_9_3/rearranged_h_0097.sdf

> <i_m_source_file_index>
35

> <r_mmod_Potential_Energy-OPLS-2005>
-208.350570678711

> <r_mmod_Stretch_Energy-OPLS-2005>
71.0191345214844

> <r_mmod_Bend_Energy-OPLS-2005>
163.125137329102

> <r_mmod_Torsional_Energy-OPLS-2005>
228.147750854492

> <r_mmod_Improper_Torsional_Energy-OPLS-2005>
9.41421318054199

> <r_mmod_Van_der_Waal_Energy-OPLS-2005>
150.572250366211

> <r_mmod_Electrostatic_Energy-OPLS-2005>
-662.615539550781

> <r_mmod_Solvation_Energy-OPLS-2005>
-208.361206054688

> <b_mmod_Minimization_Converged-OPLS-2005>
0

> <r_mmod_RMS_Derivative-OPLS-2005>
3.69971466064453

$$$$
35
                    3D
 Structure written by MMmdl.
178186  0  0  1  0            999 V2000
  -30.6575  -14.5672   20.4868 C   0  0  0  0  0  0
  -30.4259  -12.3462   19.4355 C   0  0  0  0  0  0
  -29.4987  -12.4878   18.2098 C   0  0  0  0  0  0
  -28.0199  -12.3441   18.6220 C   0  0  0  0  0  0
  -27.6509  -13.2127   19.8549 C   0  0  2  0  0  0
  -28.6960  -13.0583   20.9821 C   0  0  0  0  0  0
  -25.2555  -13.8161   20.5656 C   0  0  0  0  0  0
  -24.1825  -13.0430   20.9177 C   0  0  0  0  0  0
  -24.6388  -11.6899   20.8726 C   0  0  0  0  0  0
  -23.9057  -10.4283   21.0400 C   0  0  0  0  0  0
  -24.3612   -9.4200   21.9177 C   0  0  0  0  0  0
  -23.6288   -8.2234   22.0748 C   0  0  0  0  0  0
  -22.4269   -8.0271   21.3542 C   0  0  0  0  0  0
  -21.9902   -9.0241   20.4641 C   0  0  0  0  0  0
  -22.7229  -10.2121   20.3048 C   0  0  0  0  0  0
  -21.6851   -6.0727   22.5273 C   0  0  0  0  0  0
  -21.4016   -6.5634   23.8206 C   0  0  0  0  0  0
  -21.3659   -5.6787   24.9170 C   0  0  0  0  0  0
  -21.6042   -4.3048   24.7220 C   0  0  0  0  0  0
  -21.8823   -3.8139   23.4341 C   0  0  0  0  0  0
  -21.9196   -4.6955   22.3397 C   0  0  0  0  0  0
  -22.7848  -13.5223   21.1844 C   0  0  0  0  0  0
  -22.1664   -4.2140   21.0974 F   0  0  0  0  0  0
  -21.5627   -3.4534   25.7735 F   0  0  0  0  0  0
  -30.0142  -13.3669   20.4122 N   0  0  0  0  0  0
  -26.2975  -12.9339   20.3272 N   0  0  0  0  0  0
  -25.9317  -11.6495   20.5739 N   0  0  0  0  0  0
  -22.0497  -12.8210   22.0402 N   0  0  0  0  0  0
  -25.4253  -15.1879   20.4047 N   0  0  0  0  0  0
  -31.8334  -14.6984   20.1384 O   0  0  0  0  0  0
  -21.6637   -6.8867   21.4235 O   0  0  0  0  0  0
  -22.3528  -14.5529   20.6693 O   0  0  0  0  0  0
  -24.6178  -31.8637   23.2013 C   0  0  0  0  0  0
  -25.9062  -32.4794   23.8314 C   0  0  1  0  0  0
  -27.2433  -27.3824   20.1156 C   0  0  0  0  0  0
  -25.5917  -33.8597   24.2267 N   0  0  0  0  0  0
  -23.4081  -30.4818   21.5435 C   0  0  2  0  0  0
  -24.8587  -28.9291   20.1202 C   0  0  0  0  0  0
  -22.7416  -29.4643   22.4978 C   0  0  0  0  0  0
  -18.0271  -28.1381   22.8486 C   0  0  0  0  0  0
  -24.1503  -36.7298   23.2640 C   0  0  0  0  0  0
  -25.9393  -30.8141   21.3587 C   0  0  0  0  0  0
  -26.0190  -29.4391   20.7157 C   0  0  0  0  0  0
  -27.2134  -28.6757   20.7046 C   0  0  0  0  0  0
  -26.0661  -26.8932   19.5180 C   0  0  0  0  0  0
  -24.8797  -27.6571   19.5186 C   0  0  0  0  0  0
  -23.6197  -29.8004   20.1634 C   0  0  0  0  0  0
  -25.4123  -36.3091   24.0328 C   0  0  1  0  0  0
  -20.5859  -28.3676   23.1310 C   0  0  2  0  0  0
  -20.6775  -26.9411   22.5426 C   0  0  0  0  0  0
  -19.5763  -26.6378   21.5231 C   0  0  0  0  0  0
  -18.1928  -26.7925   22.1613 C   0  0  0  0  0  0
  -19.1519  -28.8847   23.2891 C   0  0  0  0  0  0
  -18.9453  -30.1450   23.8900 C   0  0  0  0  0  0
  -17.6459  -30.6595   24.0574 C   0  0  0  0  0  0
  -25.9046  -34.9459   23.5088 C   0  0  0  0  0  0
  -16.5343  -29.9089   23.6344 C   0  0  0  0  0  0
  -16.7262  -28.6507   23.0354 C   0  0  0  0  0  0
  -26.4469  -31.6582   25.0658 C   0  0  0  0  0  0
  -25.3725  -31.3693   26.1400 C   0  0  0  0  0  0
  -27.0291  -30.3024   24.6025 C   0  0  0  0  0  0
  -27.6040  -32.4318   25.7423 C   0  0  0  0  0  0
  -27.5579  -37.1794   24.8462 C   0  0  0  0  0  0
  -21.4150  -29.3034   22.3714 N   0  0  0  0  0  0
  -26.4293  -37.3782   23.9407 N   0  0  0  0  0  0
  -24.6735  -31.0687   22.0928 N   0  0  0  0  0  0
  -23.4171  -28.8201   23.3056 O   0  0  0  0  0  0
  -28.4201  -26.6485   20.0501 O   0  0  0  0  0  0
  -26.5621  -34.8942   22.4655 O   0  0  0  0  0  0
  -23.5367  -32.1413   23.7387 O   0  0  0  0  0  0
  -30.5208  -21.3187   18.4936 C   0  0  0  0  0  0
  -31.2913  -20.4361   17.7935 C   0  0  0  0  0  0
  -30.9026  -19.1310   18.2135 C   0  0  0  0  0  0
  -29.9764  -19.2526   19.2242 C   0  0  0  0  0  0
  -31.4227  -17.8407   17.6176 C   0  0  0  0  0  0
  -34.5700  -23.8971   16.0458 C   0  0  0  0  0  0
  -35.3530  -21.5069   15.9996 C   0  0  0  0  0  0
  -27.9162  -25.4790   22.1829 C   0  0  0  0  0  0
  -32.3296  -20.7664   16.7408 C   0  0  0  0  0  0
  -29.3146  -18.0790   19.9538 C   0  0  0  0  0  0
  -33.0629  -22.0980   16.9877 C   0  0  0  0  0  0
  -29.0624  -22.7891   20.7120 C   0  0  0  0  0  0
  -28.3498  -24.0384   20.0562 C   0  0  0  0  0  0
  -28.7014  -21.3290   20.2212 C   0  0  0  0  0  0
  -30.3025  -17.0839   20.6767 C   0  0  0  0  0  0
  -34.1276  -22.4325   15.9224 C   0  0  0  0  0  0
  -28.5958  -25.4088   20.8008 C   0  0  1  0  0  0
  -29.7024  -20.6364   19.3766 N   0  0  0  0  0  0
  -29.8821  -15.6525   20.7498 N   0  0  0  0  0  0
  -31.4692  -12.4549   19.1323 H   0  0  0  0  0  0
  -30.3437  -11.3501   19.8732 H   0  0  0  0  0  0
  -29.7522  -11.7382   17.4592 H   0  0  0  0  0  0
  -29.6558  -13.4590   17.7381 H   0  0  0  0  0  0
  -27.8429  -11.2914   18.8462 H   0  0  0  0  0  0
  -27.3703  -12.5873   17.7808 H   0  0  0  0  0  0
  -27.6730  -14.2487   19.5163 H   0  0  0  0  0  0
  -28.6894  -12.0404   21.3745 H   0  0  0  0  0  0
  -28.4590  -13.7080   21.8258 H   0  0  0  0  0  0
  -25.2762   -9.5673   22.4745 H   0  0  0  0  0  0
  -23.9998   -7.4623   22.7469 H   0  0  0  0  0  0
  -21.0831   -8.8751   19.8952 H   0  0  0  0  0  0
  -22.3685  -10.9652   19.6149 H   0  0  0  0  0  0
  -21.2011   -7.6143   23.9706 H   0  0  0  0  0  0
  -21.1477   -6.0518   25.9070 H   0  0  0  0  0  0
  -22.0605   -2.7603   23.2843 H   0  0  0  0  0  0
  -22.4127  -11.9884   22.4801 H   0  0  0  0  0  0
  -21.1108  -13.1223   22.2605 H   0  0  0  0  0  0
  -24.6518  -15.8369   20.5004 H   0  0  0  0  0  0
  -26.2638  -15.6250   20.0449 H   0  0  0  0  0  0
  -26.7106  -32.5490   23.1053 H   0  0  0  0  0  0
  -25.0118  -33.9757   25.0445 H   0  0  0  0  0  0
  -22.6997  -31.2991   21.3925 H   0  0  0  0  0  0
  -23.3775  -35.9627   23.3312 H   0  0  0  0  0  0
  -24.3599  -36.8921   22.2055 H   0  0  0  0  0  0
  -23.7267  -37.6506   23.6663 H   0  0  0  0  0  0
  -26.0541  -31.5715   20.5824 H   0  0  0  0  0  0
  -26.8251  -30.8750   21.9777 H   0  0  0  0  0  0
  -28.1133  -29.0678   21.1551 H   0  0  0  0  0  0
  -26.0737  -25.9222   19.0436 H   0  0  0  0  0  0
  -23.9892  -27.2566   19.0570 H   0  0  0  0  0  0
  -23.7243  -30.5665   19.3934 H   0  0  0  0  0  0
  -22.7445  -29.2159   19.8754 H   0  0  0  0  0  0
  -25.1305  -36.1935   25.0820 H   0  0  0  0  0  0
  -20.9937  -28.3250   24.1438 H   0  0  0  0  0  0
  -20.5732  -26.2266   23.3605 H   0  0  0  0  0  0
  -21.6632  -26.7508   22.1174 H   0  0  0  0  0  0
  -19.6953  -25.6301   21.1239 H   0  0  0  0  0  0
  -19.6716  -27.3210   20.6775 H   0  0  0  0  0  0
  -17.4204  -26.6707   21.3999 H   0  0  0  0  0  0
  -18.0316  -26.0070   22.8992 H   0  0  0  0  0  0
  -19.7936  -30.7268   24.2265 H   0  0  0  0  0  0
  -17.5018  -31.6287   24.5154 H   0  0  0  0  0  0
  -15.5349  -30.2990   23.7679 H   0  0  0  0  0  0
  -15.8654  -28.0836   22.7054 H   0  0  0  0  0  0
  -24.5903  -30.7037   25.7718 H   0  0  0  0  0  0
  -24.8898  -32.2846   26.4835 H   0  0  0  0  0  0
  -25.8055  -30.8855   27.0161 H   0  0  0  0  0  0
  -26.2801  -29.6797   24.1111 H   0  0  0  0  0  0
  -27.4115  -29.7254   25.4449 H   0  0  0  0  0  0
  -27.8621  -30.4352   23.9116 H   0  0  0  0  0  0
  -27.2657  -33.3645   26.1954 H   0  0  0  0  0  0
  -28.3853  -32.6848   25.0241 H   0  0  0  0  0  0
  -28.0689  -31.8462   26.5362 H   0  0  0  0  0  0
  -28.2577  -38.0102   24.7528 H   0  0  0  0  0  0
  -28.1082  -36.2635   24.6254 H   0  0  0  0  0  0
  -27.2287  -37.1400   25.8859 H   0  0  0  0  0  0
  -20.9301  -29.8721   21.6911 H   0  0  0  0  0  0
  -26.0182  -38.2857   24.1422 H   0  0  0  0  0  0
  -30.4806  -22.3977   18.4305 H   0  0  0  0  0  0
  -31.5615  -17.9419   16.5409 H   0  0  0  0  0  0
  -30.7243  -17.0177   17.7784 H   0  0  0  0  0  0
  -32.3818  -17.5664   18.0576 H   0  0  0  0  0  0
  -35.2970  -24.1568   15.2758 H   0  0  0  0  0  0
  -35.0303  -24.0917   17.0149 H   0  0  0  0  0  0
  -33.7250  -24.5774   15.9353 H   0  0  0  0  0  0
  -36.1063  -21.7951   15.2653 H   0  0  0  0  0  0
  -35.0946  -20.4676   15.7960 H   0  0  0  0  0  0
  -35.8210  -21.5487   16.9839 H   0  0  0  0  0  0
  -28.2522  -24.6765   22.8371 H   0  0  0  0  0  0
  -26.8318  -25.4053   22.1038 H   0  0  0  0  0  0
  -28.1527  -26.4138   22.6899 H   0  0  0  0  0  0
  -31.8436  -20.7837   15.7644 H   0  0  0  0  0  0
  -33.0540  -19.9519   16.7119 H   0  0  0  0  0  0
  -28.7498  -17.5166   19.2100 H   0  0  0  0  0  0
  -28.5672  -18.4367   20.6619 H   0  0  0  0  0  0
  -33.5233  -22.0902   17.9766 H   0  0  0  0  0  0
  -32.3230  -22.8992   17.0044 H   0  0  0  0  0  0
  -28.8179  -22.8054   21.7726 H   0  0  0  0  0  0
  -30.1431  -22.9340   20.6989 H   0  0  0  0  0  0
  -27.2773  -23.8552   19.9936 H   0  0  0  0  0  0
  -28.6963  -24.1291   19.0270 H   0  0  0  0  0  0
  -27.7462  -21.3295   19.6953 H   0  0  0  0  0  0
  -28.5512  -20.7104   21.1054 H   0  0  0  0  0  0
  -30.4842  -17.4475   21.6885 H   0  0  0  0  0  0
  -31.2758  -17.1346   20.1905 H   0  0  0  0  0  0
  -33.6725  -22.3120   14.9376 H   0  0  0  0  0  0
  -29.6684  -25.4220   21.0004 H   0  0  0  0  0  0
  -28.9172  -15.4685   20.9787 H   0  0  0  0  0  0
  1 25  1  0  0  0
  1 30  2  0  0  0
  1 89  1  0  0  0
  2  3  1  0  0  0
  2 25  1  0  0  0
  2 90  1  0  0  0
  2 91  1  0  0  0
  3  4  1  0  0  0
  3 92  1  0  0  0
  3 93  1  0  0  0
  4  5  1  0  0  0
  4 94  1  0  0  0
  4 95  1  0  0  0
  5  6  1  0  0  0
  5 26  1  0  0  0
  5 96  1  0  0  0
  6 25  1  0  0  0
  6 97  1  0  0  0
  6 98  1  0  0  0
  7  8  2  0  0  0
  7 26  1  0  0  0
  7 29  1  0  0  0
  8  9  1  0  0  0
  8 22  1  0  0  0
  9 10  1  0  0  0
  9 27  2  0  0  0
 10 11  2  0  0  0
 10 15  1  0  0  0
 11 12  1  0  0  0
 11 99  1  0  0  0
 12 13  2  0  0  0
 12100  1  0  0  0
 13 14  1  0  0  0
 13 31  1  0  0  0
 14 15  2  0  0  0
 14101  1  0  0  0
 15102  1  0  0  0
 16 17  2  0  0  0
 16 21  1  0  0  0
 16 31  1  0  0  0
 17 18  1  0  0  0
 17103  1  0  0  0
 18 19  2  0  0  0
 18104  1  0  0  0
 19 20  1  0  0  0
 19 24  1  0  0  0
 20 21  2  0  0  0
 20105  1  0  0  0
 21 23  1  0  0  0
 22 28  1  0  0  0
 22 32  2  0  0  0
 26 27  1  0  0  0
 28106  1  0  0  0
 28107  1  0  0  0
 29108  1  0  0  0
 29109  1  0  0  0
 33 34  1  0  0  0
 33 66  1  0  0  0
 33 70  2  0  0  0
 34 36  1  0  0  0
 34 59  1  0  0  0
 34110  1  0  0  0
 35 44  2  0  0  0
 35 45  1  0  0  0
 35 68  1  0  0  0
 36 56  1  0  0  0
 36111  1  0  0  0
 37 39  1  0  0  0
 37 47  1  0  0  0
 37 66  1  0  0  0
 37112  1  0  0  0
 38 43  2  0  0  0
 38 46  1  0  0  0
 38 47  1  0  0  0
 39 64  1  0  0  0
 39 67  2  0  0  0
 40 52  1  0  0  0
 40 53  2  0  0  0
 40 58  1  0  0  0
 41113  1  0  0  0
 41114  1  0  0  0
 41115  1  0  0  0
 41 48  1  0  0  0
 42 43  1  0  0  0
 42 66  1  0  0  0
 42116  1  0  0  0
 42117  1  0  0  0
 43 44  1  0  0  0
 44118  1  0  0  0
 45 46  2  0  0  0
 45119  1  0  0  0
 46120  1  0  0  0
 47121  1  0  0  0
 47122  1  0  0  0
 48 56  1  0  0  0
 48 65  1  0  0  0
 48123  1  0  0  0
 49 50  1  0  0  0
 49 53  1  0  0  0
 49 64  1  0  0  0
 49124  1  0  0  0
 50 51  1  0  0  0
 50125  1  0  0  0
 50126  1  0  0  0
 51 52  1  0  0  0
 51127  1  0  0  0
 51128  1  0  0  0
 52129  1  0  0  0
 52130  1  0  0  0
 53 54  1  0  0  0
 54 55  2  0  0  0
 54131  1  0  0  0
 55 57  1  0  0  0
 55132  1  0  0  0
 56 69  2  0  0  0
 57 58  2  0  0  0
 57133  1  0  0  0
 58134  1  0  0  0
 59 60  1  0  0  0
 59 61  1  0  0  0
 59 62  1  0  0  0
 60135  1  0  0  0
 60136  1  0  0  0
 60137  1  0  0  0
 61138  1  0  0  0
 61139  1  0  0  0
 61140  1  0  0  0
 62141  1  0  0  0
 62142  1  0  0  0
 62143  1  0  0  0
 63 65  1  0  0  0
 63144  1  0  0  0
 63145  1  0  0  0
 63146  1  0  0  0
 64147  1  0  0  0
 65148  1  0  0  0
 68 87  1  0  0  0
 71 72  2  0  0  0
 71 88  1  0  0  0
 71149  1  0  0  0
 72 73  1  0  0  0
 72 79  1  0  0  0
 73 74  2  0  0  0
 73 75  1  0  0  0
 74 80  1  0  0  0
 74 88  1  0  0  0
 75150  1  0  0  0
 75151  1  0  0  0
 75152  1  0  0  0
 76153  1  0  0  0
 76154  1  0  0  0
 76155  1  0  0  0
 76 86  1  0  0  0
 77 86  1  0  0  0
 77156  1  0  0  0
 77157  1  0  0  0
 77158  1  0  0  0
 78159  1  0  0  0
 78160  1  0  0  0
 78161  1  0  0  0
 78 87  1  0  0  0
 79 81  1  0  0  0
 79162  1  0  0  0
 79163  1  0  0  0
 80 85  1  0  0  0
 80164  1  0  0  0
 80165  1  0  0  0
 81 86  1  0  0  0
 81166  1  0  0  0
 81167  1  0  0  0
 82 83  1  0  0  0
 82 84  1  0  0  0
 82168  1  0  0  0
 82169  1  0  0  0
 83 87  1  0  0  0
 83170  1  0  0  0
 83171  1  0  0  0
 84 88  1  0  0  0
 84172  1  0  0  0
 84173  1  0  0  0
 85 89  1  0  0  0
 85174  1  0  0  0
 85175  1  0  0  0
 86176  1  0  0  0
 87177  1  0  0  0
 89178  1  0  0  0
M  ISO  4   1 100  68 101  87 101  89 100
M  END
> <chiral flag>
0

> <version>
0

> <s_m_source_file>
/data/baiqing/PycharmProjects/Reinvent-master-3.2/result/LINK_invent/BTK/process_docking_weight1_custom_sum_contain_oxygen_bond_distance_aromatic_linkinvent_7_9_3/rearranged_h_0097.sdf

> <i_m_source_file_index>
36

> <r_mmod_Potential_Energy-OPLS-2005>
-22.5141506195068

> <r_mmod_Stretch_Energy-OPLS-2005>
58.9863128662109

> <r_mmod_Bend_Energy-OPLS-2005>
139.3505859375

> <r_mmod_Torsional_Energy-OPLS-2005>
262.071441650391

> <r_mmod_Improper_Torsional_Energy-OPLS-2005>
5.55406141281128

> <r_mmod_Van_der_Waal_Energy-OPLS-2005>
117.410926818848

> <r_mmod_Electrostatic_Energy-OPLS-2005>
-426.382904052734

> <r_mmod_Solvation_Energy-OPLS-2005>
-205.698348999023

> <b_mmod_Minimization_Converged-OPLS-2005>
0

> <r_mmod_RMS_Derivative-OPLS-2005>
2.21922135353088

$$$$
36
                    3D
 Structure written by MMmdl.
163171  0  0  1  0            999 V2000
  -29.7354  -13.5071   21.5344 C   0  0  0  0  0  0
  -30.6679  -12.5067   19.3206 C   0  0  0  0  0  0
  -29.8268  -12.7144   17.9679 C   0  0  0  0  0  0
  -28.2776  -12.9448   18.0858 C   0  0  0  0  0  0
  -28.0611  -13.4855   19.5011 C   0  0  2  0  0  0
  -28.6272  -12.2011   20.1827 C   0  0  0  0  0  0
  -26.0083  -14.7387   20.6743 C   0  0  0  0  0  0
  -24.9405  -14.1550   21.1691 C   0  0  0  0  0  0
  -25.2922  -12.8299   20.3992 C   0  0  0  0  0  0
  -23.7799  -10.4390   20.7601 C   0  0  0  0  0  0
  -24.1527   -9.3014   21.6592 C   0  0  0  0  0  0
  -23.4652   -8.1352   21.9421 C   0  0  0  0  0  0
  -22.2555   -7.9351   21.3049 C   0  0  0  0  0  0
  -21.7586   -8.9292   20.4765 C   0  0  0  0  0  0
  -22.4509  -10.1221   20.2727 C   0  0  0  0  0  0
  -21.6292   -6.0178   22.5375 C   0  0  0  0  0  0
  -21.3714   -6.5303   23.8276 C   0  0  0  0  0  0
  -21.3572   -5.6591   24.9325 C   0  0  0  0  0  0
  -21.6096   -4.2871   24.7449 C   0  0  0  0  0  0
  -21.8958   -3.7836   23.4644 C   0  0  0  0  0  0
  -21.9052   -4.6512   22.3592 C   0  0  0  0  0  0
  -23.4809  -14.7362   21.9338 C   0  0  0  0  0  0
  -22.1573   -4.1722   21.1161 F   0  0  0  0  0  0
  -21.5670   -3.4433   25.7995 F   0  0  0  0  0  0
  -29.8741  -12.5910   20.5690 N   0  0  0  0  0  0
  -26.8038  -13.7916   20.0524 N   0  0  0  0  0  0
  -26.1100  -13.0324   19.5110 N   0  0  0  0  0  0
  -22.3917  -14.0617   22.4609 N   0  0  0  0  0  0
  -26.3135  -16.0219   20.6675 N   0  0  0  0  0  0
  -30.6162  -14.4273   21.3913 O   0  0  0  0  0  0
  -21.5286   -6.7933   21.4186 O   0  0  0  0  0  0
  -22.9113  -15.7487   21.6329 O   0  0  0  0  0  0
  -24.7189  -31.7553   23.1353 C   0  0  0  0  0  0
  -25.9679  -32.4161   23.7902 C   0  0  1  0  0  0
  -26.4528  -26.1141   20.1845 C   0  0  0  0  0  0
  -25.6122  -33.8046   24.1698 N   0  0  0  0  0  0
  -23.5156  -30.4035   21.5123 C   0  0  2  0  0  0
  -24.8255  -28.6989   20.0499 C   0  0  0  0  0  0
  -22.7760  -29.4173   22.4571 C   0  0  0  0  0  0
  -18.0341  -28.1410   22.8469 C   0  0  0  0  0  0
  -24.1532  -36.7034   23.2651 C   0  0  0  0  0  0
  -26.0948  -30.2481   21.4810 C   0  0  0  0  0  0
  -25.9997  -28.7876   20.7926 C   0  0  0  0  0  0
  -26.8361  -27.5047   20.8331 C   0  0  0  0  0  0
  -25.4555  -26.4239   19.2727 C   0  0  0  0  0  0
  -24.6467  -27.5762   19.2441 C   0  0  0  0  0  0
  -23.7434  -29.7764   20.1138 C   0  0  0  0  0  0
  -25.4193  -36.2704   24.0219 C   0  0  1  0  0  0
  -20.5976  -28.3760   23.1111 C   0  0  2  0  0  0
  -20.6781  -26.9404   22.5403 C   0  0  0  0  0  0
  -19.5751  -26.6347   21.5224 C   0  0  0  0  0  0
  -18.1946  -26.7943   22.1630 C   0  0  0  0  0  0
  -19.1608  -28.8915   23.2782 C   0  0  0  0  0  0
  -18.9508  -30.1505   23.8824 C   0  0  0  0  0  0
  -17.6497  -30.6595   24.0556 C   0  0  0  0  0  0
  -25.9214  -34.9120   23.4809 C   0  0  0  0  0  0
  -16.5392  -29.9069   23.6352 C   0  0  0  0  0  0
  -16.7325  -28.6489   23.0378 C   0  0  0  0  0  0
  -26.4693  -31.6441   25.0737 C   0  0  0  0  0  0
  -25.3654  -31.3944   26.1288 C   0  0  0  0  0  0
  -27.0668  -30.2716   24.7028 C   0  0  0  0  0  0
  -27.6039  -32.4453   25.7542 C   0  0  0  0  0  0
  -27.5561  -37.1672   24.8448 C   0  0  0  0  0  0
  -21.4396  -29.2995   22.3380 N   0  0  0  0  0  0
  -26.4252  -37.3526   23.9400 N   0  0  0  0  0  0
  -24.8165  -30.8564   22.0862 N   0  0  0  0  0  0
  -23.4158  -28.7748   23.2945 O   0  0  0  0  0  0
  -26.7627  -24.4951   20.1523 O   0  0  0  0  0  0
  -26.5883  -34.8773   22.4451 O   0  0  0  0  0  0
  -23.6193  -32.0968   23.6100 O   0  0  0  0  0  0
  -23.9626  -12.1791   22.0947 C   0  0  0  0  0  0
  -23.0994  -12.7859   20.2094 C   0  0  0  0  0  0
  -25.6768  -11.3675   22.0507 C   0  0  0  0  0  0
  -23.8663  -11.8312   18.8617 C   0  0  0  0  0  0
  -23.4789  -12.0098   17.4077 C   0  0  0  0  0  0
  -21.9848  -14.9112   18.5473 C   0  0  0  0  0  0
  -27.1528  -12.1638   22.7714 C   0  0  0  0  0  0
  -25.0241  -20.6670   19.7232 C   0  0  0  0  0  0
  -24.8224  -18.4311   19.8109 C   0  0  0  0  0  0
  -25.8793  -22.6784   20.2838 C   0  0  0  0  0  0
  -23.3128  -14.8204   19.3102 C   0  0  1  0  0  0
  -26.1002  -10.6466   20.5315 N   0  0  0  0  0  0
  -25.2611  -10.8274   19.0637 N   0  0  0  0  0  0
  -28.4763  -13.2747   22.3911 N   0  0  0  0  0  0
  -23.6986  -16.8091   19.5400 N   0  3  0  0  0  0
  -31.4950  -13.2221   19.3515 H   0  0  0  0  0  0
  -31.1391  -11.5230   19.2966 H   0  0  0  0  0  0
  -30.0119  -11.8857   17.2851 H   0  0  0  0  0  0
  -30.2566  -13.5798   17.4612 H   0  0  0  0  0  0
  -27.7207  -12.0344   17.8485 H   0  0  0  0  0  0
  -27.9549  -13.6789   17.3448 H   0  0  0  0  0  0
  -28.6219  -14.4220   19.5281 H   0  0  0  0  0  0
  -28.6909  -11.3057   19.5537 H   0  0  0  0  0  0
  -28.1432  -11.5820   20.8779 H   0  0  0  0  0  0
  -25.0846   -9.1970   22.1886 H   0  0  0  0  0  0
  -23.8941   -7.3876   22.5941 H   0  0  0  0  0  0
  -20.7957   -8.7863   20.0059 H   0  0  0  0  0  0
  -21.8689  -10.7934   19.6626 H   0  0  0  0  0  0
  -21.1603   -7.5808   23.9650 H   0  0  0  0  0  0
  -21.1335   -6.0385   25.9186 H   0  0  0  0  0  0
  -22.0952   -2.7309   23.3329 H   0  0  0  0  0  0
  -22.4097  -13.0551   22.5277 H   0  0  0  0  0  0
  -21.5514  -14.5651   22.7053 H   0  0  0  0  0  0
  -25.9721  -16.6377   21.3936 H   0  0  0  0  0  0
  -27.2258  -16.3043   20.3301 H   0  0  0  0  0  0
  -26.7732  -32.4368   23.0539 H   0  0  0  0  0  0
  -25.0109  -33.9030   24.9743 H   0  0  0  0  0  0
  -22.8637  -31.2660   21.3631 H   0  0  0  0  0  0
  -23.3799  -35.9350   23.3172 H   0  0  0  0  0  0
  -24.3601  -36.8871   22.2097 H   0  0  0  0  0  0
  -23.7304  -37.6152   23.6877 H   0  0  0  0  0  0
  -26.4281  -30.9466   20.7111 H   0  0  0  0  0  0
  -26.9170  -30.2221   22.1787 H   0  0  0  0  0  0
  -27.6944  -27.5198   21.4887 H   0  0  0  0  0  0
  -25.1340  -25.6148   18.6326 H   0  0  0  0  0  0
  -23.7914  -27.5525   18.5842 H   0  0  0  0  0  0
  -24.0164  -30.5637   19.4088 H   0  0  0  0  0  0
  -22.8046  -29.3643   19.7429 H   0  0  0  0  0  0
  -25.1429  -36.1360   25.0697 H   0  0  0  0  0  0
  -21.0080  -28.3401   24.1231 H   0  0  0  0  0  0
  -20.5635  -26.2394   23.3686 H   0  0  0  0  0  0
  -21.6632  -26.7321   22.1220 H   0  0  0  0  0  0
  -19.6893  -25.6241   21.1298 H   0  0  0  0  0  0
  -19.6689  -27.3118   20.6722 H   0  0  0  0  0  0
  -17.4221  -26.6733   21.4029 H   0  0  0  0  0  0
  -18.0293  -26.0098   22.9024 H   0  0  0  0  0  0
  -19.7985  -30.7348   24.2143 H   0  0  0  0  0  0
  -17.5042  -31.6265   24.5175 H   0  0  0  0  0  0
  -15.5381  -30.2940   23.7699 H   0  0  0  0  0  0
  -15.8735  -28.0771   22.7120 H   0  0  0  0  0  0
  -24.5874  -30.7220   25.7644 H   0  0  0  0  0  0
  -24.8811  -32.3232   26.4321 H   0  0  0  0  0  0
  -25.7746  -30.9394   27.0322 H   0  0  0  0  0  0
  -26.3337  -29.6095   24.2401 H   0  0  0  0  0  0
  -27.4211  -29.7469   25.5917 H   0  0  0  0  0  0
  -27.9328  -30.3693   24.0474 H   0  0  0  0  0  0
  -27.2494  -33.3899   26.1688 H   0  0  0  0  0  0
  -28.4038  -32.6796   25.0506 H   0  0  0  0  0  0
  -28.0501  -31.8913   26.5811 H   0  0  0  0  0  0
  -28.2449  -38.0077   24.7510 H   0  0  0  0  0  0
  -28.1173  -36.2584   24.6234 H   0  0  0  0  0  0
  -27.2275  -37.1229   25.8842 H   0  0  0  0  0  0
  -20.9675  -29.8740   21.6544 H   0  0  0  0  0  0
  -26.0005  -38.2528   24.1430 H   0  0  0  0  0  0
  -23.8689  -12.5545   23.1064 H   0  0  0  0  0  0
  -22.3982  -11.9715   17.2793 H   0  0  0  0  0  0
  -23.8484  -12.9500   17.0011 H   0  0  0  0  0  0
  -23.9145  -11.2055   16.8149 H   0  0  0  0  0  0
  -21.7472  -13.9892   18.0240 H   0  0  0  0  0  0
  -22.0034  -15.7068   17.8022 H   0  0  0  0  0  0
  -21.1622  -15.1085   19.2347 H   0  0  0  0  0  0
  -27.6822  -11.3095   23.1923 H   0  0  0  0  0  0
  -26.7060  -12.6513   23.6375 H   0  0  0  0  0  0
  -24.1131  -20.8250   20.3019 H   0  0  0  0  0  0
  -24.7089  -20.8542   18.6965 H   0  0  0  0  0  0
  -25.0458  -18.2854   20.8673 H   0  0  0  0  0  0
  -25.7268  -18.1242   19.2880 H   0  0  0  0  0  0
  -26.4598  -22.3499   21.1464 H   0  0  0  0  0  0
  -24.9595  -23.0739   20.7185 H   0  0  0  0  0  0
  -24.0624  -14.6224   18.5446 H   0  0  0  0  0  0
  -28.4052  -14.0645   23.0150 H   0  0  0  0  0  0
  -23.1609  -17.1533   18.7630 H   0  0  0  0  0  0
  -23.1137  -16.8933   20.3640 H   0  0  0  0  0  0
  1 25  1  0  0  0
  1 30  2  0  0  0
  1 84  1  0  0  0
  2  3  1  0  0  0
  2 25  1  0  0  0
  2 86  1  0  0  0
  2 87  1  0  0  0
  3  4  1  0  0  0
  3 88  1  0  0  0
  3 89  1  0  0  0
  4  5  1  0  0  0
  4 90  1  0  0  0
  4 91  1  0  0  0
  5  6  1  0  0  0
  5 26  1  0  0  0
  5 92  1  0  0  0
  6 25  1  0  0  0
  6 93  1  0  0  0
  6 94  1  0  0  0
  7  8  2  0  0  0
  7 26  1  0  0  0
  7 29  1  0  0  0
  8  9  1  0  0  0
  8 22  1  0  0  0
  9 10  1  0  0  0
  9 27  2  0  0  0
 10 11  2  0  0  0
 10 15  1  0  0  0
 11 12  1  0  0  0
 11 95  1  0  0  0
 12 13  2  0  0  0
 12 96  1  0  0  0
 13 14  1  0  0  0
 13 31  1  0  0  0
 14 15  2  0  0  0
 14 97  1  0  0  0
 15 98  1  0  0  0
 16 17  2  0  0  0
 16 21  1  0  0  0
 16 31  1  0  0  0
 17 18  1  0  0  0
 17 99  1  0  0  0
 18 19  2  0  0  0
 18100  1  0  0  0
 19 20  1  0  0  0
 19 24  1  0  0  0
 20 21  2  0  0  0
 20101  1  0  0  0
 21 23  1  0  0  0
 22 28  1  0  0  0
 22 32  2  0  0  0
 26 27  1  0  0  0
 28102  1  0  0  0
 28103  1  0  0  0
 29104  1  0  0  0
 29105  1  0  0  0
 33 34  1  0  0  0
 33 66  1  0  0  0
 33 70  2  0  0  0
 34 36  1  0  0  0
 34 59  1  0  0  0
 34106  1  0  0  0
 35 44  2  0  0  0
 35 45  1  0  0  0
 35 68  1  0  0  0
 36 56  1  0  0  0
 36107  1  0  0  0
 37 39  1  0  0  0
 37 47  1  0  0  0
 37 66  1  0  0  0
 37108  1  0  0  0
 38 43  2  0  0  0
 38 46  1  0  0  0
 38 47  1  0  0  0
 39 64  1  0  0  0
 39 67  2  0  0  0
 40 52  1  0  0  0
 40 53  2  0  0  0
 40 58  1  0  0  0
 41109  1  0  0  0
 41110  1  0  0  0
 41111  1  0  0  0
 41 48  1  0  0  0
 42 43  1  0  0  0
 42 66  1  0  0  0
 42112  1  0  0  0
 42113  1  0  0  0
 43 44  1  0  0  0
 44114  1  0  0  0
 45 46  2  0  0  0
 45115  1  0  0  0
 46116  1  0  0  0
 47117  1  0  0  0
 47118  1  0  0  0
 48 56  1  0  0  0
 48 65  1  0  0  0
 48119  1  0  0  0
 49 50  1  0  0  0
 49 53  1  0  0  0
 49 64  1  0  0  0
 49120  1  0  0  0
 50 51  1  0  0  0
 50121  1  0  0  0
 50122  1  0  0  0
 51 52  1  0  0  0
 51123  1  0  0  0
 51124  1  0  0  0
 52125  1  0  0  0
 52126  1  0  0  0
 53 54  1  0  0  0
 54 55  2  0  0  0
 54127  1  0  0  0
 55 57  1  0  0  0
 55128  1  0  0  0
 56 69  2  0  0  0
 57 58  2  0  0  0
 57129  1  0  0  0
 58130  1  0  0  0
 59 60  1  0  0  0
 59 61  1  0  0  0
 59 62  1  0  0  0
 60131  1  0  0  0
 60132  1  0  0  0
 60133  1  0  0  0
 61134  1  0  0  0
 61135  1  0  0  0
 61136  1  0  0  0
 62137  1  0  0  0
 62138  1  0  0  0
 62139  1  0  0  0
 63 65  1  0  0  0
 63140  1  0  0  0
 63141  1  0  0  0
 63142  1  0  0  0
 64143  1  0  0  0
 65144  1  0  0  0
 68 80  1  0  0  0
 71 72  2  0  0  0
 71 73  1  0  0  0
 71145  1  0  0  0
 72 74  1  0  0  0
 72 81  1  0  0  0
 73 77  1  0  0  0
 73 82  2  0  0  0
 74 75  1  0  0  0
 74 83  2  0  0  0
 75146  1  0  0  0
 75147  1  0  0  0
 75148  1  0  0  0
 76149  1  0  0  0
 76150  1  0  0  0
 76151  1  0  0  0
 76 81  1  0  0  0
 77 84  1  0  0  0
 77152  1  0  0  0
 77153  1  0  0  0
 78 79  1  0  0  0
 78 80  1  0  0  0
 78154  1  0  0  0
 78155  1  0  0  0
 79 85  1  0  0  0
 79156  1  0  0  0
 79157  1  0  0  0
 80158  1  0  0  0
 80159  1  0  0  0
 81 85  1  0  0  0
 81160  1  0  0  0
 82 83  1  0  0  0
 84161  1  0  0  0
 85162  1  0  0  0
 85163  1  0  0  0
M  CHG  1  85   1
M  ISO  4   1 100  68 101  80 101  84 100
M  END
> <chiral flag>
0

> <version>
0

> <s_m_source_file>
/data/baiqing/PycharmProjects/Reinvent-master-3.2/result/LINK_invent/BTK/process_docking_weight1_custom_sum_contain_oxygen_bond_distance_aromatic_linkinvent_7_9_3/rearranged_h_0097.sdf

> <i_m_source_file_index>
37

> <r_mmod_Potential_Energy-OPLS-2005>
19224.4453125

> <r_mmod_Stretch_Energy-OPLS-2005>
9853.232421875

> <r_mmod_Bend_Energy-OPLS-2005>
1935.443359375

> <r_mmod_Torsional_Energy-OPLS-2005>
601.48388671875

> <r_mmod_Improper_Torsional_Energy-OPLS-2005>
80.6449966430664

> <r_mmod_Van_der_Waal_Energy-OPLS-2005>
3504.87329101562

> <r_mmod_Electrostatic_Energy-OPLS-2005>
-444.219818115234

> <r_mmod_Solvation_Energy-OPLS-2005>
-465.326721191406

> <b_mmod_Minimization_Converged-OPLS-2005>
0

> <r_mmod_RMS_Derivative-OPLS-2005>
6.40280389785767

$$$$
37
                    3D
 Structure written by MMmdl.
177185  0  0  1  0            999 V2000
  -30.7282  -14.4602   20.6095 C   0  0  0  0  0  0
  -30.4171  -12.3183   19.4146 C   0  0  0  0  0  0
  -29.4865  -12.5097   18.2012 C   0  0  0  0  0  0
  -28.0109  -12.3641   18.6191 C   0  0  0  0  0  0
  -27.6585  -13.2099   19.8718 C   0  0  2  0  0  0
  -28.7006  -12.9991   20.9920 C   0  0  0  0  0  0
  -25.2577  -13.8173   20.5688 C   0  0  0  0  0  0
  -24.1827  -13.0442   20.9177 C   0  0  0  0  0  0
  -24.6385  -11.6911   20.8735 C   0  0  0  0  0  0
  -23.9058  -10.4293   21.0408 C   0  0  0  0  0  0
  -24.3610   -9.4210   21.9190 C   0  0  0  0  0  0
  -23.6285   -8.2245   22.0759 C   0  0  0  0  0  0
  -22.4272   -8.0281   21.3547 C   0  0  0  0  0  0
  -21.9907   -9.0255   20.4651 C   0  0  0  0  0  0
  -22.7231  -10.2134   20.3059 C   0  0  0  0  0  0
  -21.6847   -6.0734   22.5282 C   0  0  0  0  0  0
  -21.4012   -6.5642   23.8213 C   0  0  0  0  0  0
  -21.3659   -5.6796   24.9178 C   0  0  0  0  0  0
  -21.6042   -4.3058   24.7228 C   0  0  0  0  0  0
  -21.8820   -3.8148   23.4348 C   0  0  0  0  0  0
  -21.9191   -4.6963   22.3406 C   0  0  0  0  0  0
  -22.7852  -13.5243   21.1832 C   0  0  0  0  0  0
  -22.1660   -4.2151   21.0981 F   0  0  0  0  0  0
  -21.5629   -3.4541   25.7738 F   0  0  0  0  0  0
  -30.0300  -13.3042   20.4374 N   0  0  0  0  0  0
  -26.3007  -12.9345   20.3361 N   0  0  0  0  0  0
  -25.9312  -11.6501   20.5772 N   0  0  0  0  0  0
  -22.0487  -12.8243   22.0391 N   0  0  0  0  0  0
  -25.4315  -15.1887   20.4104 N   0  0  0  0  0  0
  -31.8299  -14.6524   20.0878 O   0  0  0  0  0  0
  -21.6635   -6.8876   21.4243 O   0  0  0  0  0  0
  -22.3544  -14.5548   20.6678 O   0  0  0  0  0  0
  -24.6161  -31.8674   23.2115 C   0  0  0  0  0  0
  -25.9044  -32.4823   23.8412 C   0  0  1  0  0  0
  -27.2255  -27.4133   20.1018 C   0  0  0  0  0  0
  -25.5895  -33.8624   24.2333 N   0  0  0  0  0  0
  -23.4045  -30.4907   21.5538 C   0  0  2  0  0  0
  -24.8480  -28.9554   20.1192 C   0  0  0  0  0  0
  -22.7424  -29.4643   22.5008 C   0  0  0  0  0  0
  -18.0272  -28.1374   22.8486 C   0  0  0  0  0  0
  -24.1481  -36.7314   23.2635 C   0  0  0  0  0  0
  -25.9364  -30.8240   21.3699 C   0  0  0  0  0  0
  -26.0106  -29.4580   20.7162 C   0  0  0  0  0  0
  -27.2034  -28.6963   20.7005 C   0  0  0  0  0  0
  -26.0460  -26.9371   19.4849 C   0  0  0  0  0  0
  -24.8616  -27.6947   19.5006 C   0  0  0  0  0  0
  -23.6121  -29.8245   20.1687 C   0  0  0  0  0  0
  -25.4102  -36.3108   24.0340 C   0  0  1  0  0  0
  -20.5864  -28.3653   23.1317 C   0  0  2  0  0  0
  -20.6758  -26.9389   22.5412 C   0  0  0  0  0  0
  -19.5740  -26.6377   21.5203 C   0  0  0  0  0  0
  -18.1918  -26.7924   22.1616 C   0  0  0  0  0  0
  -19.1521  -28.8831   23.2898 C   0  0  0  0  0  0
  -18.9451  -30.1442   23.8906 C   0  0  0  0  0  0
  -17.6454  -30.6581   24.0554 C   0  0  0  0  0  0
  -25.9034  -34.9476   23.5131 C   0  0  0  0  0  0
  -16.5341  -29.9080   23.6326 C   0  0  0  0  0  0
  -16.7262  -28.6498   23.0345 C   0  0  0  0  0  0
  -26.4468  -31.6618   25.0753 C   0  0  0  0  0  0
  -25.3719  -31.3721   26.1494 C   0  0  0  0  0  0
  -27.0320  -30.3063   24.6150 C   0  0  0  0  0  0
  -27.6052  -32.4351   25.7497 C   0  0  0  0  0  0
  -27.5592  -37.1799   24.8459 C   0  0  0  0  0  0
  -21.4151  -29.3023   22.3734 N   0  0  0  0  0  0
  -26.4287  -37.3796   23.9421 N   0  0  0  0  0  0
  -24.6707  -31.0754   22.1032 N   0  0  0  0  0  0
  -23.4193  -28.8172   23.3040 O   0  0  0  0  0  0
  -28.3929  -26.6725   20.0973 O   0  0  0  0  0  0
  -26.5599  -34.8920   22.4696 O   0  0  0  0  0  0
  -23.5347  -32.1442   23.7493 O   0  0  0  0  0  0
  -29.0957  -18.5116   21.8960 C   0  0  0  0  0  0
  -31.1344  -18.8067   20.6417 C   0  0  0  0  0  0
  -30.3105  -17.9811   21.4272 C   0  0  0  0  0  0
  -28.7598  -19.8719   21.6818 C   0  0  0  0  0  0
  -30.8174  -20.1649   20.3966 C   0  0  0  0  0  0
  -29.6417  -20.7472   20.9711 C   0  0  0  0  0  0
  -27.4617  -20.3640   22.3067 C   0  0  0  0  0  0
  -31.8393  -20.4202   18.0899 C   0  0  0  0  0  0
  -30.4184  -22.9443   21.9247 C   0  0  0  0  0  0
  -28.7314  -22.5895   17.1832 C   0  0  0  0  0  0
  -26.8653  -22.6293   18.8877 C   0  0  0  0  0  0
  -31.8211  -20.9303   19.5376 C   0  0  0  0  0  0
  -30.8118  -16.6052   21.8876 C   0  0  0  0  0  0
  -29.3515  -24.4639   19.5804 C   0  0  0  0  0  0
  -28.2963  -25.2611   20.3971 C   0  0  0  0  0  0
  -29.3874  -22.2904   20.9735 C   0  0  1  0  0  0
  -28.3507  -22.3036   18.6496 C   0  0  0  0  0  0
  -30.1369  -15.4129   21.3540 N   0  0  0  0  0  0
  -29.2974  -22.9514   19.6196 N   0  3  1  0  0  0
  -31.4599  -12.4169   19.1077 H   0  0  0  0  0  0
  -30.3217  -11.3080   19.8159 H   0  0  0  0  0  0
  -29.7260  -11.7840   17.4226 H   0  0  0  0  0  0
  -29.6493  -13.4960   17.7630 H   0  0  0  0  0  0
  -27.8274  -11.3085   18.8233 H   0  0  0  0  0  0
  -27.3551  -12.6303   17.7893 H   0  0  0  0  0  0
  -27.7016  -14.2571   19.5696 H   0  0  0  0  0  0
  -28.6796  -11.9651   21.3386 H   0  0  0  0  0  0
  -28.4539  -13.6021   21.8664 H   0  0  0  0  0  0
  -25.2754   -9.5684   22.4768 H   0  0  0  0  0  0
  -23.9992   -7.4639   22.7483 H   0  0  0  0  0  0
  -21.0837   -8.8774   19.8957 H   0  0  0  0  0  0
  -22.3693  -10.9673   19.6168 H   0  0  0  0  0  0
  -21.2005   -7.6151   23.9718 H   0  0  0  0  0  0
  -21.1480   -6.0526   25.9079 H   0  0  0  0  0  0
  -22.0598   -2.7611   23.2849 H   0  0  0  0  0  0
  -22.4089  -11.9895   22.4772 H   0  0  0  0  0  0
  -21.1113  -13.1290   22.2598 H   0  0  0  0  0  0
  -24.6699  -15.8489   20.5220 H   0  0  0  0  0  0
  -26.2915  -15.6255   20.1023 H   0  0  0  0  0  0
  -26.7115  -32.5514   23.1172 H   0  0  0  0  0  0
  -25.0025  -33.9780   25.0465 H   0  0  0  0  0  0
  -22.6927  -31.3076   21.4168 H   0  0  0  0  0  0
  -23.3748  -35.9641   23.3284 H   0  0  0  0  0  0
  -24.3576  -36.8952   22.2055 H   0  0  0  0  0  0
  -23.7226  -37.6506   23.6671 H   0  0  0  0  0  0
  -26.0538  -31.5868   20.5998 H   0  0  0  0  0  0
  -26.8235  -30.8751   21.9896 H   0  0  0  0  0  0
  -28.1027  -29.0818   21.1604 H   0  0  0  0  0  0
  -26.0246  -25.9868   18.9728 H   0  0  0  0  0  0
  -23.9698  -27.3060   19.0286 H   0  0  0  0  0  0
  -23.7231  -30.5998   19.4100 H   0  0  0  0  0  0
  -22.7343  -29.2467   19.8722 H   0  0  0  0  0  0
  -25.1276  -36.1969   25.0832 H   0  0  0  0  0  0
  -20.9950  -28.3213   24.1439 H   0  0  0  0  0  0
  -20.5653  -26.2259   23.3595 H   0  0  0  0  0  0
  -21.6628  -26.7423   22.1210 H   0  0  0  0  0  0
  -19.6894  -25.6288   21.1232 H   0  0  0  0  0  0
  -19.6685  -27.3179   20.6730 H   0  0  0  0  0  0
  -17.4190  -26.6669   21.4015 H   0  0  0  0  0  0
  -18.0318  -26.0066   22.9009 H   0  0  0  0  0  0
  -19.7924  -30.7250   24.2287 H   0  0  0  0  0  0
  -17.5006  -31.6267   24.5146 H   0  0  0  0  0  0
  -15.5341  -30.2977   23.7659 H   0  0  0  0  0  0
  -15.8661  -28.0819   22.7057 H   0  0  0  0  0  0
  -24.5884  -30.7084   25.7815 H   0  0  0  0  0  0
  -24.8901  -32.2870   26.4957 H   0  0  0  0  0  0
  -25.8053  -30.8866   27.0248 H   0  0  0  0  0  0
  -26.2883  -29.6808   24.1196 H   0  0  0  0  0  0
  -27.4082  -29.7318   25.4626 H   0  0  0  0  0  0
  -27.8723  -30.4396   23.9331 H   0  0  0  0  0  0
  -27.2692  -33.3651   26.2095 H   0  0  0  0  0  0
  -28.3836  -32.6918   25.0299 H   0  0  0  0  0  0
  -28.0761  -31.8471   26.5384 H   0  0  0  0  0  0
  -28.2580  -38.0125   24.7553 H   0  0  0  0  0  0
  -28.1121  -36.2659   24.6231 H   0  0  0  0  0  0
  -27.2318  -37.1384   25.8862 H   0  0  0  0  0  0
  -20.9323  -29.8762   21.6961 H   0  0  0  0  0  0
  -26.0178  -38.2869   24.1448 H   0  0  0  0  0  0
  -28.4518  -17.8845   22.4980 H   0  0  0  0  0  0
  -32.0652  -18.4050   20.2635 H   0  0  0  0  0  0
  -26.8967  -19.5458   22.7551 H   0  0  0  0  0  0
  -26.8155  -20.8218   21.5587 H   0  0  0  0  0  0
  -27.6622  -21.0883   23.0965 H   0  0  0  0  0  0
  -32.5177  -21.0137   17.4764 H   0  0  0  0  0  0
  -30.8495  -20.4638   17.6365 H   0  0  0  0  0  0
  -32.1738  -19.3838   18.0367 H   0  0  0  0  0  0
  -30.3983  -22.4426   22.8926 H   0  0  0  0  0  0
  -30.2191  -23.9937   22.1277 H   0  0  0  0  0  0
  -31.4400  -22.8739   21.5573 H   0  0  0  0  0  0
  -28.1756  -21.9353   16.5106 H   0  0  0  0  0  0
  -29.7908  -22.4216   16.9926 H   0  0  0  0  0  0
  -28.4988  -23.6114   16.8847 H   0  0  0  0  0  0
  -26.2351  -21.9468   18.3168 H   0  0  0  0  0  0
  -26.6125  -23.6329   18.5488 H   0  0  0  0  0  0
  -26.5762  -22.5303   19.9326 H   0  0  0  0  0  0
  -32.8124  -20.7967   19.9732 H   0  0  0  0  0  0
  -31.6602  -22.0033   19.5338 H   0  0  0  0  0  0
  -30.7030  -16.5697   22.9722 H   0  0  0  0  0  0
  -31.8897  -16.5508   21.7225 H   0  0  0  0  0  0
  -30.3402  -24.7798   19.9128 H   0  0  0  0  0  0
  -29.3010  -24.8064   18.5491 H   0  0  0  0  0  0
  -28.4696  -25.1474   21.4653 H   0  0  0  0  0  0
  -27.3030  -24.8562   20.2439 H   0  0  0  0  0  0
  -28.4210  -22.4936   21.4271 H   0  0  0  0  0  0
  -28.4549  -21.2242   18.7624 H   0  0  0  0  0  0
  -29.2175  -15.2056   21.7114 H   0  0  0  0  0  0
  -30.1890  -22.6963   19.2215 H   0  0  0  0  0  0
  1 25  1  0  0  0
  1 30  2  0  0  0
  1 88  1  0  0  0
  2  3  1  0  0  0
  2 25  1  0  0  0
  2 90  1  0  0  0
  2 91  1  0  0  0
  3  4  1  0  0  0
  3 92  1  0  0  0
  3 93  1  0  0  0
  4  5  1  0  0  0
  4 94  1  0  0  0
  4 95  1  0  0  0
  5  6  1  0  0  0
  5 26  1  0  0  0
  5 96  1  0  0  0
  6 25  1  0  0  0
  6 97  1  0  0  0
  6 98  1  0  0  0
  7  8  2  0  0  0
  7 26  1  0  0  0
  7 29  1  0  0  0
  8  9  1  0  0  0
  8 22  1  0  0  0
  9 10  1  0  0  0
  9 27  2  0  0  0
 10 11  2  0  0  0
 10 15  1  0  0  0
 11 12  1  0  0  0
 11 99  1  0  0  0
 12 13  2  0  0  0
 12100  1  0  0  0
 13 14  1  0  0  0
 13 31  1  0  0  0
 14 15  2  0  0  0
 14101  1  0  0  0
 15102  1  0  0  0
 16 17  2  0  0  0
 16 21  1  0  0  0
 16 31  1  0  0  0
 17 18  1  0  0  0
 17103  1  0  0  0
 18 19  2  0  0  0
 18104  1  0  0  0
 19 20  1  0  0  0
 19 24  1  0  0  0
 20 21  2  0  0  0
 20105  1  0  0  0
 21 23  1  0  0  0
 22 28  1  0  0  0
 22 32  2  0  0  0
 26 27  1  0  0  0
 28106  1  0  0  0
 28107  1  0  0  0
 29108  1  0  0  0
 29109  1  0  0  0
 33 34  1  0  0  0
 33 66  1  0  0  0
 33 70  2  0  0  0
 34 36  1  0  0  0
 34 59  1  0  0  0
 34110  1  0  0  0
 35 44  2  0  0  0
 35 45  1  0  0  0
 35 68  1  0  0  0
 36 56  1  0  0  0
 36111  1  0  0  0
 37 39  1  0  0  0
 37 47  1  0  0  0
 37 66  1  0  0  0
 37112  1  0  0  0
 38 43  2  0  0  0
 38 46  1  0  0  0
 38 47  1  0  0  0
 39 64  1  0  0  0
 39 67  2  0  0  0
 40 52  1  0  0  0
 40 53  2  0  0  0
 40 58  1  0  0  0
 41113  1  0  0  0
 41114  1  0  0  0
 41115  1  0  0  0
 41 48  1  0  0  0
 42 43  1  0  0  0
 42 66  1  0  0  0
 42116  1  0  0  0
 42117  1  0  0  0
 43 44  1  0  0  0
 44118  1  0  0  0
 45 46  2  0  0  0
 45119  1  0  0  0
 46120  1  0  0  0
 47121  1  0  0  0
 47122  1  0  0  0
 48 56  1  0  0  0
 48 65  1  0  0  0
 48123  1  0  0  0
 49 50  1  0  0  0
 49 53  1  0  0  0
 49 64  1  0  0  0
 49124  1  0  0  0
 50 51  1  0  0  0
 50125  1  0  0  0
 50126  1  0  0  0
 51 52  1  0  0  0
 51127  1  0  0  0
 51128  1  0  0  0
 52129  1  0  0  0
 52130  1  0  0  0
 53 54  1  0  0  0
 54 55  2  0  0  0
 54131  1  0  0  0
 55 57  1  0  0  0
 55132  1  0  0  0
 56 69  2  0  0  0
 57 58  2  0  0  0
 57133  1  0  0  0
 58134  1  0  0  0
 59 60  1  0  0  0
 59 61  1  0  0  0
 59 62  1  0  0  0
 60135  1  0  0  0
 60136  1  0  0  0
 60137  1  0  0  0
 61138  1  0  0  0
 61139  1  0  0  0
 61140  1  0  0  0
 62141  1  0  0  0
 62142  1  0  0  0
 62143  1  0  0  0
 63 65  1  0  0  0
 63144  1  0  0  0
 63145  1  0  0  0
 63146  1  0  0  0
 64147  1  0  0  0
 65148  1  0  0  0
 68 85  1  0  0  0
 71 73  2  0  0  0
 71 74  1  0  0  0
 71149  1  0  0  0
 72 73  1  0  0  0
 72 75  2  0  0  0
 72150  1  0  0  0
 73 83  1  0  0  0
 74 76  2  0  0  0
 74 77  1  0  0  0
 75 76  1  0  0  0
 75 82  1  0  0  0
 76 86  1  0  0  0
 77151  1  0  0  0
 77152  1  0  0  0
 77153  1  0  0  0
 78 82  1  0  0  0
 78154  1  0  0  0
 78155  1  0  0  0
 78156  1  0  0  0
 79157  1  0  0  0
 79158  1  0  0  0
 79159  1  0  0  0
 79 86  1  0  0  0
 80160  1  0  0  0
 80161  1  0  0  0
 80162  1  0  0  0
 80 87  1  0  0  0
 81 87  1  0  0  0
 81163  1  0  0  0
 81164  1  0  0  0
 81165  1  0  0  0
 82166  1  0  0  0
 82167  1  0  0  0
 83 88  1  0  0  0
 83168  1  0  0  0
 83169  1  0  0  0
 84 85  1  0  0  0
 84170  1  0  0  0
 84171  1  0  0  0
 84 89  1  0  0  0
 85172  1  0  0  0
 85173  1  0  0  0
 86 89  1  0  0  0
 86174  1  0  0  0
 87 89  1  0  0  0
 87175  1  0  0  0
 88176  1  0  0  0
 89177  1  0  0  0
M  CHG  1  89   1
M  ISO  4   1 100  68 101  85 101  88 100
M  END
> <chiral flag>
0

> <version>
0

> <s_m_source_file>
/data/baiqing/PycharmProjects/Reinvent-master-3.2/result/LINK_invent/BTK/process_docking_weight1_custom_sum_contain_oxygen_bond_distance_aromatic_linkinvent_7_9_3/rearranged_h_0097.sdf

> <i_m_source_file_index>
38

> <r_mmod_Potential_Energy-OPLS-2005>
-128.093460083008

> <r_mmod_Stretch_Energy-OPLS-2005>
51.4001159667969

> <r_mmod_Bend_Energy-OPLS-2005>
130.845474243164

> <r_mmod_Torsional_Energy-OPLS-2005>
233.592437744141

> <r_mmod_Improper_Torsional_Energy-OPLS-2005>
3.35050535202026

> <r_mmod_Van_der_Waal_Energy-OPLS-2005>
157.082321166992

> <r_mmod_Electrostatic_Energy-OPLS-2005>
-321.052001953125

> <r_mmod_Solvation_Energy-OPLS-2005>
-396.270843505859

> <b_mmod_Minimization_Converged-OPLS-2005>
0

> <r_mmod_RMS_Derivative-OPLS-2005>
1.11277496814728

$$$$
38
                    3D
 Structure written by MMmdl.
161168  0  0  1  0            999 V2000
  -30.3398  -15.5362   20.3188 C   0  0  0  0  0  0
  -30.4335  -12.9858   19.5726 C   0  0  0  0  0  0
  -29.5705  -12.6453   18.3268 C   0  0  0  0  0  0
  -28.1328  -12.3070   18.7513 C   0  0  0  0  0  0
  -27.6096  -13.2989   19.8182 C   0  0  2  0  0  0
  -28.6159  -13.6032   20.9514 C   0  0  0  0  0  0
  -25.2386  -13.8248   20.5670 C   0  0  0  0  0  0
  -24.1764  -13.0413   20.9174 C   0  0  0  0  0  0
  -24.6433  -11.6924   20.8667 C   0  0  0  0  0  0
  -23.9089  -10.4286   21.0333 C   0  0  0  0  0  0
  -24.3627   -9.4226   21.9142 C   0  0  0  0  0  0
  -23.6277   -8.2273   22.0769 C   0  0  0  0  0  0
  -22.4271   -8.0280   21.3552 C   0  0  0  0  0  0
  -21.9891   -9.0240   20.4648 C   0  0  0  0  0  0
  -22.7233  -10.2119   20.3021 C   0  0  0  0  0  0
  -21.6868   -6.0692   22.5255 C   0  0  0  0  0  0
  -21.4023   -6.5592   23.8168 C   0  0  0  0  0  0
  -21.3682   -5.6774   24.9138 C   0  0  0  0  0  0
  -21.6061   -4.3030   24.7213 C   0  0  0  0  0  0
  -21.8828   -3.8104   23.4340 C   0  0  0  0  0  0
  -21.9201   -4.6909   22.3377 C   0  0  0  0  0  0
  -22.7783  -13.5187   21.1796 C   0  0  0  0  0  0
  -22.1660   -4.2089   21.0973 F   0  0  0  0  0  0
  -21.5645   -3.4533   25.7732 F   0  0  0  0  0  0
  -29.8260  -14.1739   20.3227 N   0  0  0  0  0  0
  -26.2834  -12.9579   20.3154 N   0  0  0  0  0  0
  -25.9396  -11.6658   20.5639 N   0  0  0  0  0  0
  -22.0432  -12.8204   22.0369 N   0  0  0  0  0  0
  -25.3899  -15.1998   20.4096 N   0  0  0  0  0  0
  -31.5531  -15.5026   20.0504 O   0  0  0  0  0  0
  -21.6659   -6.8855   21.4224 O   0  0  0  0  0  0
  -22.3471  -14.5466   20.6611 O   0  0  0  0  0  0
  -24.6866  -31.8001   23.1478 C   0  0  0  0  0  0
  -25.9407  -32.4468   23.8047 C   0  0  1  0  0  0
  -27.2573  -26.7422   20.2290 C   0  0  0  0  0  0
  -25.5987  -33.8296   24.1953 N   0  0  0  0  0  0
  -23.5161  -30.3992   21.5019 C   0  0  2  0  0  0
  -24.9765  -28.7389   20.1265 C   0  0  0  0  0  0
  -22.7799  -29.4274   22.4695 C   0  0  0  0  0  0
  -18.0350  -28.1415   22.8412 C   0  0  0  0  0  0
  -24.1485  -36.7187   23.2660 C   0  0  0  0  0  0
  -26.0946  -30.5506   21.4023 C   0  0  0  0  0  0
  -26.1681  -29.1140   20.7635 C   0  0  0  0  0  0
  -27.2986  -28.1491   20.7697 C   0  0  0  0  0  0
  -26.0288  -26.5579   19.5440 C   0  0  0  0  0  0
  -24.9425  -27.4833   19.4949 C   0  0  0  0  0  0
  -23.7741  -29.6928   20.1394 C   0  0  0  0  0  0
  -25.4120  -36.2908   24.0302 C   0  0  1  0  0  0
  -20.5993  -28.3763   23.1133 C   0  0  2  0  0  0
  -20.6805  -26.9431   22.5393 C   0  0  0  0  0  0
  -19.5778  -26.6374   21.5190 C   0  0  0  0  0  0
  -18.1949  -26.7930   22.1584 C   0  0  0  0  0  0
  -19.1608  -28.8898   23.2742 C   0  0  0  0  0  0
  -18.9535  -30.1480   23.8815 C   0  0  0  0  0  0
  -17.6521  -30.6591   24.0533 C   0  0  0  0  0  0
  -25.9111  -34.9284   23.4960 C   0  0  0  0  0  0
  -16.5405  -29.9072   23.6345 C   0  0  0  0  0  0
  -16.7322  -28.6506   23.0306 C   0  0  0  0  0  0
  -26.4608  -31.6472   25.0669 C   0  0  0  0  0  0
  -25.3668  -31.3763   26.1264 C   0  0  0  0  0  0
  -27.0537  -30.2820   24.6499 C   0  0  0  0  0  0
  -27.6072  -32.4323   25.7482 C   0  0  0  0  0  0
  -27.5542  -37.1728   24.8469 C   0  0  0  0  0  0
  -21.4430  -29.3030   22.3453 N   0  0  0  0  0  0
  -26.4255  -37.3661   23.9417 N   0  0  0  0  0  0
  -24.7888  -30.9483   22.0722 N   0  0  0  0  0  0
  -23.4213  -28.7844   23.3025 O   0  0  0  0  0  0
  -28.2753  -25.5806   20.2181 O   0  0  0  0  0  0
  -26.5774  -34.8868   22.4593 O   0  0  0  0  0  0
  -23.5887  -32.1013   23.6473 O   0  0  0  0  0  0
  -28.6239  -19.9310   23.0108 C   0  0  0  0  0  0
  -32.7232  -21.4272   22.7254 C   0  0  0  0  0  0
  -33.4208  -19.3232   21.6557 C   0  0  0  0  0  0
  -28.8492  -22.1454   19.9962 C   0  0  0  0  0  0
  -29.4786  -18.5559   19.9300 C   0  0  0  0  0  0
  -31.0765  -19.6232   22.3964 C   0  0  0  0  0  0
  -28.2457  -23.8732   20.5958 C   0  0  0  0  0  0
  -29.7542  -20.3975   22.0845 C   0  0  1  0  0  0
  -29.3526  -20.3626   20.5836 C   0  0  2  0  0  0
  -29.5692  -16.8709   20.4438 N   0  0  0  0  0  0
  -32.3071  -20.2827   21.8805 N   0  3  0  0  0  0
  -31.4595  -13.1906   19.2590 H   0  0  0  0  0  0
  -30.5101  -12.1096   20.2190 H   0  0  0  0  0  0
  -30.0080  -11.8163   17.7709 H   0  0  0  0  0  0
  -29.5650  -13.5032   17.6502 H   0  0  0  0  0  0
  -28.1377  -11.2948   19.1562 H   0  0  0  0  0  0
  -27.4750  -12.2824   17.8819 H   0  0  0  0  0  0
  -27.4881  -14.2343   19.2693 H   0  0  0  0  0  0
  -28.8307  -12.7199   21.5557 H   0  0  0  0  0  0
  -28.1939  -14.3467   21.6318 H   0  0  0  0  0  0
  -25.2778   -9.5714   22.4702 H   0  0  0  0  0  0
  -23.9946   -7.4717   22.7569 H   0  0  0  0  0  0
  -21.0773   -8.8762   19.9003 H   0  0  0  0  0  0
  -22.3636  -10.9642   19.6117 H   0  0  0  0  0  0
  -21.2001   -7.6106   23.9645 H   0  0  0  0  0  0
  -21.1504   -6.0504   25.9044 H   0  0  0  0  0  0
  -22.0584   -2.7553   23.2856 H   0  0  0  0  0  0
  -22.4036  -11.9848   22.4780 H   0  0  0  0  0  0
  -21.1076  -13.1288   22.2604 H   0  0  0  0  0  0
  -24.5885  -15.8176   20.4735 H   0  0  0  0  0  0
  -26.2202  -15.6648   20.0644 H   0  0  0  0  0  0
  -26.7506  -32.4959   23.0772 H   0  0  0  0  0  0
  -25.0035  -33.9336   25.0032 H   0  0  0  0  0  0
  -22.8479  -31.2362   21.3032 H   0  0  0  0  0  0
  -23.3757  -35.9506   23.3280 H   0  0  0  0  0  0
  -24.3582  -36.8897   22.2084 H   0  0  0  0  0  0
  -23.7259  -37.6362   23.6774 H   0  0  0  0  0  0
  -26.2772  -31.2717   20.6048 H   0  0  0  0  0  0
  -26.9541  -30.6274   22.0549 H   0  0  0  0  0  0
  -28.2126  -28.4580   21.2600 H   0  0  0  0  0  0
  -25.8828  -25.6117   19.0394 H   0  0  0  0  0  0
  -24.0452  -27.1846   18.9674 H   0  0  0  0  0  0
  -23.9618  -30.4538   19.3819 H   0  0  0  0  0  0
  -22.8818  -29.1593   19.8066 H   0  0  0  0  0  0
  -25.1319  -36.1670   25.0799 H   0  0  0  0  0  0
  -21.0045  -28.3369   24.1253 H   0  0  0  0  0  0
  -20.5644  -26.2384   23.3645 H   0  0  0  0  0  0
  -21.6658  -26.7338   22.1203 H   0  0  0  0  0  0
  -19.6968  -25.6273   21.1237 H   0  0  0  0  0  0
  -19.6741  -27.3147   20.6706 H   0  0  0  0  0  0
  -17.4229  -26.6685   21.3972 H   0  0  0  0  0  0
  -18.0307  -26.0084   22.9005 H   0  0  0  0  0  0
  -19.8029  -30.7273   24.2155 H   0  0  0  0  0  0
  -17.5098  -31.6249   24.5164 H   0  0  0  0  0  0
  -15.5400  -30.2937   23.7738 H   0  0  0  0  0  0
  -15.8728  -28.0829   22.7028 H   0  0  0  0  0  0
  -24.5936  -30.7049   25.7524 H   0  0  0  0  0  0
  -24.8771  -32.2958   26.4474 H   0  0  0  0  0  0
  -25.7822  -30.9055   27.0186 H   0  0  0  0  0  0
  -26.3229  -29.6424   24.1548 H   0  0  0  0  0  0
  -27.4038  -29.7267   25.5228 H   0  0  0  0  0  0
  -27.9176  -30.3975   23.9953 H   0  0  0  0  0  0
  -27.2676  -33.3738   26.1794 H   0  0  0  0  0  0
  -28.3996  -32.6678   25.0367 H   0  0  0  0  0  0
  -28.0595  -31.8609   26.5599 H   0  0  0  0  0  0
  -28.2505  -38.0060   24.7476 H   0  0  0  0  0  0
  -28.1067  -36.2577   24.6309 H   0  0  0  0  0  0
  -27.2263  -37.1378   25.8871 H   0  0  0  0  0  0
  -20.9749  -29.8835   21.6622 H   0  0  0  0  0  0
  -26.0085  -38.2715   24.1435 H   0  0  0  0  0  0
  -28.8644  -20.1778   24.0480 H   0  0  0  0  0  0
  -28.4698  -18.8534   22.9559 H   0  0  0  0  0  0
  -27.6851  -20.4322   22.7720 H   0  0  0  0  0  0
  -33.6924  -21.8306   22.4303 H   0  0  0  0  0  0
  -32.7867  -21.1295   23.7744 H   0  0  0  0  0  0
  -32.0083  -22.2463   22.6518 H   0  0  0  0  0  0
  -34.3070  -19.8259   21.2653 H   0  0  0  0  0  0
  -33.1438  -18.5664   20.9186 H   0  0  0  0  0  0
  -33.7011  -18.8149   22.5793 H   0  0  0  0  0  0
  -29.7793  -22.4648   19.5231 H   0  0  0  0  0  0
  -28.2037  -21.9565   19.1357 H   0  0  0  0  0  0
  -30.3102  -18.6039   19.2254 H   0  0  0  0  0  0
  -28.6122  -18.5123   19.2654 H   0  0  0  0  0  0
  -31.0157  -18.6079   22.0070 H   0  0  0  0  0  0
  -31.1931  -19.4896   23.4727 H   0  0  0  0  0  0
  -28.7475  -23.9335   21.5652 H   0  0  0  0  0  0
  -27.2060  -23.7068   20.8752 H   0  0  0  0  0  0
  -29.9113  -21.4449   22.3408 H   0  0  0  0  0  0
  -30.3343  -20.5451   20.1523 H   0  0  0  0  0  0
  -28.6465  -16.6046   20.7629 H   0  0  0  0  0  0
  -32.0862  -20.6542   20.9672 H   0  0  0  0  0  0
  1 25  1  0  0  0
  1 30  2  0  0  0
  1 80  1  0  0  0
  2  3  1  0  0  0
  2 25  1  0  0  0
  2 82  1  0  0  0
  2 83  1  0  0  0
  3  4  1  0  0  0
  3 84  1  0  0  0
  3 85  1  0  0  0
  4  5  1  0  0  0
  4 86  1  0  0  0
  4 87  1  0  0  0
  5  6  1  0  0  0
  5 26  1  0  0  0
  5 88  1  0  0  0
  6 25  1  0  0  0
  6 89  1  0  0  0
  6 90  1  0  0  0
  7  8  2  0  0  0
  7 26  1  0  0  0
  7 29  1  0  0  0
  8  9  1  0  0  0
  8 22  1  0  0  0
  9 10  1  0  0  0
  9 27  2  0  0  0
 10 11  2  0  0  0
 10 15  1  0  0  0
 11 12  1  0  0  0
 11 91  1  0  0  0
 12 13  2  0  0  0
 12 92  1  0  0  0
 13 14  1  0  0  0
 13 31  1  0  0  0
 14 15  2  0  0  0
 14 93  1  0  0  0
 15 94  1  0  0  0
 16 17  2  0  0  0
 16 21  1  0  0  0
 16 31  1  0  0  0
 17 18  1  0  0  0
 17 95  1  0  0  0
 18 19  2  0  0  0
 18 96  1  0  0  0
 19 20  1  0  0  0
 19 24  1  0  0  0
 20 21  2  0  0  0
 20 97  1  0  0  0
 21 23  1  0  0  0
 22 28  1  0  0  0
 22 32  2  0  0  0
 26 27  1  0  0  0
 28 98  1  0  0  0
 28 99  1  0  0  0
 29100  1  0  0  0
 29101  1  0  0  0
 33 34  1  0  0  0
 33 66  1  0  0  0
 33 70  2  0  0  0
 34 36  1  0  0  0
 34 59  1  0  0  0
 34102  1  0  0  0
 35 44  2  0  0  0
 35 45  1  0  0  0
 35 68  1  0  0  0
 36 56  1  0  0  0
 36103  1  0  0  0
 37 39  1  0  0  0
 37 47  1  0  0  0
 37 66  1  0  0  0
 37104  1  0  0  0
 38 43  2  0  0  0
 38 46  1  0  0  0
 38 47  1  0  0  0
 39 64  1  0  0  0
 39 67  2  0  0  0
 40 52  1  0  0  0
 40 53  2  0  0  0
 40 58  1  0  0  0
 41105  1  0  0  0
 41106  1  0  0  0
 41107  1  0  0  0
 41 48  1  0  0  0
 42 43  1  0  0  0
 42 66  1  0  0  0
 42108  1  0  0  0
 42109  1  0  0  0
 43 44  1  0  0  0
 44110  1  0  0  0
 45 46  2  0  0  0
 45111  1  0  0  0
 46112  1  0  0  0
 47113  1  0  0  0
 47114  1  0  0  0
 48 56  1  0  0  0
 48 65  1  0  0  0
 48115  1  0  0  0
 49 50  1  0  0  0
 49 53  1  0  0  0
 49 64  1  0  0  0
 49116  1  0  0  0
 50 51  1  0  0  0
 50117  1  0  0  0
 50118  1  0  0  0
 51 52  1  0  0  0
 51119  1  0  0  0
 51120  1  0  0  0
 52121  1  0  0  0
 52122  1  0  0  0
 53 54  1  0  0  0
 54 55  2  0  0  0
 54123  1  0  0  0
 55 57  1  0  0  0
 55124  1  0  0  0
 56 69  2  0  0  0
 57 58  2  0  0  0
 57125  1  0  0  0
 58126  1  0  0  0
 59 60  1  0  0  0
 59 61  1  0  0  0
 59 62  1  0  0  0
 60127  1  0  0  0
 60128  1  0  0  0
 60129  1  0  0  0
 61130  1  0  0  0
 61131  1  0  0  0
 61132  1  0  0  0
 62133  1  0  0  0
 62134  1  0  0  0
 62135  1  0  0  0
 63 65  1  0  0  0
 63136  1  0  0  0
 63137  1  0  0  0
 63138  1  0  0  0
 64139  1  0  0  0
 65140  1  0  0  0
 68 77  1  0  0  0
 71141  1  0  0  0
 71142  1  0  0  0
 71143  1  0  0  0
 71 78  1  0  0  0
 72144  1  0  0  0
 72145  1  0  0  0
 72146  1  0  0  0
 72 81  1  0  0  0
 73 81  1  0  0  0
 73147  1  0  0  0
 73148  1  0  0  0
 73149  1  0  0  0
 74 77  1  0  0  0
 74150  1  0  0  0
 74151  1  0  0  0
 74 79  1  0  0  0
 75 79  1  0  0  0
 75 80  1  0  0  0
 75152  1  0  0  0
 75153  1  0  0  0
 76 78  1  0  0  0
 76 81  1  0  0  0
 76154  1  0  0  0
 76155  1  0  0  0
 77156  1  0  0  0
 77157  1  0  0  0
 78 79  1  0  0  0
 78158  1  0  0  0
 79159  1  0  0  0
 80160  1  0  0  0
 81161  1  0  0  0
M  CHG  1  81   1
M  ISO  4   1 100  68 101  77 101  80 100
M  END
> <chiral flag>
0

> <version>
0

> <s_m_source_file>
/data/baiqing/PycharmProjects/Reinvent-master-3.2/result/LINK_invent/BTK/process_docking_weight1_custom_sum_contain_oxygen_bond_distance_aromatic_linkinvent_7_9_3/rearranged_h_0097.sdf

> <i_m_source_file_index>
39

> <r_mmod_Potential_Energy-OPLS-2005>
2319.71923828125

> <r_mmod_Stretch_Energy-OPLS-2005>
1117.900390625

> <r_mmod_Bend_Energy-OPLS-2005>
727.060729980469

> <r_mmod_Torsional_Energy-OPLS-2005>
281.719635009766

> <r_mmod_Improper_Torsional_Energy-OPLS-2005>
4.50875473022461

> <r_mmod_Van_der_Waal_Energy-OPLS-2005>
108.829666137695

> <r_mmod_Electrostatic_Energy-OPLS-2005>
-257.834350585938

> <r_mmod_Solvation_Energy-OPLS-2005>
-439.094757080078

> <b_mmod_Minimization_Converged-OPLS-2005>
0

> <r_mmod_RMS_Derivative-OPLS-2005>
6.15993499755859

$$$$
39
                    3D
 Structure written by MMmdl.
164171  0  0  1  0            999 V2000
  -30.6787  -14.5587   20.4492 C   0  0  0  0  0  0
  -30.4183  -12.3242   19.4452 C   0  0  0  0  0  0
  -29.4923  -12.4431   18.2159 C   0  0  0  0  0  0
  -28.0140  -12.3229   18.6336 C   0  0  0  0  0  0
  -27.6475  -13.2115   19.8530 C   0  0  2  0  0  0
  -28.6962  -13.0929   20.9822 C   0  0  0  0  0  0
  -25.2549  -13.8173   20.5689 C   0  0  0  0  0  0
  -24.1816  -13.0443   20.9208 C   0  0  0  0  0  0
  -24.6382  -11.6915   20.8768 C   0  0  0  0  0  0
  -23.9054  -10.4299   21.0423 C   0  0  0  0  0  0
  -24.3611   -9.4211   21.9192 C   0  0  0  0  0  0
  -23.6290   -8.2246   22.0757 C   0  0  0  0  0  0
  -22.4272   -8.0285   21.3547 C   0  0  0  0  0  0
  -21.9907   -9.0258   20.4650 C   0  0  0  0  0  0
  -22.7232  -10.2139   20.3066 C   0  0  0  0  0  0
  -21.6852   -6.0738   22.5281 C   0  0  0  0  0  0
  -21.4012   -6.5640   23.8214 C   0  0  0  0  0  0
  -21.3660   -5.6791   24.9175 C   0  0  0  0  0  0
  -21.6042   -4.3053   24.7222 C   0  0  0  0  0  0
  -21.8819   -3.8147   23.4342 C   0  0  0  0  0  0
  -21.9192   -4.6967   22.3401 C   0  0  0  0  0  0
  -22.7839  -13.5240   21.1853 C   0  0  0  0  0  0
  -22.1660   -4.2154   21.0978 F   0  0  0  0  0  0
  -21.5629   -3.4537   25.7734 F   0  0  0  0  0  0
  -30.0126  -13.3711   20.3969 N   0  0  0  0  0  0
  -26.2966  -12.9345   20.3317 N   0  0  0  0  0  0
  -25.9306  -11.6508   20.5794 N   0  0  0  0  0  0
  -22.0470  -12.8245   22.0410 N   0  0  0  0  0  0
  -25.4268  -15.1886   20.4077 N   0  0  0  0  0  0
  -31.8888  -14.6271   20.2155 O   0  0  0  0  0  0
  -21.6638   -6.8881   21.4242 O   0  0  0  0  0  0
  -22.3533  -14.5541   20.6687 O   0  0  0  0  0  0
  -24.6165  -31.8657   23.2073 C   0  0  0  0  0  0
  -25.9047  -32.4813   23.8378 C   0  0  1  0  0  0
  -27.2298  -27.4073   20.1144 C   0  0  0  0  0  0
  -25.5898  -33.8611   24.2311 N   0  0  0  0  0  0
  -23.4068  -30.4873   21.5480 C   0  0  2  0  0  0
  -24.8549  -28.9471   20.1162 C   0  0  0  0  0  0
  -22.7426  -29.4642   22.4980 C   0  0  0  0  0  0
  -18.0280  -28.1379   22.8487 C   0  0  0  0  0  0
  -24.1486  -36.7310   23.2640 C   0  0  0  0  0  0
  -25.9374  -30.8246   21.3635 C   0  0  0  0  0  0
  -26.0158  -29.4556   20.7135 C   0  0  0  0  0  0
  -27.2105  -28.6944   20.7056 C   0  0  0  0  0  0
  -26.0563  -26.9172   19.5086 C   0  0  0  0  0  0
  -24.8713  -27.6792   19.5075 C   0  0  0  0  0  0
  -23.6177  -29.8167   20.1635 C   0  0  0  0  0  0
  -25.4107  -36.3104   24.0335 C   0  0  1  0  0  0
  -20.5872  -28.3664   23.1319 C   0  0  2  0  0  0
  -20.6778  -26.9399   22.5417 C   0  0  0  0  0  0
  -19.5756  -26.6380   21.5213 C   0  0  0  0  0  0
  -18.1936  -26.7921   22.1625 C   0  0  0  0  0  0
  -19.1529  -28.8838   23.2900 C   0  0  0  0  0  0
  -18.9453  -30.1446   23.8910 C   0  0  0  0  0  0
  -17.6456  -30.6580   24.0571 C   0  0  0  0  0  0
  -25.9034  -34.9471   23.5121 C   0  0  0  0  0  0
  -16.5348  -29.9085   23.6323 C   0  0  0  0  0  0
  -16.7270  -28.6501   23.0343 C   0  0  0  0  0  0
  -26.4472  -31.6593   25.0709 C   0  0  0  0  0  0
  -25.3740  -31.3697   26.1458 C   0  0  0  0  0  0
  -27.0302  -30.3035   24.6091 C   0  0  0  0  0  0
  -27.6048  -32.4313   25.7470 C   0  0  0  0  0  0
  -27.5579  -37.1811   24.8467 C   0  0  0  0  0  0
  -21.4150  -29.3031   22.3727 N   0  0  0  0  0  0
  -26.4293  -37.3789   23.9408 N   0  0  0  0  0  0
  -24.6717  -31.0739   22.0981 N   0  0  0  0  0  0
  -23.4195  -28.8187   23.3027 O   0  0  0  0  0  0
  -28.3692  -26.6283   20.1059 O   0  0  0  0  0  0
  -26.5602  -34.8927   22.4685 O   0  0  0  0  0  0
  -23.5349  -32.1414   23.7456 O   0  0  0  0  0  0
  -30.9559  -18.3505   21.3494 C   0  0  0  0  0  0
  -27.0545  -18.9256   21.0797 C   0  0  0  0  0  0
  -30.1049  -16.1886   18.7491 C   0  0  0  0  0  0
  -28.4230  -24.0832   20.3798 C   0  0  0  0  0  0
  -29.1903  -16.5393   21.0340 C   0  0  0  0  0  0
  -28.6244  -22.9428   21.4351 C   0  0  0  0  0  0
  -28.8545  -20.5074   21.9886 C   0  0  0  0  0  0
  -28.3632  -25.5076   21.0214 C   0  0  0  0  0  0
  -29.5004  -18.0915   20.9132 C   0  0  1  0  0  0
  -28.4730  -19.0069   21.6801 C   0  0  2  0  0  0
  -29.9153  -15.6363   20.0986 N   0  0  0  0  0  0
  -28.6099  -21.5317   20.9224 N   0  3  0  0  0  0
  -31.4624  -12.4159   19.1404 H   0  0  0  0  0  0
  -30.3234  -11.3401   19.9065 H   0  0  0  0  0  0
  -29.7355  -11.6668   17.4890 H   0  0  0  0  0  0
  -29.6532  -13.3895   17.7039 H   0  0  0  0  0  0
  -27.8316  -11.2751   18.8738 H   0  0  0  0  0  0
  -27.3631  -12.5542   17.7897 H   0  0  0  0  0  0
  -27.6564  -14.2393   19.4919 H   0  0  0  0  0  0
  -28.6850  -12.0953   21.4227 H   0  0  0  0  0  0
  -28.4727  -13.7921   21.7898 H   0  0  0  0  0  0
  -25.2755   -9.5686   22.4766 H   0  0  0  0  0  0
  -24.0003   -7.4633   22.7471 H   0  0  0  0  0  0
  -21.0840   -8.8775   19.8951 H   0  0  0  0  0  0
  -22.3692  -10.9681   19.6179 H   0  0  0  0  0  0
  -21.2003   -7.6148   23.9721 H   0  0  0  0  0  0
  -21.1484   -6.0519   25.9079 H   0  0  0  0  0  0
  -22.0599   -2.7610   23.2839 H   0  0  0  0  0  0
  -22.4072  -11.9911   22.4816 H   0  0  0  0  0  0
  -21.1089  -13.1284   22.2599 H   0  0  0  0  0  0
  -24.6606  -15.8434   20.5160 H   0  0  0  0  0  0
  -26.2768  -15.6221   20.0721 H   0  0  0  0  0  0
  -26.7121  -32.5520   23.1145 H   0  0  0  0  0  0
  -25.0055  -33.9767   25.0461 H   0  0  0  0  0  0
  -22.6964  -31.3041   21.4062 H   0  0  0  0  0  0
  -23.3742  -35.9651   23.3312 H   0  0  0  0  0  0
  -24.3580  -36.8912   22.2052 H   0  0  0  0  0  0
  -23.7243  -37.6522   23.6645 H   0  0  0  0  0  0
  -26.0509  -31.5884   20.5928 H   0  0  0  0  0  0
  -26.8248  -30.8810   21.9821 H   0  0  0  0  0  0
  -28.1086  -29.0831   21.1657 H   0  0  0  0  0  0
  -26.0591  -25.9430   19.0402 H   0  0  0  0  0  0
  -23.9802  -27.2829   19.0402 H   0  0  0  0  0  0
  -23.7292  -30.5904   19.4029 H   0  0  0  0  0  0
  -22.7410  -29.2379   19.8663 H   0  0  0  0  0  0
  -25.1288  -36.1970   25.0828 H   0  0  0  0  0  0
  -20.9967  -28.3227   24.1437 H   0  0  0  0  0  0
  -20.5681  -26.2266   23.3601 H   0  0  0  0  0  0
  -21.6651  -26.7445   22.1216 H   0  0  0  0  0  0
  -19.6917  -25.6294   21.1235 H   0  0  0  0  0  0
  -19.6690  -27.3199   20.6750 H   0  0  0  0  0  0
  -17.4208  -26.6666   21.4023 H   0  0  0  0  0  0
  -18.0337  -26.0061   22.9018 H   0  0  0  0  0  0
  -19.7926  -30.7260   24.2293 H   0  0  0  0  0  0
  -17.5006  -31.6253   24.5185 H   0  0  0  0  0  0
  -15.5350  -30.2990   23.7636 H   0  0  0  0  0  0
  -15.8671  -28.0823   22.7051 H   0  0  0  0  0  0
  -24.5913  -30.7045   25.7793 H   0  0  0  0  0  0
  -24.8934  -32.2852   26.4916 H   0  0  0  0  0  0
  -25.8096  -30.8858   27.0208 H   0  0  0  0  0  0
  -26.2844  -29.6798   24.1151 H   0  0  0  0  0  0
  -27.4078  -29.7268   25.4545 H   0  0  0  0  0  0
  -27.8675  -30.4353   23.9235 H   0  0  0  0  0  0
  -27.2669  -33.3602   26.2077 H   0  0  0  0  0  0
  -28.3841  -32.6893   25.0285 H   0  0  0  0  0  0
  -28.0740  -31.8421   26.5360 H   0  0  0  0  0  0
  -28.2610  -38.0096   24.7507 H   0  0  0  0  0  0
  -28.1063  -36.2630   24.6303 H   0  0  0  0  0  0
  -27.2298  -37.1474   25.8871 H   0  0  0  0  0  0
  -20.9309  -29.8772   21.6969 H   0  0  0  0  0  0
  -26.0180  -38.2869   24.1402 H   0  0  0  0  0  0
  -31.6531  -17.6706   20.8594 H   0  0  0  0  0  0
  -31.0787  -18.2191   22.4251 H   0  0  0  0  0  0
  -31.2844  -19.3569   21.0919 H   0  0  0  0  0  0
  -26.3593  -19.5759   21.6121 H   0  0  0  0  0  0
  -26.6390  -17.9210   21.1453 H   0  0  0  0  0  0
  -27.0428  -19.2136   20.0282 H   0  0  0  0  0  0
  -29.1782  -16.6249   18.3753 H   0  0  0  0  0  0
  -30.4083  -15.4294   18.0288 H   0  0  0  0  0  0
  -30.8825  -16.9524   18.7386 H   0  0  0  0  0  0
  -27.5071  -23.9088   19.8153 H   0  0  0  0  0  0
  -29.2418  -24.0520   19.6606 H   0  0  0  0  0  0
  -28.1340  -16.3535   20.8562 H   0  0  0  0  0  0
  -29.3696  -16.2143   22.0608 H   0  0  0  0  0  0
  -27.8474  -23.0351   22.1955 H   0  0  0  0  0  0
  -29.5714  -23.1069   21.9518 H   0  0  0  0  0  0
  -29.8787  -20.5951   22.3500 H   0  0  0  0  0  0
  -28.2439  -20.8031   22.8436 H   0  0  0  0  0  0
  -29.2389  -25.6357   21.6585 H   0  0  0  0  0  0
  -27.5073  -25.5619   21.6979 H   0  0  0  0  0  0
  -29.4230  -18.3955   19.8698 H   0  0  0  0  0  0
  -28.4001  -18.5544   22.6707 H   0  0  0  0  0  0
  -29.3071  -21.4241   20.2029 H   0  0  0  0  0  0
  -27.7088  -21.3530   20.5096 H   0  0  0  0  0  0
  1 25  1  0  0  0
  1 30  2  0  0  0
  1 81  1  0  0  0
  2  3  1  0  0  0
  2 25  1  0  0  0
  2 83  1  0  0  0
  2 84  1  0  0  0
  3  4  1  0  0  0
  3 85  1  0  0  0
  3 86  1  0  0  0
  4  5  1  0  0  0
  4 87  1  0  0  0
  4 88  1  0  0  0
  5  6  1  0  0  0
  5 26  1  0  0  0
  5 89  1  0  0  0
  6 25  1  0  0  0
  6 90  1  0  0  0
  6 91  1  0  0  0
  7  8  2  0  0  0
  7 26  1  0  0  0
  7 29  1  0  0  0
  8  9  1  0  0  0
  8 22  1  0  0  0
  9 10  1  0  0  0
  9 27  2  0  0  0
 10 11  2  0  0  0
 10 15  1  0  0  0
 11 12  1  0  0  0
 11 92  1  0  0  0
 12 13  2  0  0  0
 12 93  1  0  0  0
 13 14  1  0  0  0
 13 31  1  0  0  0
 14 15  2  0  0  0
 14 94  1  0  0  0
 15 95  1  0  0  0
 16 17  2  0  0  0
 16 21  1  0  0  0
 16 31  1  0  0  0
 17 18  1  0  0  0
 17 96  1  0  0  0
 18 19  2  0  0  0
 18 97  1  0  0  0
 19 20  1  0  0  0
 19 24  1  0  0  0
 20 21  2  0  0  0
 20 98  1  0  0  0
 21 23  1  0  0  0
 22 28  1  0  0  0
 22 32  2  0  0  0
 26 27  1  0  0  0
 28 99  1  0  0  0
 28100  1  0  0  0
 29101  1  0  0  0
 29102  1  0  0  0
 33 34  1  0  0  0
 33 66  1  0  0  0
 33 70  2  0  0  0
 34 36  1  0  0  0
 34 59  1  0  0  0
 34103  1  0  0  0
 35 44  2  0  0  0
 35 45  1  0  0  0
 35 68  1  0  0  0
 36 56  1  0  0  0
 36104  1  0  0  0
 37 39  1  0  0  0
 37 47  1  0  0  0
 37 66  1  0  0  0
 37105  1  0  0  0
 38 43  2  0  0  0
 38 46  1  0  0  0
 38 47  1  0  0  0
 39 64  1  0  0  0
 39 67  2  0  0  0
 40 52  1  0  0  0
 40 53  2  0  0  0
 40 58  1  0  0  0
 41106  1  0  0  0
 41107  1  0  0  0
 41108  1  0  0  0
 41 48  1  0  0  0
 42 43  1  0  0  0
 42 66  1  0  0  0
 42109  1  0  0  0
 42110  1  0  0  0
 43 44  1  0  0  0
 44111  1  0  0  0
 45 46  2  0  0  0
 45112  1  0  0  0
 46113  1  0  0  0
 47114  1  0  0  0
 47115  1  0  0  0
 48 56  1  0  0  0
 48 65  1  0  0  0
 48116  1  0  0  0
 49 50  1  0  0  0
 49 53  1  0  0  0
 49 64  1  0  0  0
 49117  1  0  0  0
 50 51  1  0  0  0
 50118  1  0  0  0
 50119  1  0  0  0
 51 52  1  0  0  0
 51120  1  0  0  0
 51121  1  0  0  0
 52122  1  0  0  0
 52123  1  0  0  0
 53 54  1  0  0  0
 54 55  2  0  0  0
 54124  1  0  0  0
 55 57  1  0  0  0
 55125  1  0  0  0
 56 69  2  0  0  0
 57 58  2  0  0  0
 57126  1  0  0  0
 58127  1  0  0  0
 59 60  1  0  0  0
 59 61  1  0  0  0
 59 62  1  0  0  0
 60128  1  0  0  0
 60129  1  0  0  0
 60130  1  0  0  0
 61131  1  0  0  0
 61132  1  0  0  0
 61133  1  0  0  0
 62134  1  0  0  0
 62135  1  0  0  0
 62136  1  0  0  0
 63 65  1  0  0  0
 63137  1  0  0  0
 63138  1  0  0  0
 63139  1  0  0  0
 64140  1  0  0  0
 65141  1  0  0  0
 68 78  1  0  0  0
 71142  1  0  0  0
 71143  1  0  0  0
 71144  1  0  0  0
 71 79  1  0  0  0
 72145  1  0  0  0
 72146  1  0  0  0
 72147  1  0  0  0
 72 80  1  0  0  0
 73 81  1  0  0  0
 73148  1  0  0  0
 73149  1  0  0  0
 73150  1  0  0  0
 74 76  1  0  0  0
 74 78  1  0  0  0
 74151  1  0  0  0
 74152  1  0  0  0
 75 79  1  0  0  0
 75 81  1  0  0  0
 75153  1  0  0  0
 75154  1  0  0  0
 76 82  1  0  0  0
 76155  1  0  0  0
 76156  1  0  0  0
 77 80  1  0  0  0
 77 82  1  0  0  0
 77157  1  0  0  0
 77158  1  0  0  0
 78159  1  0  0  0
 78160  1  0  0  0
 79 80  1  0  0  0
 79161  1  0  0  0
 80162  1  0  0  0
 82163  1  0  0  0
 82164  1  0  0  0
M  CHG  1  82   1
M  ISO  4   1 100  68 101  78 101  81 100
M  END
> <chiral flag>
0

> <version>
0

> <s_m_source_file>
/data/baiqing/PycharmProjects/Reinvent-master-3.2/result/LINK_invent/BTK/process_docking_weight1_custom_sum_contain_oxygen_bond_distance_aromatic_linkinvent_7_9_3/rearranged_h_0097.sdf

> <i_m_source_file_index>
40

> <r_mmod_Potential_Energy-OPLS-2005>
53.4059371948242

> <r_mmod_Stretch_Energy-OPLS-2005>
51.6890106201172

> <r_mmod_Bend_Energy-OPLS-2005>
118.464218139648

> <r_mmod_Torsional_Energy-OPLS-2005>
354.613037109375

> <r_mmod_Improper_Torsional_Energy-OPLS-2005>
24.7386589050293

> <r_mmod_Van_der_Waal_Energy-OPLS-2005>
123.178512573242

> <r_mmod_Electrostatic_Energy-OPLS-2005>
-202.366882324219

> <r_mmod_Solvation_Energy-OPLS-2005>
-447.99755859375

> <b_mmod_Minimization_Converged-OPLS-2005>
0

> <r_mmod_RMS_Derivative-OPLS-2005>
0.764107048511505

$$$$
40
                    3D
 Structure written by MMmdl.
154162  0  0  1  0            999 V2000
  -30.5254  -14.9658   20.4133 C   0  0  0  0  0  0
  -30.4407  -12.5847   19.5347 C   0  0  0  0  0  0
  -29.5387  -12.5274   18.2801 C   0  0  0  0  0  0
  -28.0630  -12.3182   18.6721 C   0  0  0  0  0  0
  -27.6328  -13.2456   19.8408 C   0  0  2  0  0  0
  -28.6682  -13.2739   20.9877 C   0  0  0  0  0  0
  -25.2458  -13.8224   20.5596 C   0  0  0  0  0  0
  -24.1781  -13.0464   20.9216 C   0  0  0  0  0  0
  -24.6390  -11.6951   20.8766 C   0  0  0  0  0  0
  -23.9058  -10.4326   21.0412 C   0  0  0  0  0  0
  -24.3615   -9.4227   21.9172 C   0  0  0  0  0  0
  -23.6301   -8.2256   22.0751 C   0  0  0  0  0  0
  -22.4274   -8.0279   21.3543 C   0  0  0  0  0  0
  -21.9894   -9.0269   20.4650 C   0  0  0  0  0  0
  -22.7229  -10.2150   20.3065 C   0  0  0  0  0  0
  -21.6867   -6.0727   22.5288 C   0  0  0  0  0  0
  -21.4013   -6.5631   23.8211 C   0  0  0  0  0  0
  -21.3670   -5.6788   24.9185 C   0  0  0  0  0  0
  -21.6057   -4.3058   24.7229 C   0  0  0  0  0  0
  -21.8824   -3.8140   23.4354 C   0  0  0  0  0  0
  -21.9196   -4.6960   22.3399 C   0  0  0  0  0  0
  -22.7787  -13.5234   21.1841 C   0  0  0  0  0  0
  -22.1659   -4.2136   21.0978 F   0  0  0  0  0  0
  -21.5645   -3.4528   25.7742 F   0  0  0  0  0  0
  -29.9526  -13.6903   20.4101 N   0  0  0  0  0  0
  -26.2884  -12.9460   20.3197 N   0  0  0  0  0  0
  -25.9335  -11.6601   20.5757 N   0  0  0  0  0  0
  -22.0409  -12.8294   22.0443 N   0  0  0  0  0  0
  -25.4124  -15.1930   20.3818 N   0  0  0  0  0  0
  -31.7070  -15.0454   20.0574 O   0  0  0  0  0  0
  -21.6661   -6.8864   21.4233 O   0  0  0  0  0  0
  -22.3467  -14.5504   20.6619 O   0  0  0  0  0  0
  -24.6488  -31.8386   23.1818 C   0  0  0  0  0  0
  -25.9228  -32.4687   23.8238 C   0  0  1  0  0  0
  -27.2300  -27.0968   20.1450 C   0  0  0  0  0  0
  -25.5970  -33.8493   24.2142 N   0  0  0  0  0  0
  -23.4565  -30.4518   21.5301 C   0  0  2  0  0  0
  -24.9069  -28.8701   20.1035 C   0  0  0  0  0  0
  -22.7598  -29.4507   22.4849 C   0  0  0  0  0  0
  -18.0297  -28.1401   22.8472 C   0  0  0  0  0  0
  -24.1477  -36.7265   23.2657 C   0  0  0  0  0  0
  -26.0123  -30.6928   21.3881 C   0  0  0  0  0  0
  -26.0814  -29.3009   20.7298 C   0  0  0  0  0  0
  -27.2388  -28.4279   20.7390 C   0  0  0  0  0  0
  -26.0303  -26.7758   19.4706 C   0  0  0  0  0  0
  -24.8947  -27.6207   19.4611 C   0  0  0  0  0  0
  -23.6828  -29.7769   20.1508 C   0  0  0  0  0  0
  -25.4108  -36.3032   24.0326 C   0  0  1  0  0  0
  -20.5914  -28.3713   23.1231 C   0  0  2  0  0  0
  -20.6797  -26.9412   22.5394 C   0  0  0  0  0  0
  -19.5755  -26.6365   21.5228 C   0  0  0  0  0  0
  -18.1941  -26.7933   22.1634 C   0  0  0  0  0  0
  -19.1559  -28.8887   23.2842 C   0  0  0  0  0  0
  -18.9485  -30.1501   23.8842 C   0  0  0  0  0  0
  -17.6480  -30.6606   24.0567 C   0  0  0  0  0  0
  -25.9064  -34.9414   23.5046 C   0  0  0  0  0  0
  -16.5365  -29.9093   23.6364 C   0  0  0  0  0  0
  -16.7283  -28.6521   23.0357 C   0  0  0  0  0  0
  -26.4503  -31.6621   25.0739 C   0  0  0  0  0  0
  -25.3671  -31.3873   26.1467 C   0  0  0  0  0  0
  -27.0388  -30.3031   24.6360 C   0  0  0  0  0  0
  -27.6022  -32.4420   25.7490 C   0  0  0  0  0  0
  -27.5552  -37.1791   24.8464 C   0  0  0  0  0  0
  -21.4282  -29.3047   22.3621 N   0  0  0  0  0  0
  -26.4254  -37.3761   23.9429 N   0  0  0  0  0  0
  -24.7266  -31.0174   22.0894 N   0  0  0  0  0  0
  -23.4213  -28.8057   23.3019 O   0  0  0  0  0  0
  -28.2866  -26.1014   20.2348 O   0  0  0  0  0  0
  -26.5645  -34.8913   22.4620 O   0  0  0  0  0  0
  -23.5592  -32.1301   23.6979 O   0  0  0  0  0  0
  -30.9027  -18.7325   22.0145 C   0  0  0  0  0  0
  -30.5045  -20.9196   22.0797 C   0  0  0  0  0  0
  -31.2011  -19.9280   22.7038 C   0  0  0  0  0  0
  -30.0359  -18.9562   20.9802 C   0  0  0  0  0  0
  -32.1215  -20.0613   23.8928 C   0  0  0  0  0  0
  -29.6844  -17.6373   20.0959 C   0  0  0  0  0  0
  -29.0643  -23.2533   20.5142 C   0  0  0  0  0  0
  -28.8763  -21.5567   20.2571 C   0  0  0  0  0  0
  -28.0833  -24.5572   20.0027 C   0  0  0  0  0  0
  -29.7510  -20.4465   21.0034 N   0  0  0  0  0  0
  -29.7279  -16.1286   20.6219 N   0  0  0  0  0  0
  -31.4832  -12.7190   19.2441 H   0  0  0  0  0  0
  -30.4139  -11.6341   20.0709 H   0  0  0  0  0  0
  -29.8674  -11.7298   17.6091 H   0  0  0  0  0  0
  -29.6367  -13.4635   17.7281 H   0  0  0  0  0  0
  -27.9431  -11.2724   18.9608 H   0  0  0  0  0  0
  -27.4162  -12.4667   17.8061 H   0  0  0  0  0  0
  -27.5969  -14.2458   19.4096 H   0  0  0  0  0  0
  -28.7531  -12.2960   21.4655 H   0  0  0  0  0  0
  -28.3552  -13.9613   21.7712 H   0  0  0  0  0  0
  -25.2766   -9.5734   22.4734 H   0  0  0  0  0  0
  -24.0041   -7.4658   22.7472 H   0  0  0  0  0  0
  -21.0827   -8.8783   19.8951 H   0  0  0  0  0  0
  -22.3670  -10.9690   19.6181 H   0  0  0  0  0  0
  -21.1978   -7.6130   23.9719 H   0  0  0  0  0  0
  -21.1495   -6.0502   25.9080 H   0  0  0  0  0  0
  -22.0581   -2.7595   23.2865 H   0  0  0  0  0  0
  -22.4015  -12.0005   22.4954 H   0  0  0  0  0  0
  -21.1005  -13.1344   22.2558 H   0  0  0  0  0  0
  -24.6225  -15.8286   20.4138 H   0  0  0  0  0  0
  -26.2303  -15.6097   19.9549 H   0  0  0  0  0  0
  -26.7302  -32.5244   23.0965 H   0  0  0  0  0  0
  -25.0182  -33.9599   25.0339 H   0  0  0  0  0  0
  -22.7632  -31.2813   21.3696 H   0  0  0  0  0  0
  -23.3750  -35.9586   23.3281 H   0  0  0  0  0  0
  -24.3556  -36.8942   22.2080 H   0  0  0  0  0  0
  -23.7199  -37.6440   23.6707 H   0  0  0  0  0  0
  -26.1652  -31.4383   20.6063 H   0  0  0  0  0  0
  -26.8847  -30.7477   22.0269 H   0  0  0  0  0  0
  -28.1212  -28.7451   21.2752 H   0  0  0  0  0  0
  -25.9371  -25.8262   18.9628 H   0  0  0  0  0  0
  -23.9991  -27.2858   18.9558 H   0  0  0  0  0  0
  -23.8091  -30.5486   19.3899 H   0  0  0  0  0  0
  -22.7969  -29.2172   19.8490 H   0  0  0  0  0  0
  -25.1275  -36.1870   25.0812 H   0  0  0  0  0  0
  -20.9985  -28.3281   24.1364 H   0  0  0  0  0  0
  -20.5734  -26.2307   23.3600 H   0  0  0  0  0  0
  -21.6650  -26.7442   22.1161 H   0  0  0  0  0  0
  -19.6928  -25.6276   21.1273 H   0  0  0  0  0  0
  -19.6723  -27.3166   20.6755 H   0  0  0  0  0  0
  -17.4213  -26.6694   21.4028 H   0  0  0  0  0  0
  -18.0323  -26.0095   22.9040 H   0  0  0  0  0  0
  -19.7974  -30.7347   24.2150 H   0  0  0  0  0  0
  -17.5041  -31.6268   24.5191 H   0  0  0  0  0  0
  -15.5375  -30.2986   23.7727 H   0  0  0  0  0  0
  -15.8675  -28.0845   22.7083 H   0  0  0  0  0  0
  -24.5668  -30.7462   25.7757 H   0  0  0  0  0  0
  -24.9099  -32.3119   26.5018 H   0  0  0  0  0  0
  -25.7906  -30.8867   27.0190 H   0  0  0  0  0  0
  -26.3044  -29.6755   24.1324 H   0  0  0  0  0  0
  -27.3972  -29.7349   25.4947 H   0  0  0  0  0  0
  -27.8927  -30.4298   23.9703 H   0  0  0  0  0  0
  -27.2624  -33.3780   26.1940 H   0  0  0  0  0  0
  -28.3864  -32.6945   25.0326 H   0  0  0  0  0  0
  -28.0665  -31.8674   26.5514 H   0  0  0  0  0  0
  -28.2564  -38.0086   24.7516 H   0  0  0  0  0  0
  -28.1043  -36.2631   24.6262 H   0  0  0  0  0  0
  -27.2287  -37.1416   25.8866 H   0  0  0  0  0  0
  -20.9506  -29.8766   21.6789 H   0  0  0  0  0  0
  -26.0128  -38.2819   24.1461 H   0  0  0  0  0  0
  -31.3085  -17.7563   22.2495 H   0  0  0  0  0  0
  -30.5009  -21.9665   22.3448 H   0  0  0  0  0  0
  -33.1623  -19.9467   23.5859 H   0  0  0  0  0  0
  -31.9051  -19.2945   24.6371 H   0  0  0  0  0  0
  -32.0137  -21.0314   24.3795 H   0  0  0  0  0  0
  -30.3110  -17.6623   19.2033 H   0  0  0  0  0  0
  -28.6736  -17.7798   19.7146 H   0  0  0  0  0  0
  -30.0658  -23.4738   20.1382 H   0  0  0  0  0  0
  -29.1417  -23.4046   21.5885 H   0  0  0  0  0  0
  -28.9620  -21.3618   19.1871 H   0  0  0  0  0  0
  -27.8397  -21.3121   20.4971 H   0  0  0  0  0  0
  -27.0878  -24.3277   20.3821 H   0  0  0  0  0  0
  -28.0016  -24.4508   18.9206 H   0  0  0  0  0  0
  -28.8342  -15.8618   21.0065 H   0  0  0  0  0  0
  1 25  1  0  0  0
  1 30  2  0  0  0
  1 81  1  0  0  0
  2  3  1  0  0  0
  2 25  1  0  0  0
  2 82  1  0  0  0
  2 83  1  0  0  0
  3  4  1  0  0  0
  3 84  1  0  0  0
  3 85  1  0  0  0
  4  5  1  0  0  0
  4 86  1  0  0  0
  4 87  1  0  0  0
  5  6  1  0  0  0
  5 26  1  0  0  0
  5 88  1  0  0  0
  6 25  1  0  0  0
  6 89  1  0  0  0
  6 90  1  0  0  0
  7  8  2  0  0  0
  7 26  1  0  0  0
  7 29  1  0  0  0
  8  9  1  0  0  0
  8 22  1  0  0  0
  9 10  1  0  0  0
  9 27  2  0  0  0
 10 11  2  0  0  0
 10 15  1  0  0  0
 11 12  1  0  0  0
 11 91  1  0  0  0
 12 13  2  0  0  0
 12 92  1  0  0  0
 13 14  1  0  0  0
 13 31  1  0  0  0
 14 15  2  0  0  0
 14 93  1  0  0  0
 15 94  1  0  0  0
 16 17  2  0  0  0
 16 21  1  0  0  0
 16 31  1  0  0  0
 17 18  1  0  0  0
 17 95  1  0  0  0
 18 19  2  0  0  0
 18 96  1  0  0  0
 19 20  1  0  0  0
 19 24  1  0  0  0
 20 21  2  0  0  0
 20 97  1  0  0  0
 21 23  1  0  0  0
 22 28  1  0  0  0
 22 32  2  0  0  0
 26 27  1  0  0  0
 28 98  1  0  0  0
 28 99  1  0  0  0
 29100  1  0  0  0
 29101  1  0  0  0
 33 34  1  0  0  0
 33 66  1  0  0  0
 33 70  2  0  0  0
 34 36  1  0  0  0
 34 59  1  0  0  0
 34102  1  0  0  0
 35 44  2  0  0  0
 35 45  1  0  0  0
 35 68  1  0  0  0
 36 56  1  0  0  0
 36103  1  0  0  0
 37 39  1  0  0  0
 37 47  1  0  0  0
 37 66  1  0  0  0
 37104  1  0  0  0
 38 43  2  0  0  0
 38 46  1  0  0  0
 38 47  1  0  0  0
 39 64  1  0  0  0
 39 67  2  0  0  0
 40 52  1  0  0  0
 40 53  2  0  0  0
 40 58  1  0  0  0
 41105  1  0  0  0
 41106  1  0  0  0
 41107  1  0  0  0
 41 48  1  0  0  0
 42 43  1  0  0  0
 42 66  1  0  0  0
 42108  1  0  0  0
 42109  1  0  0  0
 43 44  1  0  0  0
 44110  1  0  0  0
 45 46  2  0  0  0
 45111  1  0  0  0
 46112  1  0  0  0
 47113  1  0  0  0
 47114  1  0  0  0
 48 56  1  0  0  0
 48 65  1  0  0  0
 48115  1  0  0  0
 49 50  1  0  0  0
 49 53  1  0  0  0
 49 64  1  0  0  0
 49116  1  0  0  0
 50 51  1  0  0  0
 50117  1  0  0  0
 50118  1  0  0  0
 51 52  1  0  0  0
 51119  1  0  0  0
 51120  1  0  0  0
 52121  1  0  0  0
 52122  1  0  0  0
 53 54  1  0  0  0
 54 55  2  0  0  0
 54123  1  0  0  0
 55 57  1  0  0  0
 55124  1  0  0  0
 56 69  2  0  0  0
 57 58  2  0  0  0
 57125  1  0  0  0
 58126  1  0  0  0
 59 60  1  0  0  0
 59 61  1  0  0  0
 59 62  1  0  0  0
 60127  1  0  0  0
 60128  1  0  0  0
 60129  1  0  0  0
 61130  1  0  0  0
 61131  1  0  0  0
 61132  1  0  0  0
 62133  1  0  0  0
 62134  1  0  0  0
 62135  1  0  0  0
 63 65  1  0  0  0
 63136  1  0  0  0
 63137  1  0  0  0
 63138  1  0  0  0
 64139  1  0  0  0
 65140  1  0  0  0
 68 79  1  0  0  0
 71 73  1  0  0  0
 71 74  2  0  0  0
 71141  1  0  0  0
 72 73  2  0  0  0
 72 80  1  0  0  0
 72142  1  0  0  0
 73 75  1  0  0  0
 74 76  1  0  0  0
 74 80  1  0  0  0
 75143  1  0  0  0
 75144  1  0  0  0
 75145  1  0  0  0
 76 81  1  0  0  0
 76146  1  0  0  0
 76147  1  0  0  0
 77 78  1  0  0  0
 77 79  1  0  0  0
 77148  1  0  0  0
 77149  1  0  0  0
 78 80  1  0  0  0
 78150  1  0  0  0
 78151  1  0  0  0
 79152  1  0  0  0
 79153  1  0  0  0
 81154  1  0  0  0
M  ISO  4   1 100  68 101  79 101  81 100
M  END
> <chiral flag>
0

> <version>
0

> <s_m_source_file>
/data/baiqing/PycharmProjects/Reinvent-master-3.2/result/LINK_invent/BTK/process_docking_weight1_custom_sum_contain_oxygen_bond_distance_aromatic_linkinvent_7_9_3/rearranged_h_0097.sdf

> <i_m_source_file_index>
41

> <r_mmod_Potential_Energy-OPLS-2005>
561.448059082031

> <r_mmod_Stretch_Energy-OPLS-2005>
324.062255859375

> <r_mmod_Bend_Energy-OPLS-2005>
330.165435791016

> <r_mmod_Torsional_Energy-OPLS-2005>
217.574310302734

> <r_mmod_Improper_Torsional_Energy-OPLS-2005>
6.27977895736694

> <r_mmod_Van_der_Waal_Energy-OPLS-2005>
108.710517883301

> <r_mmod_Electrostatic_Energy-OPLS-2005>
-415.518890380859

> <r_mmod_Solvation_Energy-OPLS-2005>
-225.719833374023

> <b_mmod_Minimization_Converged-OPLS-2005>
0

> <r_mmod_RMS_Derivative-OPLS-2005>
4.5548357963562

$$$$
41
                    3D
 Structure written by MMmdl.
169177  0  0  1  0            999 V2000
  -30.7007  -14.4573   20.4416 C   0  0  0  0  0  0
  -30.4157  -12.2504   19.4650 C   0  0  0  0  0  0
  -29.5033  -12.4371   18.2335 C   0  0  0  0  0  0
  -28.0224  -12.3150   18.6403 C   0  0  0  0  0  0
  -27.6565  -13.1953   19.8664 C   0  0  2  0  0  0
  -28.6988  -13.0432   21.0038 C   0  0  0  0  0  0
  -25.2581  -13.8122   20.5696 C   0  0  0  0  0  0
  -24.1824  -13.0426   20.9199 C   0  0  0  0  0  0
  -24.6359  -11.6893   20.8770 C   0  0  0  0  0  0
  -23.9025  -10.4294   21.0436 C   0  0  0  0  0  0
  -24.3586   -9.4196   21.9198 C   0  0  0  0  0  0
  -23.6276   -8.2240   22.0753 C   0  0  0  0  0  0
  -22.4259   -8.0277   21.3546 C   0  0  0  0  0  0
  -21.9892   -9.0255   20.4654 C   0  0  0  0  0  0
  -22.7205  -10.2140   20.3076 C   0  0  0  0  0  0
  -21.6846   -6.0730   22.5281 C   0  0  0  0  0  0
  -21.4014   -6.5638   23.8214 C   0  0  0  0  0  0
  -21.3653   -5.6794   24.9178 C   0  0  0  0  0  0
  -21.6054   -4.3063   24.7236 C   0  0  0  0  0  0
  -21.8810   -3.8146   23.4345 C   0  0  0  0  0  0
  -21.9191   -4.6963   22.3401 C   0  0  0  0  0  0
  -22.7850  -13.5250   21.1870 C   0  0  0  0  0  0
  -22.1656   -4.2150   21.0984 F   0  0  0  0  0  0
  -21.5626   -3.4541   25.7738 F   0  0  0  0  0  0
  -30.0404  -13.2757   20.4442 N   0  0  0  0  0  0
  -26.3004  -12.9271   20.3356 N   0  0  0  0  0  0
  -25.9284  -11.6463   20.5802 N   0  0  0  0  0  0
  -22.0472  -12.8273   22.0412 N   0  0  0  0  0  0
  -25.4321  -15.1856   20.4069 N   0  0  0  0  0  0
  -31.8891  -14.5858   20.1405 O   0  0  0  0  0  0
  -21.6631   -6.8866   21.4237 O   0  0  0  0  0  0
  -22.3567  -14.5560   20.6685 O   0  0  0  0  0  0
  -24.6087  -31.8710   23.2164 C   0  0  0  0  0  0
  -25.8979  -32.4842   23.8460 C   0  0  1  0  0  0
  -27.2599  -27.4828   20.0686 C   0  0  0  0  0  0
  -25.5847  -33.8647   24.2358 N   0  0  0  0  0  0
  -23.3965  -30.4892   21.5592 C   0  0  2  0  0  0
  -24.8478  -28.9549   20.1298 C   0  0  0  0  0  0
  -22.7388  -29.4631   22.5066 C   0  0  0  0  0  0
  -18.0241  -28.1368   22.8486 C   0  0  0  0  0  0
  -24.1482  -36.7348   23.2630 C   0  0  0  0  0  0
  -25.9199  -30.8481   21.3646 C   0  0  0  0  0  0
  -26.0039  -29.4826   20.7152 C   0  0  0  0  0  0
  -27.2128  -28.7549   20.6768 C   0  0  0  0  0  0
  -26.0792  -26.9451   19.5055 C   0  0  0  0  0  0
  -24.8787  -27.6841   19.5270 C   0  0  0  0  0  0
  -23.6049  -29.8152   20.1783 C   0  0  0  0  0  0
  -25.4104  -36.3141   24.0340 C   0  0  1  0  0  0
  -20.5822  -28.3633   23.1393 C   0  0  2  0  0  0
  -20.6730  -26.9376   22.5459 C   0  0  0  0  0  0
  -19.5725  -26.6380   21.5233 C   0  0  0  0  0  0
  -18.1905  -26.7910   22.1629 C   0  0  0  0  0  0
  -19.1491  -28.8815   23.2922 C   0  0  0  0  0  0
  -18.9423  -30.1430   23.8920 C   0  0  0  0  0  0
  -17.6414  -30.6573   24.0567 C   0  0  0  0  0  0
  -25.9023  -34.9489   23.5154 C   0  0  0  0  0  0
  -16.5316  -29.9073   23.6303 C   0  0  0  0  0  0
  -16.7239  -28.6505   23.0323 C   0  0  0  0  0  0
  -26.4439  -31.6609   25.0761 C   0  0  0  0  0  0
  -25.3724  -31.3729   26.1526 C   0  0  0  0  0  0
  -27.0271  -30.3054   24.6129 C   0  0  0  0  0  0
  -27.6042  -32.4343   25.7468 C   0  0  0  0  0  0
  -27.5588  -37.1832   24.8458 C   0  0  0  0  0  0
  -21.4110  -29.3018   22.3839 N   0  0  0  0  0  0
  -26.4307  -37.3824   23.9388 N   0  0  0  0  0  0
  -24.6600  -31.0818   22.1070 N   0  0  0  0  0  0
  -23.4175  -28.8162   23.3096 O   0  0  0  0  0  0
  -28.4839  -26.8675   19.9512 O   0  0  0  0  0  0
  -26.5618  -34.8932   22.4727 O   0  0  0  0  0  0
  -23.5301  -32.1447   23.7585 O   0  0  0  0  0  0
  -28.6344  -21.1378   23.9646 C   0  0  0  0  0  0
  -29.1329  -19.8744   24.3034 C   0  0  0  0  0  0
  -29.0149  -21.6580   22.7243 C   0  0  0  0  0  0
  -30.2576  -19.7865   22.3164 C   0  0  0  0  0  0
  -28.7521  -19.1973   25.6021 C   0  0  0  0  0  0
  -28.4855  -22.9820   22.2211 C   0  0  0  0  0  0
  -31.0925  -18.9898   21.3294 C   0  0  0  0  0  0
  -29.5862  -24.0461   22.1590 C   0  0  0  0  0  0
  -29.0713  -25.4235   21.7236 C   0  0  0  0  0  0
  -30.9202  -17.5626   19.2045 C   0  0  0  0  0  0
  -29.9435  -16.3714   19.1324 C   0  0  0  0  0  0
  -28.6097  -25.4890   20.2632 C   0  0  0  0  0  0
  -30.3632  -18.7747   19.9862 C   0  0  2  0  0  0
  -29.9432  -19.2004   23.4671 N   0  0  0  0  0  0
  -29.8421  -20.9828   21.9037 N   0  0  0  0  0  0
  -29.8765  -15.5063   20.3202 N   0  0  0  0  0  0
  -30.3621  -20.0091   19.1657 N   0  3  0  0  0  0
  -31.4668  -12.3147   19.1757 H   0  0  0  0  0  0
  -30.2803  -11.2606   19.9012 H   0  0  0  0  0  0
  -29.7415  -11.6854   17.4810 H   0  0  0  0  0  0
  -29.6833  -13.4063   17.7666 H   0  0  0  0  0  0
  -27.8405  -11.2661   18.8809 H   0  0  0  0  0  0
  -27.3725  -12.5477   17.7972 H   0  0  0  0  0  0
  -27.6765  -14.2246   19.5139 H   0  0  0  0  0  0
  -28.6502  -12.0463   21.4428 H   0  0  0  0  0  0
  -28.4815  -13.7403   21.8153 H   0  0  0  0  0  0
  -25.2725   -9.5690   22.4771 H   0  0  0  0  0  0
  -23.9992   -7.4627   22.7460 H   0  0  0  0  0  0
  -21.0823   -8.8759   19.8957 H   0  0  0  0  0  0
  -22.3646  -10.9680   19.6202 H   0  0  0  0  0  0
  -21.2002   -7.6152   23.9720 H   0  0  0  0  0  0
  -21.1489   -6.0525   25.9080 H   0  0  0  0  0  0
  -22.0594   -2.7609   23.2846 H   0  0  0  0  0  0
  -22.4063  -11.9964   22.4867 H   0  0  0  0  0  0
  -21.1102  -13.1321   22.2590 H   0  0  0  0  0  0
  -24.6634  -15.8407   20.5127 H   0  0  0  0  0  0
  -26.2786  -15.6240   20.0681 H   0  0  0  0  0  0
  -26.7048  -32.5573   23.1249 H   0  0  0  0  0  0
  -24.9920  -33.9821   25.0447 H   0  0  0  0  0  0
  -22.6809  -31.3030   21.4198 H   0  0  0  0  0  0
  -23.3753  -35.9673   23.3290 H   0  0  0  0  0  0
  -24.3601  -36.8975   22.2050 H   0  0  0  0  0  0
  -23.7229  -37.6546   23.6664 H   0  0  0  0  0  0
  -26.0184  -31.6170   20.5980 H   0  0  0  0  0  0
  -26.8134  -30.9121   21.9747 H   0  0  0  0  0  0
  -28.1172  -29.1760   21.0966 H   0  0  0  0  0  0
  -26.0843  -25.9847   19.0131 H   0  0  0  0  0  0
  -23.9907  -27.2730   19.0681 H   0  0  0  0  0  0
  -23.7101  -30.5868   19.4166 H   0  0  0  0  0  0
  -22.7313  -29.2344   19.8805 H   0  0  0  0  0  0
  -25.1275  -36.2041   25.0850 H   0  0  0  0  0  0
  -20.9886  -28.3163   24.1519 H   0  0  0  0  0  0
  -20.5644  -26.2218   23.3612 H   0  0  0  0  0  0
  -21.6600  -26.7438   22.1249 H   0  0  0  0  0  0
  -19.6899  -25.6307   21.1225 H   0  0  0  0  0  0
  -19.6671  -27.3216   20.6789 H   0  0  0  0  0  0
  -17.4167  -26.6649   21.4030 H   0  0  0  0  0  0
  -18.0308  -26.0053   22.9034 H   0  0  0  0  0  0
  -19.7890  -30.7248   24.2308 H   0  0  0  0  0  0
  -17.4964  -31.6243   24.5174 H   0  0  0  0  0  0
  -15.5314  -30.2990   23.7620 H   0  0  0  0  0  0
  -15.8629  -28.0844   22.7014 H   0  0  0  0  0  0
  -24.5875  -30.7098   25.7877 H   0  0  0  0  0  0
  -24.8917  -32.2880   26.4995 H   0  0  0  0  0  0
  -25.8059  -30.8879   27.0273 H   0  0  0  0  0  0
  -26.2808  -29.6803   24.1213 H   0  0  0  0  0  0
  -27.4072  -29.7314   25.4586 H   0  0  0  0  0  0
  -27.8627  -30.4377   23.9254 H   0  0  0  0  0  0
  -27.2679  -33.3619   26.2130 H   0  0  0  0  0  0
  -28.3767  -32.6970   25.0217 H   0  0  0  0  0  0
  -28.0828  -31.8436   26.5295 H   0  0  0  0  0  0
  -28.2629  -38.0104   24.7473 H   0  0  0  0  0  0
  -28.1058  -36.2637   24.6317 H   0  0  0  0  0  0
  -27.2304  -37.1522   25.8862 H   0  0  0  0  0  0
  -20.9291  -29.8743   21.7046 H   0  0  0  0  0  0
  -26.0205  -38.2915   24.1380 H   0  0  0  0  0  0
  -27.9720  -21.6828   24.6238 H   0  0  0  0  0  0
  -27.6726  -19.2570   25.7487 H   0  0  0  0  0  0
  -29.2488  -19.6815   26.4442 H   0  0  0  0  0  0
  -29.0322  -18.1429   25.6025 H   0  0  0  0  0  0
  -27.6727  -23.3227   22.8663 H   0  0  0  0  0  0
  -28.0455  -22.8243   21.2355 H   0  0  0  0  0  0
  -31.2956  -18.0144   21.7747 H   0  0  0  0  0  0
  -32.0684  -19.4581   21.1882 H   0  0  0  0  0  0
  -30.3828  -23.7216   21.4885 H   0  0  0  0  0  0
  -30.0323  -24.1374   23.1499 H   0  0  0  0  0  0
  -29.8722  -26.1482   21.8623 H   0  0  0  0  0  0
  -28.2662  -25.7444   22.3821 H   0  0  0  0  0  0
  -31.1307  -17.8609   18.1753 H   0  0  0  0  0  0
  -31.8909  -17.2523   19.5963 H   0  0  0  0  0  0
  -28.9371  -16.7195   18.9014 H   0  0  0  0  0  0
  -30.2188  -15.7549   18.2756 H   0  0  0  0  0  0
  -27.6952  -24.9177   20.1007 H   0  0  0  0  0  0
  -29.3719  -25.0685   19.6044 H   0  0  0  0  0  0
  -29.3177  -18.5718   20.2195 H   0  0  0  0  0  0
  -28.9447  -15.3259   20.6647 H   0  0  0  0  0  0
  -31.2848  -20.2486   18.8425 H   0  0  0  0  0  0
  -30.0279  -20.7688   19.7448 H   0  0  0  0  0  0
  -29.7514  -19.9228   18.3697 H   0  0  0  0  0  0
  1 25  1  0  0  0
  1 30  2  0  0  0
  1 86  1  0  0  0
  2  3  1  0  0  0
  2 25  1  0  0  0
  2 88  1  0  0  0
  2 89  1  0  0  0
  3  4  1  0  0  0
  3 90  1  0  0  0
  3 91  1  0  0  0
  4  5  1  0  0  0
  4 92  1  0  0  0
  4 93  1  0  0  0
  5  6  1  0  0  0
  5 26  1  0  0  0
  5 94  1  0  0  0
  6 25  1  0  0  0
  6 95  1  0  0  0
  6 96  1  0  0  0
  7  8  2  0  0  0
  7 26  1  0  0  0
  7 29  1  0  0  0
  8  9  1  0  0  0
  8 22  1  0  0  0
  9 10  1  0  0  0
  9 27  2  0  0  0
 10 11  2  0  0  0
 10 15  1  0  0  0
 11 12  1  0  0  0
 11 97  1  0  0  0
 12 13  2  0  0  0
 12 98  1  0  0  0
 13 14  1  0  0  0
 13 31  1  0  0  0
 14 15  2  0  0  0
 14 99  1  0  0  0
 15100  1  0  0  0
 16 17  2  0  0  0
 16 21  1  0  0  0
 16 31  1  0  0  0
 17 18  1  0  0  0
 17101  1  0  0  0
 18 19  2  0  0  0
 18102  1  0  0  0
 19 20  1  0  0  0
 19 24  1  0  0  0
 20 21  2  0  0  0
 20103  1  0  0  0
 21 23  1  0  0  0
 22 28  1  0  0  0
 22 32  2  0  0  0
 26 27  1  0  0  0
 28104  1  0  0  0
 28105  1  0  0  0
 29106  1  0  0  0
 29107  1  0  0  0
 33 34  1  0  0  0
 33 66  1  0  0  0
 33 70  2  0  0  0
 34 36  1  0  0  0
 34 59  1  0  0  0
 34108  1  0  0  0
 35 44  2  0  0  0
 35 45  1  0  0  0
 35 68  1  0  0  0
 36 56  1  0  0  0
 36109  1  0  0  0
 37 39  1  0  0  0
 37 47  1  0  0  0
 37 66  1  0  0  0
 37110  1  0  0  0
 38 43  2  0  0  0
 38 46  1  0  0  0
 38 47  1  0  0  0
 39 64  1  0  0  0
 39 67  2  0  0  0
 40 52  1  0  0  0
 40 53  2  0  0  0
 40 58  1  0  0  0
 41111  1  0  0  0
 41112  1  0  0  0
 41113  1  0  0  0
 41 48  1  0  0  0
 42 43  1  0  0  0
 42 66  1  0  0  0
 42114  1  0  0  0
 42115  1  0  0  0
 43 44  1  0  0  0
 44116  1  0  0  0
 45 46  2  0  0  0
 45117  1  0  0  0
 46118  1  0  0  0
 47119  1  0  0  0
 47120  1  0  0  0
 48 56  1  0  0  0
 48 65  1  0  0  0
 48121  1  0  0  0
 49 50  1  0  0  0
 49 53  1  0  0  0
 49 64  1  0  0  0
 49122  1  0  0  0
 50 51  1  0  0  0
 50123  1  0  0  0
 50124  1  0  0  0
 51 52  1  0  0  0
 51125  1  0  0  0
 51126  1  0  0  0
 52127  1  0  0  0
 52128  1  0  0  0
 53 54  1  0  0  0
 54 55  2  0  0  0
 54129  1  0  0  0
 55 57  1  0  0  0
 55130  1  0  0  0
 56 69  2  0  0  0
 57 58  2  0  0  0
 57131  1  0  0  0
 58132  1  0  0  0
 59 60  1  0  0  0
 59 61  1  0  0  0
 59 62  1  0  0  0
 60133  1  0  0  0
 60134  1  0  0  0
 60135  1  0  0  0
 61136  1  0  0  0
 61137  1  0  0  0
 61138  1  0  0  0
 62139  1  0  0  0
 62140  1  0  0  0
 62141  1  0  0  0
 63 65  1  0  0  0
 63142  1  0  0  0
 63143  1  0  0  0
 63144  1  0  0  0
 64145  1  0  0  0
 65146  1  0  0  0
 68 82  1  0  0  0
 71 72  2  0  0  0
 71 73  1  0  0  0
 71147  1  0  0  0
 72 75  1  0  0  0
 72 84  1  0  0  0
 73 76  1  0  0  0
 73 85  2  0  0  0
 74 77  1  0  0  0
 74 84  2  0  0  0
 74 85  1  0  0  0
 75148  1  0  0  0
 75149  1  0  0  0
 75150  1  0  0  0
 76 78  1  0  0  0
 76151  1  0  0  0
 76152  1  0  0  0
 77 83  1  0  0  0
 77153  1  0  0  0
 77154  1  0  0  0
 78 79  1  0  0  0
 78155  1  0  0  0
 78156  1  0  0  0
 79 82  1  0  0  0
 79157  1  0  0  0
 79158  1  0  0  0
 80 81  1  0  0  0
 80 83  1  0  0  0
 80159  1  0  0  0
 80160  1  0  0  0
 81 86  1  0  0  0
 81161  1  0  0  0
 81162  1  0  0  0
 82163  1  0  0  0
 82164  1  0  0  0
 83 87  1  0  0  0
 83165  1  0  0  0
 86166  1  0  0  0
 87167  1  0  0  0
 87168  1  0  0  0
 87169  1  0  0  0
M  CHG  1  87   1
M  ISO  4   1 100  68 101  82 101  86 100
M  END
> <chiral flag>
0

> <version>
0

> <s_m_source_file>
/data/baiqing/PycharmProjects/Reinvent-master-3.2/result/LINK_invent/BTK/process_docking_weight1_custom_sum_contain_oxygen_bond_distance_aromatic_linkinvent_7_9_3/rearranged_h_0097.sdf

> <i_m_source_file_index>
42

> <r_mmod_Potential_Energy-OPLS-2005>
-617.264404296875

> <r_mmod_Stretch_Energy-OPLS-2005>
30.4388008117676

> <r_mmod_Bend_Energy-OPLS-2005>
103.393310546875

> <r_mmod_Torsional_Energy-OPLS-2005>
268.988311767578

> <r_mmod_Improper_Torsional_Energy-OPLS-2005>
17.9398365020752

> <r_mmod_Van_der_Waal_Energy-OPLS-2005>
161.781936645508

> <r_mmod_Electrostatic_Energy-OPLS-2005>
-733.212646484375

> <r_mmod_Solvation_Energy-OPLS-2005>
-488.254333496094

> <b_mmod_Minimization_Converged-OPLS-2005>
0

> <r_mmod_RMS_Derivative-OPLS-2005>
4.68964099884033

$$$$
42
                    3D
 Structure written by MMmdl.
166174  0  0  1  0            999 V2000
  -30.6235  -14.7197   20.4950 C   0  0  0  0  0  0
  -30.4366  -12.4519   19.4569 C   0  0  0  0  0  0
  -29.5090  -12.5090   18.2243 C   0  0  0  0  0  0
  -28.0354  -12.3279   18.6403 C   0  0  0  0  0  0
  -27.6430  -13.2235   19.8464 C   0  0  2  0  0  0
  -28.6897  -13.1461   20.9779 C   0  0  0  0  0  0
  -25.2528  -13.8180   20.5650 C   0  0  0  0  0  0
  -24.1812  -13.0440   20.9202 C   0  0  0  0  0  0
  -24.6395  -11.6913   20.8743 C   0  0  0  0  0  0
  -23.9060  -10.4301   21.0395 C   0  0  0  0  0  0
  -24.3617   -9.4210   21.9169 C   0  0  0  0  0  0
  -23.6301   -8.2241   22.0738 C   0  0  0  0  0  0
  -22.4285   -8.0275   21.3529 C   0  0  0  0  0  0
  -21.9916   -9.0254   20.4638 C   0  0  0  0  0  0
  -22.7233  -10.2139   20.3041 C   0  0  0  0  0  0
  -21.6859   -6.0736   22.5283 C   0  0  0  0  0  0
  -21.4017   -6.5638   23.8219 C   0  0  0  0  0  0
  -21.3658   -5.6789   24.9179 C   0  0  0  0  0  0
  -21.6045   -4.3054   24.7225 C   0  0  0  0  0  0
  -21.8818   -3.8145   23.4345 C   0  0  0  0  0  0
  -21.9198   -4.6963   22.3405 C   0  0  0  0  0  0
  -22.7840  -13.5229   21.1869 C   0  0  0  0  0  0
  -22.1652   -4.2145   21.0982 F   0  0  0  0  0  0
  -21.5635   -3.4541   25.7737 F   0  0  0  0  0  0
  -29.9876  -13.5051   20.3928 N   0  0  0  0  0  0
  -26.2946  -12.9365   20.3247 N   0  0  0  0  0  0
  -25.9320  -11.6516   20.5723 N   0  0  0  0  0  0
  -22.0473  -12.8234   22.0434 N   0  0  0  0  0  0
  -25.4234  -15.1903   20.4009 N   0  0  0  0  0  0
  -31.8177  -14.8199   20.2045 O   0  0  0  0  0  0
  -21.6637   -6.8880   21.4244 O   0  0  0  0  0  0
  -22.3517  -14.5531   20.6702 O   0  0  0  0  0  0
  -24.6307  -31.8539   23.1978 C   0  0  0  0  0  0
  -25.9117  -32.4753   23.8334 C   0  0  1  0  0  0
  -27.2242  -27.2633   20.1421 C   0  0  0  0  0  0
  -25.5904  -33.8559   24.2250 N   0  0  0  0  0  0
  -23.4292  -30.4766   21.5392 C   0  0  2  0  0  0
  -24.8791  -28.9214   20.1127 C   0  0  0  0  0  0
  -22.7504  -29.4599   22.4890 C   0  0  0  0  0  0
  -18.0290  -28.1413   22.8488 C   0  0  0  0  0  0
  -24.1477  -36.7292   23.2644 C   0  0  0  0  0  0
  -25.9737  -30.7702   21.3761 C   0  0  0  0  0  0
  -26.0497  -29.3916   20.7227 C   0  0  0  0  0  0
  -27.2272  -28.5754   20.7244 C   0  0  0  0  0  0
  -26.0354  -26.8634   19.4951 C   0  0  0  0  0  0
  -24.8769  -27.6659   19.4860 C   0  0  0  0  0  0
  -23.6503  -29.8092   20.1561 C   0  0  0  0  0  0
  -25.4102  -36.3072   24.0326 C   0  0  1  0  0  0
  -20.5898  -28.3714   23.1263 C   0  0  2  0  0  0
  -20.6774  -26.9430   22.5415 C   0  0  0  0  0  0
  -19.5755  -26.6399   21.5213 C   0  0  0  0  0  0
  -18.1933  -26.7953   22.1624 C   0  0  0  0  0  0
  -19.1547  -28.8875   23.2878 C   0  0  0  0  0  0
  -18.9470  -30.1474   23.8901 C   0  0  0  0  0  0
  -17.6475  -30.6610   24.0572 C   0  0  0  0  0  0
  -25.9036  -34.9440   23.5089 C   0  0  0  0  0  0
  -16.5361  -29.9118   23.6345 C   0  0  0  0  0  0
  -16.7274  -28.6535   23.0355 C   0  0  0  0  0  0
  -26.4486  -31.6598   25.0729 C   0  0  0  0  0  0
  -25.3709  -31.3777   26.1456 C   0  0  0  0  0  0
  -27.0329  -30.3014   24.6225 C   0  0  0  0  0  0
  -27.6033  -32.4342   25.7495 C   0  0  0  0  0  0
  -27.5572  -37.1798   24.8463 C   0  0  0  0  0  0
  -21.4208  -29.3052   22.3642 N   0  0  0  0  0  0
  -26.4281  -37.3771   23.9409 N   0  0  0  0  0  0
  -24.6968  -31.0512   22.0947 N   0  0  0  0  0  0
  -23.4197  -28.8136   23.2990 O   0  0  0  0  0  0
  -28.3143  -26.3618   20.1732 O   0  0  0  0  0  0
  -26.5631  -34.8922   22.4678 O   0  0  0  0  0  0
  -23.5450  -32.1350   23.7274 O   0  0  0  0  0  0
  -30.2777  -19.1335   19.3641 C   0  0  0  0  0  0
  -29.2512  -19.7136   21.2091 C   0  0  0  0  0  0
  -29.8982  -18.6161   20.6361 C   0  0  0  0  0  0
  -29.9339  -20.4681   19.2310 C   0  0  0  0  0  0
  -29.1339  -22.7105   16.1363 C   0  0  0  0  0  0
  -31.4108  -20.8753   17.2300 C   0  0  0  0  0  0
  -28.1620  -25.1121   22.2221 C   0  0  0  0  0  0
  -30.2972  -17.2066   21.2697 C   0  0  0  0  0  0
  -28.9752  -21.5946   17.1815 C   0  0  0  0  0  0
  -28.9635  -23.6882   20.2065 C   0  0  0  0  0  0
  -28.5496  -22.2034   20.7346 C   0  0  0  0  0  0
  -30.2208  -21.3807   18.0669 C   0  0  1  0  0  0
  -28.0788  -24.9660   20.6934 C   0  0  2  0  0  0
  -29.2562  -20.8777   20.3887 N   0  0  0  0  0  0
  -29.8586  -15.8416   20.7629 N   0  0  0  0  0  0
  -31.4749  -12.5904   19.1508 H   0  0  0  0  0  0
  -30.3898  -11.4713   19.9333 H   0  0  0  0  0  0
  -29.7913  -11.7393   17.5046 H   0  0  0  0  0  0
  -29.6329  -13.4673   17.7154 H   0  0  0  0  0  0
  -27.8972  -11.2788   18.9040 H   0  0  0  0  0  0
  -27.3748  -12.5172   17.7921 H   0  0  0  0  0  0
  -27.6414  -14.2466   19.4723 H   0  0  0  0  0  0
  -28.7287  -12.1432   21.4061 H   0  0  0  0  0  0
  -28.4267  -13.8191   21.7958 H   0  0  0  0  0  0
  -25.2758   -9.5706   22.4738 H   0  0  0  0  0  0
  -24.0020   -7.4640   22.7460 H   0  0  0  0  0  0
  -21.0839   -8.8771   19.8953 H   0  0  0  0  0  0
  -22.3673  -10.9679   19.6154 H   0  0  0  0  0  0
  -21.1996   -7.6145   23.9728 H   0  0  0  0  0  0
  -21.1479   -6.0508   25.9087 H   0  0  0  0  0  0
  -22.0599   -2.7605   23.2844 H   0  0  0  0  0  0
  -22.4072  -11.9908   22.4859 H   0  0  0  0  0  0
  -21.1080  -13.1256   22.2600 H   0  0  0  0  0  0
  -24.6553  -15.8445   20.5049 H   0  0  0  0  0  0
  -26.2630  -15.6297   20.0445 H   0  0  0  0  0  0
  -26.7185  -32.5417   23.1085 H   0  0  0  0  0  0
  -25.0003  -33.9690   25.0358 H   0  0  0  0  0  0
  -22.7262  -31.2994   21.3915 H   0  0  0  0  0  0
  -23.3733  -35.9632   23.3296 H   0  0  0  0  0  0
  -24.3571  -36.8931   22.2063 H   0  0  0  0  0  0
  -23.7233  -37.6491   23.6678 H   0  0  0  0  0  0
  -26.1051  -31.5284   20.6028 H   0  0  0  0  0  0
  -26.8537  -30.8260   22.0059 H   0  0  0  0  0  0
  -28.1230  -28.9288   21.2162 H   0  0  0  0  0  0
  -25.9882  -25.9044   18.9981 H   0  0  0  0  0  0
  -23.9819  -27.3032   18.9987 H   0  0  0  0  0  0
  -23.7794  -30.5851   19.4004 H   0  0  0  0  0  0
  -22.7688  -29.2440   19.8478 H   0  0  0  0  0  0
  -25.1285  -36.1918   25.0818 H   0  0  0  0  0  0
  -20.9993  -28.3298   24.1380 H   0  0  0  0  0  0
  -20.5661  -26.2322   23.3623 H   0  0  0  0  0  0
  -21.6639  -26.7451   22.1209 H   0  0  0  0  0  0
  -19.6906  -25.6305   21.1250 H   0  0  0  0  0  0
  -19.6695  -27.3204   20.6740 H   0  0  0  0  0  0
  -17.4197  -26.6703   21.4032 H   0  0  0  0  0  0
  -18.0337  -26.0110   22.9035 H   0  0  0  0  0  0
  -19.7948  -30.7292   24.2271 H   0  0  0  0  0  0
  -17.5032  -31.6287   24.5186 H   0  0  0  0  0  0
  -15.5365  -30.3024   23.7664 H   0  0  0  0  0  0
  -15.8675  -28.0861   22.7064 H   0  0  0  0  0  0
  -24.5853  -30.7157   25.7802 H   0  0  0  0  0  0
  -24.8934  -32.2961   26.4879 H   0  0  0  0  0  0
  -25.8016  -30.8957   27.0241 H   0  0  0  0  0  0
  -26.2927  -29.6764   24.1221 H   0  0  0  0  0  0
  -27.3974  -29.7281   25.4757 H   0  0  0  0  0  0
  -27.8811  -30.4283   23.9496 H   0  0  0  0  0  0
  -27.2644  -33.3656   26.2047 H   0  0  0  0  0  0
  -28.3858  -32.6887   25.0333 H   0  0  0  0  0  0
  -28.0683  -31.8485   26.5438 H   0  0  0  0  0  0
  -28.2590  -38.0097   24.7500 H   0  0  0  0  0  0
  -28.1068  -36.2623   24.6286 H   0  0  0  0  0  0
  -27.2297  -37.1447   25.8873 H   0  0  0  0  0  0
  -20.9388  -29.8792   21.6867 H   0  0  0  0  0  0
  -26.0154  -38.2842   24.1429 H   0  0  0  0  0  0
  -30.8277  -18.5738   18.6181 H   0  0  0  0  0  0
  -28.7896  -19.7805   22.1862 H   0  0  0  0  0  0
  -28.1767  -22.9354   15.6647 H   0  0  0  0  0  0
  -29.8244  -22.4247   15.3428 H   0  0  0  0  0  0
  -29.5049  -23.6305   16.5896 H   0  0  0  0  0  0
  -32.2871  -20.7192   17.8601 H   0  0  0  0  0  0
  -31.7006  -21.5887   16.4590 H   0  0  0  0  0  0
  -31.1820  -19.9317   16.7339 H   0  0  0  0  0  0
  -27.8291  -24.2111   22.7373 H   0  0  0  0  0  0
  -27.5307  -25.9271   22.5787 H   0  0  0  0  0  0
  -29.1836  -25.3243   22.5411 H   0  0  0  0  0  0
  -29.9807  -17.2407   22.3129 H   0  0  0  0  0  0
  -31.3866  -17.1977   21.3225 H   0  0  0  0  0  0
  -28.7067  -20.6611   16.6858 H   0  0  0  0  0  0
  -28.1245  -21.8450   17.8150 H   0  0  0  0  0  0
  -28.9173  -23.6894   19.1207 H   0  0  0  0  0  0
  -30.0089  -23.8678   20.4619 H   0  0  0  0  0  0
  -27.5026  -22.0580   20.4671 H   0  0  0  0  0  0
  -28.5464  -22.2510   21.8226 H   0  0  0  0  0  0
  -30.5380  -22.3423   18.4666 H   0  0  0  0  0  0
  -27.0506  -24.6827   20.4702 H   0  0  0  0  0  0
  -28.8703  -15.6627   20.8487 H   0  0  0  0  0  0
  1 25  1  0  0  0
  1 30  2  0  0  0
  1 85  1  0  0  0
  2  3  1  0  0  0
  2 25  1  0  0  0
  2 86  1  0  0  0
  2 87  1  0  0  0
  3  4  1  0  0  0
  3 88  1  0  0  0
  3 89  1  0  0  0
  4  5  1  0  0  0
  4 90  1  0  0  0
  4 91  1  0  0  0
  5  6  1  0  0  0
  5 26  1  0  0  0
  5 92  1  0  0  0
  6 25  1  0  0  0
  6 93  1  0  0  0
  6 94  1  0  0  0
  7  8  2  0  0  0
  7 26  1  0  0  0
  7 29  1  0  0  0
  8  9  1  0  0  0
  8 22  1  0  0  0
  9 10  1  0  0  0
  9 27  2  0  0  0
 10 11  2  0  0  0
 10 15  1  0  0  0
 11 12  1  0  0  0
 11 95  1  0  0  0
 12 13  2  0  0  0
 12 96  1  0  0  0
 13 14  1  0  0  0
 13 31  1  0  0  0
 14 15  2  0  0  0
 14 97  1  0  0  0
 15 98  1  0  0  0
 16 17  2  0  0  0
 16 21  1  0  0  0
 16 31  1  0  0  0
 17 18  1  0  0  0
 17 99  1  0  0  0
 18 19  2  0  0  0
 18100  1  0  0  0
 19 20  1  0  0  0
 19 24  1  0  0  0
 20 21  2  0  0  0
 20101  1  0  0  0
 21 23  1  0  0  0
 22 28  1  0  0  0
 22 32  2  0  0  0
 26 27  1  0  0  0
 28102  1  0  0  0
 28103  1  0  0  0
 29104  1  0  0  0
 29105  1  0  0  0
 33 34  1  0  0  0
 33 66  1  0  0  0
 33 70  2  0  0  0
 34 36  1  0  0  0
 34 59  1  0  0  0
 34106  1  0  0  0
 35 44  2  0  0  0
 35 45  1  0  0  0
 35 68  1  0  0  0
 36 56  1  0  0  0
 36107  1  0  0  0
 37 39  1  0  0  0
 37 47  1  0  0  0
 37 66  1  0  0  0
 37108  1  0  0  0
 38 43  2  0  0  0
 38 46  1  0  0  0
 38 47  1  0  0  0
 39 64  1  0  0  0
 39 67  2  0  0  0
 40 52  1  0  0  0
 40 53  2  0  0  0
 40 58  1  0  0  0
 41109  1  0  0  0
 41110  1  0  0  0
 41111  1  0  0  0
 41 48  1  0  0  0
 42 43  1  0  0  0
 42 66  1  0  0  0
 42112  1  0  0  0
 42113  1  0  0  0
 43 44  1  0  0  0
 44114  1  0  0  0
 45 46  2  0  0  0
 45115  1  0  0  0
 46116  1  0  0  0
 47117  1  0  0  0
 47118  1  0  0  0
 48 56  1  0  0  0
 48 65  1  0  0  0
 48119  1  0  0  0
 49 50  1  0  0  0
 49 53  1  0  0  0
 49 64  1  0  0  0
 49120  1  0  0  0
 50 51  1  0  0  0
 50121  1  0  0  0
 50122  1  0  0  0
 51 52  1  0  0  0
 51123  1  0  0  0
 51124  1  0  0  0
 52125  1  0  0  0
 52126  1  0  0  0
 53 54  1  0  0  0
 54 55  2  0  0  0
 54127  1  0  0  0
 55 57  1  0  0  0
 55128  1  0  0  0
 56 69  2  0  0  0
 57 58  2  0  0  0
 57129  1  0  0  0
 58130  1  0  0  0
 59 60  1  0  0  0
 59 61  1  0  0  0
 59 62  1  0  0  0
 60131  1  0  0  0
 60132  1  0  0  0
 60133  1  0  0  0
 61134  1  0  0  0
 61135  1  0  0  0
 61136  1  0  0  0
 62137  1  0  0  0
 62138  1  0  0  0
 62139  1  0  0  0
 63 65  1  0  0  0
 63140  1  0  0  0
 63141  1  0  0  0
 63142  1  0  0  0
 64143  1  0  0  0
 65144  1  0  0  0
 68 83  1  0  0  0
 71 73  1  0  0  0
 71 74  2  0  0  0
 71145  1  0  0  0
 72 73  2  0  0  0
 72 84  1  0  0  0
 72146  1  0  0  0
 73 78  1  0  0  0
 74 82  1  0  0  0
 74 84  1  0  0  0
 75 79  1  0  0  0
 75147  1  0  0  0
 75148  1  0  0  0
 75149  1  0  0  0
 76150  1  0  0  0
 76151  1  0  0  0
 76152  1  0  0  0
 76 82  1  0  0  0
 77153  1  0  0  0
 77154  1  0  0  0
 77155  1  0  0  0
 77 83  1  0  0  0
 78 85  1  0  0  0
 78156  1  0  0  0
 78157  1  0  0  0
 79 82  1  0  0  0
 79158  1  0  0  0
 79159  1  0  0  0
 80 81  1  0  0  0
 80 83  1  0  0  0
 80160  1  0  0  0
 80161  1  0  0  0
 81 84  1  0  0  0
 81162  1  0  0  0
 81163  1  0  0  0
 82164  1  0  0  0
 83165  1  0  0  0
 85166  1  0  0  0
M  ISO  4   1 100  68 101  83 101  85 100
M  END
> <chiral flag>
0

> <version>
0

> <s_m_source_file>
/data/baiqing/PycharmProjects/Reinvent-master-3.2/result/LINK_invent/BTK/process_docking_weight1_custom_sum_contain_oxygen_bond_distance_aromatic_linkinvent_7_9_3/rearranged_h_0097.sdf

> <i_m_source_file_index>
43

> <r_mmod_Potential_Energy-OPLS-2005>
106.138862609863

> <r_mmod_Stretch_Energy-OPLS-2005>
120.721565246582

> <r_mmod_Bend_Energy-OPLS-2005>
186.5830078125

> <r_mmod_Torsional_Energy-OPLS-2005>
246.456649780273

> <r_mmod_Improper_Torsional_Energy-OPLS-2005>
5.28288078308105

> <r_mmod_Van_der_Waal_Energy-OPLS-2005>
114.03630065918

> <r_mmod_Electrostatic_Energy-OPLS-2005>
-441.779479980469

> <r_mmod_Solvation_Energy-OPLS-2005>
-205.763366699219

> <b_mmod_Minimization_Converged-OPLS-2005>
0

> <r_mmod_RMS_Derivative-OPLS-2005>
2.06706714630127

$$$$
43
                    3D
 Structure written by MMmdl.
166174  0  0  1  0            999 V2000
  -30.7361  -14.5960   20.6027 C   0  0  0  0  0  0
  -30.4432  -12.4162   19.4705 C   0  0  0  0  0  0
  -29.5128  -12.5428   18.2447 C   0  0  0  0  0  0
  -28.0429  -12.3759   18.6686 C   0  0  0  0  0  0
  -27.6658  -13.2363   19.9012 C   0  0  2  0  0  0
  -28.7214  -13.0919   21.0284 C   0  0  0  0  0  0
  -25.2570  -13.8231   20.5765 C   0  0  0  0  0  0
  -24.1805  -13.0479   20.9195 C   0  0  0  0  0  0
  -24.6380  -11.6956   20.8757 C   0  0  0  0  0  0
  -23.9026  -10.4305   21.0384 C   0  0  0  0  0  0
  -24.3570   -9.4198   21.9148 C   0  0  0  0  0  0
  -23.6251   -8.2233   22.0709 C   0  0  0  0  0  0
  -22.4250   -8.0241   21.3504 C   0  0  0  0  0  0
  -21.9878   -9.0213   20.4625 C   0  0  0  0  0  0
  -22.7188  -10.2130   20.3014 C   0  0  0  0  0  0
  -21.6833   -6.0685   22.5264 C   0  0  0  0  0  0
  -21.4027   -6.5592   23.8196 C   0  0  0  0  0  0
  -21.3652   -5.6763   24.9150 C   0  0  0  0  0  0
  -21.6033   -4.3026   24.7240 C   0  0  0  0  0  0
  -21.8821   -3.8095   23.4370 C   0  0  0  0  0  0
  -21.9207   -4.6910   22.3396 C   0  0  0  0  0  0
  -22.7819  -13.5302   21.1841 C   0  0  0  0  0  0
  -22.1658   -4.2062   21.0985 F   0  0  0  0  0  0
  -21.5642   -3.4501   25.7765 F   0  0  0  0  0  0
  -30.0325  -13.4285   20.4643 N   0  0  0  0  0  0
  -26.3070  -12.9452   20.3608 N   0  0  0  0  0  0
  -25.9360  -11.6571   20.5887 N   0  0  0  0  0  0
  -22.0448  -12.8240   22.0402 N   0  0  0  0  0  0
  -25.4354  -15.1910   20.4052 N   0  0  0  0  0  0
  -31.8706  -14.6951   20.1190 O   0  0  0  0  0  0
  -21.6631   -6.8832   21.4222 O   0  0  0  0  0  0
  -22.3490  -14.5571   20.6683 O   0  0  0  0  0  0
  -24.6092  -31.8644   23.2042 C   0  0  0  0  0  0
  -25.9020  -32.4819   23.8347 C   0  0  1  0  0  0
  -27.2111  -27.3760   20.0912 C   0  0  0  0  0  0
  -25.5890  -33.8610   24.2312 N   0  0  0  0  0  0
  -23.3921  -30.4962   21.5486 C   0  0  2  0  0  0
  -24.8329  -28.9533   20.1020 C   0  0  0  0  0  0
  -22.7329  -29.4693   22.4985 C   0  0  0  0  0  0
  -18.0263  -28.1336   22.8551 C   0  0  0  0  0  0
  -24.1463  -36.7288   23.2633 C   0  0  0  0  0  0
  -25.9302  -30.8115   21.3625 C   0  0  0  0  0  0
  -25.9962  -29.4434   20.7106 C   0  0  0  0  0  0
  -27.1797  -28.6605   20.6980 C   0  0  0  0  0  0
  -26.0183  -26.9087   19.4954 C   0  0  0  0  0  0
  -24.8421  -27.6861   19.4986 C   0  0  0  0  0  0
  -23.5915  -29.8297   20.1625 C   0  0  0  0  0  0
  -25.4103  -36.3157   24.0348 C   0  0  1  0  0  0
  -20.5901  -28.3560   23.1174 C   0  0  2  0  0  0
  -20.6755  -26.9250   22.5329 C   0  0  0  0  0  0
  -19.5625  -26.6277   21.5233 C   0  0  0  0  0  0
  -18.1887  -26.7916   22.1725 C   0  0  0  0  0  0
  -19.1528  -28.8770   23.2873 C   0  0  0  0  0  0
  -18.9549  -30.1444   23.8730 C   0  0  0  0  0  0
  -17.6575  -30.6608   24.0422 C   0  0  0  0  0  0
  -25.9019  -34.9495   23.5143 C   0  0  0  0  0  0
  -16.5382  -29.9097   23.6337 C   0  0  0  0  0  0
  -16.7241  -28.6447   23.0500 C   0  0  0  0  0  0
  -26.4466  -31.6626   25.0666 C   0  0  0  0  0  0
  -25.3749  -31.3684   26.1423 C   0  0  0  0  0  0
  -27.0379  -30.3084   24.6134 C   0  0  0  0  0  0
  -27.6081  -32.4295   25.7452 C   0  0  0  0  0  0
  -27.5592  -37.1815   24.8479 C   0  0  0  0  0  0
  -21.4116  -29.2882   22.3527 N   0  0  0  0  0  0
  -26.4324  -37.3814   23.9384 N   0  0  0  0  0  0
  -24.6650  -31.0767   22.0939 N   0  0  0  0  0  0
  -23.4111  -28.8348   23.3110 O   0  0  0  0  0  0
  -28.3831  -26.6273   20.1109 O   0  0  0  0  0  0
  -26.5614  -34.9006   22.4703 O   0  0  0  0  0  0
  -23.5341  -32.1336   23.7565 O   0  0  0  0  0  0
  -29.3315  -19.0901   20.2833 C   0  0  0  0  0  0
  -29.9257  -18.3437   21.2911 C   0  0  0  0  0  0
  -29.1082  -20.3075   22.1283 C   0  0  0  0  0  0
  -27.2209  -21.3999   23.4637 C   0  0  0  0  0  0
  -29.5926  -21.4065   24.3827 C   0  0  0  0  0  0
  -30.1584  -22.5564   19.2267 C   0  0  0  0  0  0
  -30.7709  -17.0381   21.2546 C   0  0  0  0  0  0
  -28.2260  -24.0299   20.1567 C   0  0  0  0  0  0
  -28.0132  -21.3208   20.0841 C   0  0  0  0  0  0
  -28.5377  -25.3793   19.3801 C   0  0  0  0  0  0
  -28.7181  -21.3903   23.1189 C   0  0  0  0  0  0
  -28.6428  -22.6545   19.4811 C   0  0  2  0  0  0
  -28.8467  -20.2834   20.8045 N   0  0  0  0  0  0
  -29.7146  -19.1280   22.4145 N   0  3  0  0  0  0
  -30.1367  -15.6832   21.1697 N   0  0  0  0  0  0
  -31.4840  -12.5265   19.1654 H   0  0  0  0  0  0
  -30.3755  -11.4292   19.9223 H   0  0  0  0  0  0
  -29.7782  -11.7875   17.5053 H   0  0  0  0  0  0
  -29.6518  -13.5101   17.7545 H   0  0  0  0  0  0
  -27.9031  -11.3316   18.9258 H   0  0  0  0  0  0
  -27.3698  -12.5882   17.8333 H   0  0  0  0  0  0
  -27.6826  -14.2721   19.5621 H   0  0  0  0  0  0
  -28.7529  -12.0677   21.4021 H   0  0  0  0  0  0
  -28.4843  -13.7144   21.8919 H   0  0  0  0  0  0
  -25.2688   -9.5713   22.4750 H   0  0  0  0  0  0
  -23.9919   -7.4656   22.7461 H   0  0  0  0  0  0
  -21.0776   -8.8728   19.8964 H   0  0  0  0  0  0
  -22.3565  -10.9645   19.6131 H   0  0  0  0  0  0
  -21.1998   -7.6089   23.9661 H   0  0  0  0  0  0
  -21.1482   -6.0489   25.9054 H   0  0  0  0  0  0
  -22.0625   -2.7531   23.2899 H   0  0  0  0  0  0
  -22.4004  -11.9905   22.4819 H   0  0  0  0  0  0
  -21.1080  -13.1275   22.2599 H   0  0  0  0  0  0
  -24.6965  -15.8826   20.4782 H   0  0  0  0  0  0
  -26.2966  -15.5804   20.0433 H   0  0  0  0  0  0
  -26.7033  -32.5570   23.1090 H   0  0  0  0  0  0
  -25.0145  -33.9724   25.0552 H   0  0  0  0  0  0
  -22.6785  -31.3141   21.4246 H   0  0  0  0  0  0
  -23.3777  -35.9580   23.3378 H   0  0  0  0  0  0
  -24.3491  -36.8790   22.2019 H   0  0  0  0  0  0
  -23.7223  -37.6504   23.6585 H   0  0  0  0  0  0
  -26.0512  -31.5723   20.5889 H   0  0  0  0  0  0
  -26.8135  -30.8688   21.9926 H   0  0  0  0  0  0
  -28.0707  -29.0327   21.1715 H   0  0  0  0  0  0
  -25.9766  -25.9286   19.0472 H   0  0  0  0  0  0
  -23.9439  -27.2860   19.0502 H   0  0  0  0  0  0
  -23.6758  -30.6075   19.4031 H   0  0  0  0  0  0
  -22.7115  -29.2462   19.8745 H   0  0  0  0  0  0
  -25.1324  -36.2030   25.0857 H   0  0  0  0  0  0
  -21.0161  -28.3305   24.1241 H   0  0  0  0  0  0
  -20.5617  -26.2171   23.3569 H   0  0  0  0  0  0
  -21.6680  -26.7200   22.1136 H   0  0  0  0  0  0
  -19.6667  -25.6176   21.1266 H   0  0  0  0  0  0
  -19.6539  -27.2988   20.6663 H   0  0  0  0  0  0
  -17.4133  -26.6630   21.4144 H   0  0  0  0  0  0
  -18.0300  -26.0141   22.9192 H   0  0  0  0  0  0
  -19.7936  -30.7456   24.1923 H   0  0  0  0  0  0
  -17.5243  -31.6397   24.4875 H   0  0  0  0  0  0
  -15.5400  -30.3082   23.7593 H   0  0  0  0  0  0
  -15.8625  -28.0710   22.7373 H   0  0  0  0  0  0
  -24.5917  -30.7039   25.7731 H   0  0  0  0  0  0
  -24.8972  -32.2821   26.4934 H   0  0  0  0  0  0
  -25.8108  -30.8781   27.0135 H   0  0  0  0  0  0
  -26.2945  -29.6722   24.1318 H   0  0  0  0  0  0
  -27.4222  -29.7451   25.4652 H   0  0  0  0  0  0
  -27.8752  -30.4344   23.9276 H   0  0  0  0  0  0
  -27.2702  -33.3543   26.2132 H   0  0  0  0  0  0
  -28.3903  -32.6857   25.0289 H   0  0  0  0  0  0
  -28.0754  -31.8323   26.5297 H   0  0  0  0  0  0
  -28.2726  -38.0016   24.7550 H   0  0  0  0  0  0
  -28.1022  -36.2583   24.6388 H   0  0  0  0  0  0
  -27.2275  -37.1546   25.8872 H   0  0  0  0  0  0
  -20.9341  -29.8008   21.6256 H   0  0  0  0  0  0
  -26.0263  -38.2921   24.1326 H   0  0  0  0  0  0
  -29.2250  -18.8510   19.2378 H   0  0  0  0  0  0
  -26.6314  -21.9295   22.7151 H   0  0  0  0  0  0
  -27.0477  -21.9287   24.3967 H   0  0  0  0  0  0
  -26.8269  -20.3881   23.5568 H   0  0  0  0  0  0
  -29.5026  -20.4644   24.9149 H   0  0  0  0  0  0
  -29.3015  -22.2043   25.0747 H   0  0  0  0  0  0
  -30.6433  -21.5664   24.1330 H   0  0  0  0  0  0
  -30.4988  -23.3688   18.5836 H   0  0  0  0  0  0
  -30.4352  -21.6364   18.7159 H   0  0  0  0  0  0
  -30.7147  -22.6019   20.1584 H   0  0  0  0  0  0
  -31.4989  -17.0261   22.0720 H   0  0  0  0  0  0
  -31.3758  -17.1168   20.3515 H   0  0  0  0  0  0
  -28.7108  -24.0858   21.1316 H   0  0  0  0  0  0
  -27.1534  -24.0144   20.3523 H   0  0  0  0  0  0
  -27.5624  -20.7715   19.2572 H   0  0  0  0  0  0
  -27.1288  -21.5224   20.6859 H   0  0  0  0  0  0
  -28.0036  -25.4114   18.4277 H   0  0  0  0  0  0
  -29.5997  -25.3850   19.1165 H   0  0  0  0  0  0
  -28.9233  -22.3260   22.6068 H   0  0  0  0  0  0
  -28.1876  -22.6940   18.4889 H   0  0  0  0  0  0
  -29.9622  -18.8417   23.3506 H   0  0  0  0  0  0
  -29.2664  -15.5682   21.6599 H   0  0  0  0  0  0
  1 25  1  0  0  0
  1 30  2  0  0  0
  1 85  1  0  0  0
  2  3  1  0  0  0
  2 25  1  0  0  0
  2 86  1  0  0  0
  2 87  1  0  0  0
  3  4  1  0  0  0
  3 88  1  0  0  0
  3 89  1  0  0  0
  4  5  1  0  0  0
  4 90  1  0  0  0
  4 91  1  0  0  0
  5  6  1  0  0  0
  5 26  1  0  0  0
  5 92  1  0  0  0
  6 25  1  0  0  0
  6 93  1  0  0  0
  6 94  1  0  0  0
  7  8  2  0  0  0
  7 26  1  0  0  0
  7 29  1  0  0  0
  8  9  1  0  0  0
  8 22  1  0  0  0
  9 10  1  0  0  0
  9 27  2  0  0  0
 10 11  2  0  0  0
 10 15  1  0  0  0
 11 12  1  0  0  0
 11 95  1  0  0  0
 12 13  2  0  0  0
 12 96  1  0  0  0
 13 14  1  0  0  0
 13 31  1  0  0  0
 14 15  2  0  0  0
 14 97  1  0  0  0
 15 98  1  0  0  0
 16 17  2  0  0  0
 16 21  1  0  0  0
 16 31  1  0  0  0
 17 18  1  0  0  0
 17 99  1  0  0  0
 18 19  2  0  0  0
 18100  1  0  0  0
 19 20  1  0  0  0
 19 24  1  0  0  0
 20 21  2  0  0  0
 20101  1  0  0  0
 21 23  1  0  0  0
 22 28  1  0  0  0
 22 32  2  0  0  0
 26 27  1  0  0  0
 28102  1  0  0  0
 28103  1  0  0  0
 29104  1  0  0  0
 29105  1  0  0  0
 33 34  1  0  0  0
 33 66  1  0  0  0
 33 70  2  0  0  0
 34 36  1  0  0  0
 34 59  1  0  0  0
 34106  1  0  0  0
 35 44  2  0  0  0
 35 45  1  0  0  0
 35 68  1  0  0  0
 36 56  1  0  0  0
 36107  1  0  0  0
 37 39  1  0  0  0
 37 47  1  0  0  0
 37 66  1  0  0  0
 37108  1  0  0  0
 38 43  2  0  0  0
 38 46  1  0  0  0
 38 47  1  0  0  0
 39 64  1  0  0  0
 39 67  2  0  0  0
 40 52  1  0  0  0
 40 53  2  0  0  0
 40 58  1  0  0  0
 41109  1  0  0  0
 41110  1  0  0  0
 41111  1  0  0  0
 41 48  1  0  0  0
 42 43  1  0  0  0
 42 66  1  0  0  0
 42112  1  0  0  0
 42113  1  0  0  0
 43 44  1  0  0  0
 44114  1  0  0  0
 45 46  2  0  0  0
 45115  1  0  0  0
 46116  1  0  0  0
 47117  1  0  0  0
 47118  1  0  0  0
 48 56  1  0  0  0
 48 65  1  0  0  0
 48119  1  0  0  0
 49 50  1  0  0  0
 49 53  1  0  0  0
 49 64  1  0  0  0
 49120  1  0  0  0
 50 51  1  0  0  0
 50121  1  0  0  0
 50122  1  0  0  0
 51 52  1  0  0  0
 51123  1  0  0  0
 51124  1  0  0  0
 52125  1  0  0  0
 52126  1  0  0  0
 53 54  1  0  0  0
 54 55  2  0  0  0
 54127  1  0  0  0
 55 57  1  0  0  0
 55128  1  0  0  0
 56 69  2  0  0  0
 57 58  2  0  0  0
 57129  1  0  0  0
 58130  1  0  0  0
 59 60  1  0  0  0
 59 61  1  0  0  0
 59 62  1  0  0  0
 60131  1  0  0  0
 60132  1  0  0  0
 60133  1  0  0  0
 61134  1  0  0  0
 61135  1  0  0  0
 61136  1  0  0  0
 62137  1  0  0  0
 62138  1  0  0  0
 62139  1  0  0  0
 63 65  1  0  0  0
 63140  1  0  0  0
 63141  1  0  0  0
 63142  1  0  0  0
 64143  1  0  0  0
 65144  1  0  0  0
 68 80  1  0  0  0
 71 72  2  0  0  0
 71 83  1  0  0  0
 71145  1  0  0  0
 72 77  1  0  0  0
 72 84  1  0  0  0
 73 81  1  0  0  0
 73 83  1  0  0  0
 73 84  2  0  0  0
 74146  1  0  0  0
 74147  1  0  0  0
 74148  1  0  0  0
 74 81  1  0  0  0
 75 81  1  0  0  0
 75149  1  0  0  0
 75150  1  0  0  0
 75151  1  0  0  0
 76152  1  0  0  0
 76153  1  0  0  0
 76154  1  0  0  0
 76 82  1  0  0  0
 77 85  1  0  0  0
 77155  1  0  0  0
 77156  1  0  0  0
 78 80  1  0  0  0
 78 82  1  0  0  0
 78157  1  0  0  0
 78158  1  0  0  0
 79 82  1  0  0  0
 79 83  1  0  0  0
 79159  1  0  0  0
 79160  1  0  0  0
 80161  1  0  0  0
 80162  1  0  0  0
 81163  1  0  0  0
 82164  1  0  0  0
 84165  1  0  0  0
 85166  1  0  0  0
M  CHG  1  84   1
M  ISO  4   1 100  68 101  80 101  85 100
M  END
> <chiral flag>
0

> <version>
0

> <s_m_source_file>
/data/baiqing/PycharmProjects/Reinvent-master-3.2/result/LINK_invent/BTK/process_docking_weight1_custom_sum_contain_oxygen_bond_distance_aromatic_linkinvent_7_9_3/rearranged_h_0097.sdf

> <i_m_source_file_index>
44

> <r_mmod_Potential_Energy-OPLS-2005>
-75.4128875732422

> <r_mmod_Stretch_Energy-OPLS-2005>
69.5779571533203

> <r_mmod_Bend_Energy-OPLS-2005>
158.585586547852

> <r_mmod_Torsional_Energy-OPLS-2005>
232.925872802734

> <r_mmod_Improper_Torsional_Energy-OPLS-2005>
3.88656187057495

> <r_mmod_Van_der_Waal_Energy-OPLS-2005>
121.429244995117

> <r_mmod_Electrostatic_Energy-OPLS-2005>
-276.162628173828

> <r_mmod_Solvation_Energy-OPLS-2005>
-417.773284912109

> <b_mmod_Minimization_Converged-OPLS-2005>
0

> <r_mmod_RMS_Derivative-OPLS-2005>
12.2699851989746

$$$$
44
                    3D
 Structure written by MMmdl.
168176  0  0  1  0            999 V2000
  -30.7157  -14.4754   20.5969 C   0  0  0  0  0  0
  -30.4183  -12.3225   19.4178 C   0  0  0  0  0  0
  -29.4950  -12.5260   18.1999 C   0  0  0  0  0  0
  -28.0125  -12.3856   18.6030 C   0  0  0  0  0  0
  -27.6591  -13.2145   19.8679 C   0  0  2  0  0  0
  -28.6987  -12.9793   20.9843 C   0  0  0  0  0  0
  -25.2577  -13.8179   20.5680 C   0  0  0  0  0  0
  -24.1840  -13.0453   20.9194 C   0  0  0  0  0  0
  -24.6405  -11.6923   20.8725 C   0  0  0  0  0  0
  -23.9072  -10.4299   21.0373 C   0  0  0  0  0  0
  -24.3625   -9.4220   21.9158 C   0  0  0  0  0  0
  -23.6302   -8.2251   22.0743 C   0  0  0  0  0  0
  -22.4282   -8.0270   21.3533 C   0  0  0  0  0  0
  -21.9915   -9.0245   20.4637 C   0  0  0  0  0  0
  -22.7239  -10.2127   20.3033 C   0  0  0  0  0  0
  -21.6857   -6.0736   22.5287 C   0  0  0  0  0  0
  -21.4020   -6.5639   23.8220 C   0  0  0  0  0  0
  -21.3660   -5.6792   24.9179 C   0  0  0  0  0  0
  -21.6041   -4.3053   24.7224 C   0  0  0  0  0  0
  -21.8823   -3.8146   23.4343 C   0  0  0  0  0  0
  -21.9190   -4.6966   22.3404 C   0  0  0  0  0  0
  -22.7852  -13.5238   21.1833 C   0  0  0  0  0  0
  -22.1659   -4.2150   21.0976 F   0  0  0  0  0  0
  -21.5626   -3.4536   25.7737 F   0  0  0  0  0  0
  -30.0261  -13.3066   20.4434 N   0  0  0  0  0  0
  -26.3011  -12.9368   20.3321 N   0  0  0  0  0  0
  -25.9329  -11.6517   20.5728 N   0  0  0  0  0  0
  -22.0483  -12.8248   22.0401 N   0  0  0  0  0  0
  -25.4306  -15.1892   20.4110 N   0  0  0  0  0  0
  -31.8375  -14.6288   20.0989 O   0  0  0  0  0  0
  -21.6640   -6.8869   21.4243 O   0  0  0  0  0  0
  -22.3543  -14.5519   20.6624 O   0  0  0  0  0  0
  -24.6169  -31.8669   23.2093 C   0  0  0  0  0  0
  -25.9068  -32.4810   23.8386 C   0  0  1  0  0  0
  -27.2243  -27.4167   20.0969 C   0  0  0  0  0  0
  -25.5923  -33.8614   24.2324 N   0  0  0  0  0  0
  -23.4041  -30.4918   21.5514 C   0  0  2  0  0  0
  -24.8463  -28.9573   20.1116 C   0  0  0  0  0  0
  -22.7410  -29.4667   22.5003 C   0  0  0  0  0  0
  -18.0266  -28.1371   22.8507 C   0  0  0  0  0  0
  -24.1488  -36.7303   23.2638 C   0  0  0  0  0  0
  -25.9348  -30.8291   21.3611 C   0  0  0  0  0  0
  -26.0103  -29.4649   20.7030 C   0  0  0  0  0  0
  -27.2043  -28.7047   20.6853 C   0  0  0  0  0  0
  -26.0415  -26.9287   19.4992 C   0  0  0  0  0  0
  -24.8579  -27.6905   19.5043 C   0  0  0  0  0  0
  -23.6100  -29.8267   20.1642 C   0  0  0  0  0  0
  -25.4112  -36.3105   24.0341 C   0  0  1  0  0  0
  -20.5855  -28.3663   23.1316 C   0  0  2  0  0  0
  -20.6765  -26.9407   22.5406 C   0  0  0  0  0  0
  -19.5748  -26.6381   21.5204 C   0  0  0  0  0  0
  -18.1922  -26.7922   22.1619 C   0  0  0  0  0  0
  -19.1514  -28.8831   23.2904 C   0  0  0  0  0  0
  -18.9450  -30.1444   23.8918 C   0  0  0  0  0  0
  -17.6452  -30.6587   24.0559 C   0  0  0  0  0  0
  -25.9049  -34.9473   23.5131 C   0  0  0  0  0  0
  -16.5343  -29.9088   23.6326 C   0  0  0  0  0  0
  -16.7250  -28.6491   23.0365 C   0  0  0  0  0  0
  -26.4478  -31.6600   25.0729 C   0  0  0  0  0  0
  -25.3744  -31.3711   26.1479 C   0  0  0  0  0  0
  -27.0286  -30.3036   24.6108 C   0  0  0  0  0  0
  -27.6079  -32.4291   25.7477 C   0  0  0  0  0  0
  -27.5585  -37.1800   24.8469 C   0  0  0  0  0  0
  -21.4133  -29.3032   22.3725 N   0  0  0  0  0  0
  -26.4290  -37.3801   23.9430 N   0  0  0  0  0  0
  -24.6711  -31.0766   22.0988 N   0  0  0  0  0  0
  -23.4175  -28.8212   23.3046 O   0  0  0  0  0  0
  -28.3792  -26.6557   20.1172 O   0  0  0  0  0  0
  -26.5598  -34.8930   22.4680 O   0  0  0  0  0  0
  -23.5361  -32.1411   23.7484 O   0  0  0  0  0  0
  -28.9464  -19.8610   17.2945 C   0  0  0  0  0  0
  -28.6834  -18.5192   16.9149 C   0  0  0  0  0  0
  -29.0557  -19.8406   18.6594 C   0  0  0  0  0  0
  -28.4547  -17.9575   15.5417 C   0  0  0  0  0  0
  -27.0661  -22.5570   17.8687 C   0  0  0  0  0  0
  -29.6970  -15.6718   22.4801 C   0  0  0  0  0  0
  -29.3371  -21.0067   19.5850 C   0  0  0  0  0  0
  -28.1108  -21.8099   20.1138 C   0  0  0  0  0  0
  -28.3344  -24.3160   19.2031 C   0  0  0  0  0  0
  -29.0228  -17.8116   20.3259 C   0  0  0  0  0  0
  -30.2749  -16.8885   20.4315 C   0  0  0  0  0  0
  -28.2207  -25.2543   20.4341 C   0  0  0  0  0  0
  -27.5133  -22.9889   19.2745 C   0  0  1  0  0  0
  -28.6680  -17.7133   17.9579 N   0  0  0  0  0  0
  -28.9290  -18.4963   19.0324 N   0  0  0  0  0  0
  -30.0263  -15.5611   21.0540 N   0  0  0  0  0  0
  -31.4624  -12.4194   19.1135 H   0  0  0  0  0  0
  -30.3216  -11.3072   19.8075 H   0  0  0  0  0  0
  -29.7429  -11.8100   17.4154 H   0  0  0  0  0  0
  -29.6668  -13.5167   17.7744 H   0  0  0  0  0  0
  -27.8141  -11.3278   18.7832 H   0  0  0  0  0  0
  -27.3676  -12.6768   17.7728 H   0  0  0  0  0  0
  -27.7064  -14.2663   19.5845 H   0  0  0  0  0  0
  -28.6875  -11.9354   21.2987 H   0  0  0  0  0  0
  -28.4395  -13.5481   21.8733 H   0  0  0  0  0  0
  -25.2761   -9.5708   22.4749 H   0  0  0  0  0  0
  -24.0015   -7.4645   22.7463 H   0  0  0  0  0  0
  -21.0834   -8.8733   19.8959 H   0  0  0  0  0  0
  -22.3655  -10.9651   19.6138 H   0  0  0  0  0  0
  -21.2022   -7.6151   23.9733 H   0  0  0  0  0  0
  -21.1480   -6.0511   25.9082 H   0  0  0  0  0  0
  -22.0604   -2.7607   23.2843 H   0  0  0  0  0  0
  -22.4076  -11.9940   22.4846 H   0  0  0  0  0  0
  -21.1075  -13.1255   22.2518 H   0  0  0  0  0  0
  -24.6709  -15.8492   20.5280 H   0  0  0  0  0  0
  -26.2861  -15.6235   20.0876 H   0  0  0  0  0  0
  -26.7144  -32.5505   23.1151 H   0  0  0  0  0  0
  -25.0122  -33.9776   25.0498 H   0  0  0  0  0  0
  -22.6949  -31.3103   21.4154 H   0  0  0  0  0  0
  -23.3761  -35.9620   23.3283 H   0  0  0  0  0  0
  -24.3594  -36.8920   22.2057 H   0  0  0  0  0  0
  -23.7215  -37.6497   23.6651 H   0  0  0  0  0  0
  -26.0514  -31.5974   20.5956 H   0  0  0  0  0  0
  -26.8220  -30.8757   21.9825 H   0  0  0  0  0  0
  -28.1026  -29.0911   21.1456 H   0  0  0  0  0  0
  -26.0192  -25.9561   19.0292 H   0  0  0  0  0  0
  -23.9639  -27.2924   19.0459 H   0  0  0  0  0  0
  -23.7159  -30.6032   19.4059 H   0  0  0  0  0  0
  -22.7328  -29.2482   19.8694 H   0  0  0  0  0  0
  -25.1278  -36.1964   25.0829 H   0  0  0  0  0  0
  -20.9942  -28.3210   24.1438 H   0  0  0  0  0  0
  -20.5663  -26.2269   23.3583 H   0  0  0  0  0  0
  -21.6635  -26.7457   22.1206 H   0  0  0  0  0  0
  -19.6915  -25.6290   21.1238 H   0  0  0  0  0  0
  -19.6689  -27.3186   20.6734 H   0  0  0  0  0  0
  -17.4195  -26.6656   21.4025 H   0  0  0  0  0  0
  -18.0342  -26.0049   22.8999 H   0  0  0  0  0  0
  -19.7925  -30.7238   24.2300 H   0  0  0  0  0  0
  -17.5015  -31.6280   24.5140 H   0  0  0  0  0  0
  -15.5351  -30.2999   23.7649 H   0  0  0  0  0  0
  -15.8641  -28.0810   22.7101 H   0  0  0  0  0  0
  -24.5933  -30.7033   25.7834 H   0  0  0  0  0  0
  -24.8915  -32.2855   26.4932 H   0  0  0  0  0  0
  -25.8096  -30.8895   27.0240 H   0  0  0  0  0  0
  -26.2815  -29.6825   24.1157 H   0  0  0  0  0  0
  -27.4036  -29.7263   25.4569 H   0  0  0  0  0  0
  -27.8665  -30.4359   23.9260 H   0  0  0  0  0  0
  -27.2755  -33.3620   26.2038 H   0  0  0  0  0  0
  -28.3893  -32.6779   25.0289 H   0  0  0  0  0  0
  -28.0728  -31.8402   26.5390 H   0  0  0  0  0  0
  -28.2592  -38.0109   24.7541 H   0  0  0  0  0  0
  -28.1070  -36.2639   24.6238 H   0  0  0  0  0  0
  -27.2304  -37.1389   25.8869 H   0  0  0  0  0  0
  -20.9287  -29.8741   21.6942 H   0  0  0  0  0  0
  -26.0166  -38.2869   24.1437 H   0  0  0  0  0  0
  -29.0429  -20.7190   16.6466 H   0  0  0  0  0  0
  -28.4007  -18.7469   14.7918 H   0  0  0  0  0  0
  -27.5208  -17.3972   15.4926 H   0  0  0  0  0  0
  -29.2611  -17.2836   15.2524 H   0  0  0  0  0  0
  -26.5597  -21.5920   17.8829 H   0  0  0  0  0  0
  -27.9129  -22.4973   17.1878 H   0  0  0  0  0  0
  -26.3685  -23.2810   17.4437 H   0  0  0  0  0  0
  -30.1670  -16.5428   22.9382 H   0  0  0  0  0  0
  -30.0174  -14.8020   23.0571 H   0  0  0  0  0  0
  -28.6187  -15.7745   22.6052 H   0  0  0  0  0  0
  -30.0322  -21.6917   19.1001 H   0  0  0  0  0  0
  -29.8830  -20.6229   20.4474 H   0  0  0  0  0  0
  -28.3928  -22.2289   21.0792 H   0  0  0  0  0  0
  -27.3184  -21.0965   20.3453 H   0  0  0  0  0  0
  -29.3820  -24.1122   18.9814 H   0  0  0  0  0  0
  -27.9729  -24.8844   18.3461 H   0  0  0  0  0  0
  -29.0187  -18.5458   21.1321 H   0  0  0  0  0  0
  -28.1100  -17.2279   20.4494 H   0  0  0  0  0  0
  -31.0755  -17.4036   20.9643 H   0  0  0  0  0  0
  -30.6705  -16.7401   19.4249 H   0  0  0  0  0  0
  -28.9932  -24.9855   21.1551 H   0  0  0  0  0  0
  -27.2796  -25.0869   20.9621 H   0  0  0  0  0  0
  -26.5818  -23.2470   19.7840 H   0  0  0  0  0  0
  1 25  1  0  0  0
  1 30  2  0  0  0
  1 86  1  0  0  0
  2  3  1  0  0  0
  2 25  1  0  0  0
  2 87  1  0  0  0
  2 88  1  0  0  0
  3  4  1  0  0  0
  3 89  1  0  0  0
  3 90  1  0  0  0
  4  5  1  0  0  0
  4 91  1  0  0  0
  4 92  1  0  0  0
  5  6  1  0  0  0
  5 26  1  0  0  0
  5 93  1  0  0  0
  6 25  1  0  0  0
  6 94  1  0  0  0
  6 95  1  0  0  0
  7  8  2  0  0  0
  7 26  1  0  0  0
  7 29  1  0  0  0
  8  9  1  0  0  0
  8 22  1  0  0  0
  9 10  1  0  0  0
  9 27  2  0  0  0
 10 11  2  0  0  0
 10 15  1  0  0  0
 11 12  1  0  0  0
 11 96  1  0  0  0
 12 13  2  0  0  0
 12 97  1  0  0  0
 13 14  1  0  0  0
 13 31  1  0  0  0
 14 15  2  0  0  0
 14 98  1  0  0  0
 15 99  1  0  0  0
 16 17  2  0  0  0
 16 21  1  0  0  0
 16 31  1  0  0  0
 17 18  1  0  0  0
 17100  1  0  0  0
 18 19  2  0  0  0
 18101  1  0  0  0
 19 20  1  0  0  0
 19 24  1  0  0  0
 20 21  2  0  0  0
 20102  1  0  0  0
 21 23  1  0  0  0
 22 28  1  0  0  0
 22 32  2  0  0  0
 26 27  1  0  0  0
 28103  1  0  0  0
 28104  1  0  0  0
 29105  1  0  0  0
 29106  1  0  0  0
 33 34  1  0  0  0
 33 66  1  0  0  0
 33 70  2  0  0  0
 34 36  1  0  0  0
 34 59  1  0  0  0
 34107  1  0  0  0
 35 44  2  0  0  0
 35 45  1  0  0  0
 35 68  1  0  0  0
 36 56  1  0  0  0
 36108  1  0  0  0
 37 39  1  0  0  0
 37 47  1  0  0  0
 37 66  1  0  0  0
 37109  1  0  0  0
 38 43  2  0  0  0
 38 46  1  0  0  0
 38 47  1  0  0  0
 39 64  1  0  0  0
 39 67  2  0  0  0
 40 52  1  0  0  0
 40 53  2  0  0  0
 40 58  1  0  0  0
 41110  1  0  0  0
 41111  1  0  0  0
 41112  1  0  0  0
 41 48  1  0  0  0
 42 43  1  0  0  0
 42 66  1  0  0  0
 42113  1  0  0  0
 42114  1  0  0  0
 43 44  1  0  0  0
 44115  1  0  0  0
 45 46  2  0  0  0
 45116  1  0  0  0
 46117  1  0  0  0
 47118  1  0  0  0
 47119  1  0  0  0
 48 56  1  0  0  0
 48 65  1  0  0  0
 48120  1  0  0  0
 49 50  1  0  0  0
 49 53  1  0  0  0
 49 64  1  0  0  0
 49121  1  0  0  0
 50 51  1  0  0  0
 50122  1  0  0  0
 50123  1  0  0  0
 51 52  1  0  0  0
 51124  1  0  0  0
 51125  1  0  0  0
 52126  1  0  0  0
 52127  1  0  0  0
 53 54  1  0  0  0
 54 55  2  0  0  0
 54128  1  0  0  0
 55 57  1  0  0  0
 55129  1  0  0  0
 56 69  2  0  0  0
 57 58  2  0  0  0
 57130  1  0  0  0
 58131  1  0  0  0
 59 60  1  0  0  0
 59 61  1  0  0  0
 59 62  1  0  0  0
 60132  1  0  0  0
 60133  1  0  0  0
 60134  1  0  0  0
 61135  1  0  0  0
 61136  1  0  0  0
 61137  1  0  0  0
 62138  1  0  0  0
 62139  1  0  0  0
 62140  1  0  0  0
 63 65  1  0  0  0
 63141  1  0  0  0
 63142  1  0  0  0
 63143  1  0  0  0
 64144  1  0  0  0
 65145  1  0  0  0
 68 82  1  0  0  0
 71 72  1  0  0  0
 71 73  2  0  0  0
 71146  1  0  0  0
 72 74  1  0  0  0
 72 84  2  0  0  0
 73 77  1  0  0  0
 73 85  1  0  0  0
 74147  1  0  0  0
 74148  1  0  0  0
 74149  1  0  0  0
 75150  1  0  0  0
 75151  1  0  0  0
 75152  1  0  0  0
 75 83  1  0  0  0
 76 86  1  0  0  0
 76153  1  0  0  0
 76154  1  0  0  0
 76155  1  0  0  0
 77 78  1  0  0  0
 77156  1  0  0  0
 77157  1  0  0  0
 78 83  1  0  0  0
 78158  1  0  0  0
 78159  1  0  0  0
 79 82  1  0  0  0
 79 83  1  0  0  0
 79160  1  0  0  0
 79161  1  0  0  0
 80 81  1  0  0  0
 80 85  1  0  0  0
 80162  1  0  0  0
 80163  1  0  0  0
 81 86  1  0  0  0
 81164  1  0  0  0
 81165  1  0  0  0
 82166  1  0  0  0
 82167  1  0  0  0
 83168  1  0  0  0
 84 85  1  0  0  0
M  ISO  4   1 100  68 101  82 101  86 100
M  END
> <chiral flag>
0

> <version>
0

> <s_m_source_file>
/data/baiqing/PycharmProjects/Reinvent-master-3.2/result/LINK_invent/BTK/process_docking_weight1_custom_sum_contain_oxygen_bond_distance_aromatic_linkinvent_7_9_3/rearranged_h_0097.sdf

> <i_m_source_file_index>
45

> <r_mmod_Potential_Energy-OPLS-2005>
109.529838562012

> <r_mmod_Stretch_Energy-OPLS-2005>
44.9949684143066

> <r_mmod_Bend_Energy-OPLS-2005>
119.229011535645

> <r_mmod_Torsional_Energy-OPLS-2005>
321.369079589844

> <r_mmod_Improper_Torsional_Energy-OPLS-2005>
9.72307109832764

> <r_mmod_Van_der_Waal_Energy-OPLS-2005>
124.371627807617

> <r_mmod_Electrostatic_Energy-OPLS-2005>
-328.401092529297

> <r_mmod_Solvation_Energy-OPLS-2005>
-196.127426147461

> <b_mmod_Minimization_Converged-OPLS-2005>
0

> <r_mmod_RMS_Derivative-OPLS-2005>
2.48764753341675

$$$$
45
                    3D
 Structure written by MMmdl.
171179  0  0  1  0            999 V2000
  -30.7043  -14.4393   20.6265 C   0  0  0  0  0  0
  -30.4267  -12.3007   19.4178 C   0  0  0  0  0  0
  -29.4958  -12.5063   18.2044 C   0  0  0  0  0  0
  -28.0166  -12.3652   18.6166 C   0  0  0  0  0  0
  -27.6649  -13.1989   19.8775 C   0  0  2  0  0  0
  -28.7054  -12.9661   20.9978 C   0  0  0  0  0  0
  -25.2617  -13.8145   20.5677 C   0  0  0  0  0  0
  -24.1857  -13.0431   20.9170 C   0  0  0  0  0  0
  -24.6398  -11.6901   20.8736 C   0  0  0  0  0  0
  -23.9069  -10.4288   21.0409 C   0  0  0  0  0  0
  -24.3618   -9.4208   21.9184 C   0  0  0  0  0  0
  -23.6286   -8.2247   22.0759 C   0  0  0  0  0  0
  -22.4270   -8.0287   21.3548 C   0  0  0  0  0  0
  -21.9912   -9.0263   20.4647 C   0  0  0  0  0  0
  -22.7245  -10.2138   20.3053 C   0  0  0  0  0  0
  -21.6848   -6.0740   22.5280 C   0  0  0  0  0  0
  -21.4014   -6.5645   23.8214 C   0  0  0  0  0  0
  -21.3661   -5.6792   24.9176 C   0  0  0  0  0  0
  -21.6044   -4.3055   24.7225 C   0  0  0  0  0  0
  -21.8821   -3.8152   23.4341 C   0  0  0  0  0  0
  -21.9192   -4.6970   22.3398 C   0  0  0  0  0  0
  -22.7884  -13.5241   21.1833 C   0  0  0  0  0  0
  -22.1660   -4.2156   21.0974 F   0  0  0  0  0  0
  -21.5631   -3.4543   25.7740 F   0  0  0  0  0  0
  -30.0377  -13.2668   20.4550 N   0  0  0  0  0  0
  -26.3042  -12.9301   20.3368 N   0  0  0  0  0  0
  -25.9321  -11.6470   20.5767 N   0  0  0  0  0  0
  -22.0514  -12.8244   22.0378 N   0  0  0  0  0  0
  -25.4353  -15.1865   20.4095 N   0  0  0  0  0  0
  -31.8037  -14.6442   20.1033 O   0  0  0  0  0  0
  -21.6635   -6.8883   21.4239 O   0  0  0  0  0  0
  -22.3588  -14.5556   20.6676 O   0  0  0  0  0  0
  -24.6097  -31.8706   23.2125 C   0  0  0  0  0  0
  -25.9015  -32.4822   23.8403 C   0  0  1  0  0  0
  -27.2264  -27.4622   20.1036 C   0  0  0  0  0  0
  -25.5896  -33.8622   24.2334 N   0  0  0  0  0  0
  -23.3953  -30.4932   21.5507 C   0  0  2  0  0  0
  -24.8441  -28.9653   20.1103 C   0  0  0  0  0  0
  -22.7383  -29.4663   22.4988 C   0  0  0  0  0  0
  -18.0262  -28.1389   22.8472 C   0  0  0  0  0  0
  -24.1492  -36.7336   23.2637 C   0  0  0  0  0  0
  -25.9198  -30.8471   21.3584 C   0  0  0  0  0  0
  -26.0008  -29.4838   20.7067 C   0  0  0  0  0  0
  -27.1991  -28.7379   20.7027 C   0  0  0  0  0  0
  -26.0630  -26.9516   19.4962 C   0  0  0  0  0  0
  -24.8687  -27.6979   19.5003 C   0  0  0  0  0  0
  -23.6015  -29.8260   20.1635 C   0  0  0  0  0  0
  -25.4112  -36.3111   24.0337 C   0  0  1  0  0  0
  -20.5841  -28.3680   23.1317 C   0  0  2  0  0  0
  -20.6763  -26.9417   22.5418 C   0  0  0  0  0  0
  -19.5750  -26.6389   21.5201 C   0  0  0  0  0  0
  -18.1913  -26.7930   22.1605 C   0  0  0  0  0  0
  -19.1507  -28.8844   23.2884 C   0  0  0  0  0  0
  -18.9453  -30.1441   23.8915 C   0  0  0  0  0  0
  -17.6462  -30.6598   24.0565 C   0  0  0  0  0  0
  -25.9044  -34.9475   23.5130 C   0  0  0  0  0  0
  -16.5349  -29.9107   23.6321 C   0  0  0  0  0  0
  -16.7252  -28.6517   23.0343 C   0  0  0  0  0  0
  -26.4473  -31.6590   25.0721 C   0  0  0  0  0  0
  -25.3753  -31.3678   26.1481 C   0  0  0  0  0  0
  -27.0332  -30.3049   24.6069 C   0  0  0  0  0  0
  -27.6042  -32.4318   25.7488 C   0  0  0  0  0  0
  -27.5584  -37.1812   24.8459 C   0  0  0  0  0  0
  -21.4112  -29.3043   22.3742 N   0  0  0  0  0  0
  -26.4301  -37.3790   23.9407 N   0  0  0  0  0  0
  -24.6600  -31.0835   22.1001 N   0  0  0  0  0  0
  -23.4168  -28.8194   23.3018 O   0  0  0  0  0  0
  -28.3754  -26.7151   20.1282 O   0  0  0  0  0  0
  -26.5596  -34.8915   22.4687 O   0  0  0  0  0  0
  -23.5295  -32.1459   23.7541 O   0  0  0  0  0  0
  -29.7069  -18.1536   21.7505 C   0  0  0  0  0  0
  -32.4365  -19.2943   19.6855 C   0  0  0  0  0  0
  -31.3003  -20.2127   21.6301 C   0  0  0  0  0  0
  -32.2103  -17.8117   19.3288 C   0  0  0  0  0  0
  -29.9243  -19.6113   21.2467 C   0  0  2  0  0  0
  -30.6136  -17.0425   21.1208 C   0  0  1  0  0  0
  -27.5262  -21.3591   19.6494 C   0  0  0  0  0  0
  -30.0146  -15.6162   21.3631 C   0  0  0  0  0  0
  -28.8138  -20.5913   21.7028 C   0  0  0  0  0  0
  -28.2600  -24.2873   20.3993 C   0  0  0  0  0  0
  -28.2834  -23.0931   21.3786 C   0  0  0  0  0  0
  -28.3484  -25.6575   21.0916 C   0  0  0  0  0  0
  -28.5927  -21.7469   20.6885 C   0  0  2  0  0  0
  -32.4495  -19.4637   21.1356 N   0  0  0  0  0  0
  -30.8591  -17.3080   19.6744 N   0  3  0  0  0  0
  -31.4697  -12.4048   19.1151 H   0  0  0  0  0  0
  -30.3335  -11.2842   19.8029 H   0  0  0  0  0  0
  -29.7352  -11.7859   17.4209 H   0  0  0  0  0  0
  -29.6636  -13.4937   17.7714 H   0  0  0  0  0  0
  -27.8255  -11.3085   18.8067 H   0  0  0  0  0  0
  -27.3658  -12.6451   17.7872 H   0  0  0  0  0  0
  -27.7134  -14.2469   19.5840 H   0  0  0  0  0  0
  -28.6777  -11.9268   21.3302 H   0  0  0  0  0  0
  -28.4698  -13.5578   21.8825 H   0  0  0  0  0  0
  -25.2763   -9.5686   22.4762 H   0  0  0  0  0  0
  -24.0001   -7.4646   22.7484 H   0  0  0  0  0  0
  -21.0850   -8.8780   19.8954 H   0  0  0  0  0  0
  -22.3707  -10.9676   19.6168 H   0  0  0  0  0  0
  -21.2004   -7.6152   23.9717 H   0  0  0  0  0  0
  -21.1482   -6.0526   25.9077 H   0  0  0  0  0  0
  -22.0597   -2.7618   23.2841 H   0  0  0  0  0  0
  -22.4113  -11.9884   22.4755 H   0  0  0  0  0  0
  -21.1137  -13.1288   22.2584 H   0  0  0  0  0  0
  -24.6680  -15.8406   20.5183 H   0  0  0  0  0  0
  -26.2883  -15.6279   20.0901 H   0  0  0  0  0  0
  -26.7103  -32.5577   23.1184 H   0  0  0  0  0  0
  -25.0074  -33.9793   25.0494 H   0  0  0  0  0  0
  -22.6820  -31.3089   21.4119 H   0  0  0  0  0  0
  -23.3735  -35.9685   23.3303 H   0  0  0  0  0  0
  -24.3588  -36.8960   22.2048 H   0  0  0  0  0  0
  -23.7257  -37.6549   23.6667 H   0  0  0  0  0  0
  -26.0200  -31.6110   20.5863 H   0  0  0  0  0  0
  -26.8110  -30.9078   21.9706 H   0  0  0  0  0  0
  -28.0929  -29.1247   21.1705 H   0  0  0  0  0  0
  -26.0775  -25.9801   19.0243 H   0  0  0  0  0  0
  -23.9810  -27.2953   19.0335 H   0  0  0  0  0  0
  -23.7006  -30.6032   19.4048 H   0  0  0  0  0  0
  -22.7272  -29.2418   19.8700 H   0  0  0  0  0  0
  -25.1266  -36.1992   25.0826 H   0  0  0  0  0  0
  -20.9906  -28.3267   24.1451 H   0  0  0  0  0  0
  -20.5686  -26.2287   23.3614 H   0  0  0  0  0  0
  -21.6642  -26.7493   22.1204 H   0  0  0  0  0  0
  -19.6936  -25.6293   21.1248 H   0  0  0  0  0  0
  -19.6701  -27.3193   20.6724 H   0  0  0  0  0  0
  -17.4188  -26.6679   21.3995 H   0  0  0  0  0  0
  -18.0304  -26.0057   22.8989 H   0  0  0  0  0  0
  -19.7935  -30.7225   24.2308 H   0  0  0  0  0  0
  -17.5035  -31.6273   24.5175 H   0  0  0  0  0  0
  -15.5359  -30.3033   23.7633 H   0  0  0  0  0  0
  -15.8644  -28.0862   22.7055 H   0  0  0  0  0  0
  -24.5953  -30.6989   25.7833 H   0  0  0  0  0  0
  -24.8908  -32.2819   26.4925 H   0  0  0  0  0  0
  -25.8113  -30.8874   27.0249 H   0  0  0  0  0  0
  -26.2874  -29.6781   24.1167 H   0  0  0  0  0  0
  -27.4183  -29.7305   25.4508 H   0  0  0  0  0  0
  -27.8663  -30.4392   23.9158 H   0  0  0  0  0  0
  -27.2672  -33.3613   26.2084 H   0  0  0  0  0  0
  -28.3855  -32.6890   25.0329 H   0  0  0  0  0  0
  -28.0724  -31.8447   26.5395 H   0  0  0  0  0  0
  -28.2576  -38.0128   24.7522 H   0  0  0  0  0  0
  -28.1091  -36.2655   24.6259 H   0  0  0  0  0  0
  -27.2304  -37.1455   25.8860 H   0  0  0  0  0  0
  -20.9267  -29.8816   21.7016 H   0  0  0  0  0  0
  -26.0192  -38.2871   24.1401 H   0  0  0  0  0  0
  -28.6655  -17.8984   21.5512 H   0  0  0  0  0  0
  -29.8058  -18.1224   22.8370 H   0  0  0  0  0  0
  -31.7265  -19.9534   19.1819 H   0  0  0  0  0  0
  -33.4186  -19.5888   19.3103 H   0  0  0  0  0  0
  -31.3774  -20.2872   22.7173 H   0  0  0  0  0  0
  -31.3767  -21.2365   21.2589 H   0  0  0  0  0  0
  -32.9754  -17.1833   19.7851 H   0  0  0  0  0  0
  -32.3352  -17.6938   18.2520 H   0  0  0  0  0  0
  -29.8220  -19.5845   20.1642 H   0  0  0  0  0  0
  -31.5735  -17.0526   21.6401 H   0  0  0  0  0  0
  -27.7762  -20.4182   19.1593 H   0  0  0  0  0  0
  -27.4351  -22.1058   18.8599 H   0  0  0  0  0  0
  -26.5457  -21.2411   20.1119 H   0  0  0  0  0  0
  -28.9692  -15.6403   21.0601 H   0  0  0  0  0  0
  -30.0172  -15.3986   22.4319 H   0  0  0  0  0  0
  -29.0698  -20.9891   22.6855 H   0  0  0  0  0  0
  -27.8700  -20.0667   21.8606 H   0  0  0  0  0  0
  -27.3529  -24.2407   19.7987 H   0  0  0  0  0  0
  -29.0907  -24.2049   19.6993 H   0  0  0  0  0  0
  -27.3372  -23.0362   21.9187 H   0  0  0  0  0  0
  -29.0513  -23.2758   22.1320 H   0  0  0  0  0  0
  -29.2671  -25.7189   21.6755 H   0  0  0  0  0  0
  -27.5313  -25.7685   21.8082 H   0  0  0  0  0  0
  -29.5244  -21.9025   20.1433 H   0  0  0  0  0  0
  -33.2852  -19.9890   21.3882 H   0  0  0  0  0  0
  -30.7931  -16.4230   19.1990 H   0  0  0  0  0  0
  -30.1548  -17.9214   19.2991 H   0  0  0  0  0  0
  1 25  1  0  0  0
  1 30  2  0  0  0
  1 78  1  0  0  0
  2  3  1  0  0  0
  2 25  1  0  0  0
  2 86  1  0  0  0
  2 87  1  0  0  0
  3  4  1  0  0  0
  3 88  1  0  0  0
  3 89  1  0  0  0
  4  5  1  0  0  0
  4 90  1  0  0  0
  4 91  1  0  0  0
  5  6  1  0  0  0
  5 26  1  0  0  0
  5 92  1  0  0  0
  6 25  1  0  0  0
  6 93  1  0  0  0
  6 94  1  0  0  0
  7  8  2  0  0  0
  7 26  1  0  0  0
  7 29  1  0  0  0
  8  9  1  0  0  0
  8 22  1  0  0  0
  9 10  1  0  0  0
  9 27  2  0  0  0
 10 11  2  0  0  0
 10 15  1  0  0  0
 11 12  1  0  0  0
 11 95  1  0  0  0
 12 13  2  0  0  0
 12 96  1  0  0  0
 13 14  1  0  0  0
 13 31  1  0  0  0
 14 15  2  0  0  0
 14 97  1  0  0  0
 15 98  1  0  0  0
 16 17  2  0  0  0
 16 21  1  0  0  0
 16 31  1  0  0  0
 17 18  1  0  0  0
 17 99  1  0  0  0
 18 19  2  0  0  0
 18100  1  0  0  0
 19 20  1  0  0  0
 19 24  1  0  0  0
 20 21  2  0  0  0
 20101  1  0  0  0
 21 23  1  0  0  0
 22 28  1  0  0  0
 22 32  2  0  0  0
 26 27  1  0  0  0
 28102  1  0  0  0
 28103  1  0  0  0
 29104  1  0  0  0
 29105  1  0  0  0
 33 34  1  0  0  0
 33 66  1  0  0  0
 33 70  2  0  0  0
 34 36  1  0  0  0
 34 59  1  0  0  0
 34106  1  0  0  0
 35 44  2  0  0  0
 35 45  1  0  0  0
 35 68  1  0  0  0
 36 56  1  0  0  0
 36107  1  0  0  0
 37 39  1  0  0  0
 37 47  1  0  0  0
 37 66  1  0  0  0
 37108  1  0  0  0
 38 43  2  0  0  0
 38 46  1  0  0  0
 38 47  1  0  0  0
 39 64  1  0  0  0
 39 67  2  0  0  0
 40 52  1  0  0  0
 40 53  2  0  0  0
 40 58  1  0  0  0
 41109  1  0  0  0
 41110  1  0  0  0
 41111  1  0  0  0
 41 48  1  0  0  0
 42 43  1  0  0  0
 42 66  1  0  0  0
 42112  1  0  0  0
 42113  1  0  0  0
 43 44  1  0  0  0
 44114  1  0  0  0
 45 46  2  0  0  0
 45115  1  0  0  0
 46116  1  0  0  0
 47117  1  0  0  0
 47118  1  0  0  0
 48 56  1  0  0  0
 48 65  1  0  0  0
 48119  1  0  0  0
 49 50  1  0  0  0
 49 53  1  0  0  0
 49 64  1  0  0  0
 49120  1  0  0  0
 50 51  1  0  0  0
 50121  1  0  0  0
 50122  1  0  0  0
 51 52  1  0  0  0
 51123  1  0  0  0
 51124  1  0  0  0
 52125  1  0  0  0
 52126  1  0  0  0
 53 54  1  0  0  0
 54 55  2  0  0  0
 54127  1  0  0  0
 55 57  1  0  0  0
 55128  1  0  0  0
 56 69  2  0  0  0
 57 58  2  0  0  0
 57129  1  0  0  0
 58130  1  0  0  0
 59 60  1  0  0  0
 59 61  1  0  0  0
 59 62  1  0  0  0
 60131  1  0  0  0
 60132  1  0  0  0
 60133  1  0  0  0
 61134  1  0  0  0
 61135  1  0  0  0
 61136  1  0  0  0
 62137  1  0  0  0
 62138  1  0  0  0
 62139  1  0  0  0
 63 65  1  0  0  0
 63140  1  0  0  0
 63141  1  0  0  0
 63142  1  0  0  0
 64143  1  0  0  0
 65144  1  0  0  0
 68 82  1  0  0  0
 71 75  1  0  0  0
 71 76  1  0  0  0
 71145  1  0  0  0
 71146  1  0  0  0
 72 74  1  0  0  0
 72 84  1  0  0  0
 72147  1  0  0  0
 72148  1  0  0  0
 73 75  1  0  0  0
 73 84  1  0  0  0
 73149  1  0  0  0
 73150  1  0  0  0
 74 85  1  0  0  0
 74151  1  0  0  0
 74152  1  0  0  0
 75 79  1  0  0  0
 75153  1  0  0  0
 76 78  1  0  0  0
 76 85  1  0  0  0
 76154  1  0  0  0
 77155  1  0  0  0
 77156  1  0  0  0
 77157  1  0  0  0
 77 83  1  0  0  0
 78158  1  0  0  0
 78159  1  0  0  0
 79 83  1  0  0  0
 79160  1  0  0  0
 79161  1  0  0  0
 80 81  1  0  0  0
 80 82  1  0  0  0
 80162  1  0  0  0
 80163  1  0  0  0
 81 83  1  0  0  0
 81164  1  0  0  0
 81165  1  0  0  0
 82166  1  0  0  0
 82167  1  0  0  0
 83168  1  0  0  0
 84169  1  0  0  0
 85170  1  0  0  0
 85171  1  0  0  0
M  CHG  1  85   1
M  ISO  4   1 100  68 101  78 100  82 101
M  END
> <chiral flag>
0

> <version>
0

> <s_m_source_file>
/data/baiqing/PycharmProjects/Reinvent-master-3.2/result/LINK_invent/BTK/process_docking_weight1_custom_sum_contain_oxygen_bond_distance_aromatic_linkinvent_7_9_3/rearranged_h_0097.sdf

> <i_m_source_file_index>
46

> <r_mmod_Potential_Energy-OPLS-2005>
-147.228927612305

> <r_mmod_Stretch_Energy-OPLS-2005>
37.9407844543457

> <r_mmod_Bend_Energy-OPLS-2005>
103.65926361084

> <r_mmod_Torsional_Energy-OPLS-2005>
243.834609985352

> <r_mmod_Improper_Torsional_Energy-OPLS-2005>
3.01273322105408

> <r_mmod_Van_der_Waal_Energy-OPLS-2005>
147.395645141602

> <r_mmod_Electrostatic_Energy-OPLS-2005>
-293.292144775391

> <r_mmod_Solvation_Energy-OPLS-2005>
-399.535675048828

> <b_mmod_Minimization_Converged-OPLS-2005>
0

> <r_mmod_RMS_Derivative-OPLS-2005>
2.21134376525879

$$$$
46
                    3D
 Structure written by MMmdl.
175183  0  0  1  0            999 V2000
  -30.6438  -14.5862   20.5462 C   0  0  0  0  0  0
  -30.4432  -12.3771   19.4288 C   0  0  0  0  0  0
  -29.5060  -12.5049   18.2087 C   0  0  0  0  0  0
  -28.0279  -12.3442   18.6217 C   0  0  0  0  0  0
  -27.6553  -13.2085   19.8576 C   0  0  2  0  0  0
  -28.7014  -13.0363   20.9794 C   0  0  0  0  0  0
  -25.2612  -13.8146   20.5686 C   0  0  0  0  0  0
  -24.1849  -13.0437   20.9159 C   0  0  0  0  0  0
  -24.6404  -11.6901   20.8705 C   0  0  0  0  0  0
  -23.9060  -10.4299   21.0379 C   0  0  0  0  0  0
  -24.3624   -9.4216   21.9172 C   0  0  0  0  0  0
  -23.6289   -8.2265   22.0767 C   0  0  0  0  0  0
  -22.4264   -8.0302   21.3562 C   0  0  0  0  0  0
  -21.9899   -9.0258   20.4657 C   0  0  0  0  0  0
  -22.7221  -10.2136   20.3049 C   0  0  0  0  0  0
  -21.6870   -6.0733   22.5280 C   0  0  0  0  0  0
  -21.4015   -6.5628   23.8196 C   0  0  0  0  0  0
  -21.3654   -5.6786   24.9158 C   0  0  0  0  0  0
  -21.6056   -4.3058   24.7214 C   0  0  0  0  0  0
  -21.8823   -3.8139   23.4329 C   0  0  0  0  0  0
  -21.9209   -4.6958   22.3386 C   0  0  0  0  0  0
  -22.7871  -13.5263   21.1797 C   0  0  0  0  0  0
  -22.1684   -4.2151   21.0971 F   0  0  0  0  0  0
  -21.5617   -3.4532   25.7709 F   0  0  0  0  0  0
  -30.0155  -13.3816   20.4158 N   0  0  0  0  0  0
  -26.3011  -12.9314   20.3287 N   0  0  0  0  0  0
  -25.9319  -11.6478   20.5717 N   0  0  0  0  0  0
  -22.0526  -12.8257   22.0360 N   0  0  0  0  0  0
  -25.4351  -15.1865   20.4107 N   0  0  0  0  0  0
  -31.8119  -14.7656   20.1884 O   0  0  0  0  0  0
  -21.6662   -6.8881   21.4246 O   0  0  0  0  0  0
  -22.3554  -14.5555   20.6609 O   0  0  0  0  0  0
  -24.6191  -31.8637   23.2107 C   0  0  0  0  0  0
  -25.9069  -32.4813   23.8391 C   0  0  1  0  0  0
  -27.2162  -27.3656   20.1057 C   0  0  0  0  0  0
  -25.5904  -33.8609   24.2319 N   0  0  0  0  0  0
  -23.4086  -30.4925   21.5491 C   0  0  2  0  0  0
  -24.8551  -28.9593   20.1094 C   0  0  0  0  0  0
  -22.7408  -29.4650   22.4932 C   0  0  0  0  0  0
  -18.0273  -28.1388   22.8497 C   0  0  0  0  0  0
  -24.1482  -36.7299   23.2643 C   0  0  0  0  0  0
  -25.9454  -30.8121   21.3750 C   0  0  0  0  0  0
  -26.0188  -29.4427   20.7188 C   0  0  0  0  0  0
  -27.1979  -28.6501   20.7213 C   0  0  0  0  0  0
  -26.0301  -26.9221   19.4837 C   0  0  0  0  0  0
  -24.8585  -27.6990   19.4921 C   0  0  0  0  0  0
  -23.6221  -29.8360   20.1604 C   0  0  0  0  0  0
  -25.4110  -36.3099   24.0333 C   0  0  1  0  0  0
  -20.5871  -28.3678   23.1296 C   0  0  2  0  0  0
  -20.6776  -26.9406   22.5421 C   0  0  0  0  0  0
  -19.5759  -26.6393   21.5215 C   0  0  0  0  0  0
  -18.1931  -26.7933   22.1625 C   0  0  0  0  0  0
  -19.1530  -28.8842   23.2903 C   0  0  0  0  0  0
  -18.9459  -30.1450   23.8921 C   0  0  0  0  0  0
  -17.6466  -30.6596   24.0564 C   0  0  0  0  0  0
  -25.9042  -34.9468   23.5119 C   0  0  0  0  0  0
  -16.5350  -29.9106   23.6326 C   0  0  0  0  0  0
  -16.7268  -28.6518   23.0349 C   0  0  0  0  0  0
  -26.4496  -31.6607   25.0730 C   0  0  0  0  0  0
  -25.3758  -31.3715   26.1472 C   0  0  0  0  0  0
  -27.0354  -30.3038   24.6164 C   0  0  0  0  0  0
  -27.6066  -32.4331   25.7488 C   0  0  0  0  0  0
  -27.5568  -37.1800   24.8459 C   0  0  0  0  0  0
  -21.4125  -29.3035   22.3664 N   0  0  0  0  0  0
  -26.4288  -37.3789   23.9410 N   0  0  0  0  0  0
  -24.6767  -31.0691   22.1050 N   0  0  0  0  0  0
  -23.4162  -28.8163   23.2968 O   0  0  0  0  0  0
  -28.3591  -26.5724   20.1556 O   0  0  0  0  0  0
  -26.5605  -34.8912   22.4684 O   0  0  0  0  0  0
  -23.5361  -32.1409   23.7473 O   0  0  0  0  0  0
  -30.9062  -21.3812   22.2935 C   0  0  0  0  0  0
  -30.1484  -20.7623   21.3275 C   0  0  0  0  0  0
  -31.9806  -19.5424   21.7159 C   0  0  0  0  0  0
  -36.0016  -20.9085   19.9842 C   0  0  0  0  0  0
  -33.5972  -21.5022   19.5960 C   0  0  0  0  0  0
  -27.0162  -23.2627   19.0005 C   0  0  0  0  0  0
  -28.9467  -21.4123   20.6365 C   0  0  0  0  0  0
  -33.1853  -18.6620   21.5087 C   0  0  0  0  0  0
  -29.2011  -22.9503   20.2952 C   0  0  0  0  0  0
  -34.1990  -19.1589   20.4439 C   0  0  0  0  0  0
  -30.2802  -18.2119   20.4989 C   0  0  0  0  0  0
  -30.2202  -16.9632   21.4788 C   0  0  0  0  0  0
  -28.4779  -25.3362   19.3821 C   0  0  0  0  0  0
  -34.5609  -20.6658   20.4598 C   0  0  0  0  0  0
  -28.0074  -23.9356   19.9740 C   0  0  1  0  0  0
  -30.7391  -19.4855   21.1713 N   0  0  0  0  0  0
  -32.0157  -20.6271   22.4874 N   0  3  0  0  0  0
  -29.8539  -15.6143   20.9535 N   0  0  0  0  0  0
  -31.4826  -12.5168   19.1252 H   0  0  0  0  0  0
  -30.3907  -11.3779   19.8617 H   0  0  0  0  0  0
  -29.7656  -11.7600   17.4535 H   0  0  0  0  0  0
  -29.6528  -13.4797   17.7390 H   0  0  0  0  0  0
  -27.8581  -11.2899   18.8394 H   0  0  0  0  0  0
  -27.3781  -12.5882   17.7793 H   0  0  0  0  0  0
  -27.6795  -14.2467   19.5262 H   0  0  0  0  0  0
  -28.7135  -12.0049   21.3337 H   0  0  0  0  0  0
  -28.4469  -13.6429   21.8488 H   0  0  0  0  0  0
  -25.2773   -9.5688   22.4714 H   0  0  0  0  0  0
  -24.0005   -7.4663   22.7478 H   0  0  0  0  0  0
  -21.0848   -8.8767   19.8934 H   0  0  0  0  0  0
  -22.3702  -10.9669   19.6147 H   0  0  0  0  0  0
  -21.2005   -7.6138   23.9684 H   0  0  0  0  0  0
  -21.1475   -6.0525   25.9064 H   0  0  0  0  0  0
  -22.0609   -2.7608   23.2824 H   0  0  0  0  0  0
  -22.4164  -11.9956   22.4787 H   0  0  0  0  0  0
  -21.1132  -13.1259   22.2555 H   0  0  0  0  0  0
  -24.6657  -15.8392   20.5063 H   0  0  0  0  0  0
  -26.2799  -15.6219   20.0611 H   0  0  0  0  0  0
  -26.7130  -32.5499   23.1138 H   0  0  0  0  0  0
  -25.0036  -33.9774   25.0443 H   0  0  0  0  0  0
  -22.7016  -31.3143   21.4136 H   0  0  0  0  0  0
  -23.3747  -35.9627   23.3318 H   0  0  0  0  0  0
  -24.3559  -36.8910   22.2055 H   0  0  0  0  0  0
  -23.7238  -37.6500   23.6664 H   0  0  0  0  0  0
  -26.0655  -31.5838   20.6127 H   0  0  0  0  0  0
  -26.8297  -30.8598   21.9990 H   0  0  0  0  0  0
  -28.0898  -29.0154   21.2136 H   0  0  0  0  0  0
  -25.9765  -25.9644   19.0009 H   0  0  0  0  0  0
  -23.9614  -27.3175   19.0261 H   0  0  0  0  0  0
  -23.7382  -30.6203   19.4114 H   0  0  0  0  0  0
  -22.7427  -29.2667   19.8546 H   0  0  0  0  0  0
  -25.1295  -36.1950   25.0826 H   0  0  0  0  0  0
  -20.9992  -28.3279   24.1409 H   0  0  0  0  0  0
  -20.5688  -26.2284   23.3620 H   0  0  0  0  0  0
  -21.6643  -26.7455   22.1203 H   0  0  0  0  0  0
  -19.6919  -25.6304   21.1245 H   0  0  0  0  0  0
  -19.6710  -27.3213   20.6760 H   0  0  0  0  0  0
  -17.4200  -26.6688   21.4027 H   0  0  0  0  0  0
  -18.0324  -26.0071   22.9025 H   0  0  0  0  0  0
  -19.7934  -30.7256   24.2306 H   0  0  0  0  0  0
  -17.5022  -31.6286   24.5154 H   0  0  0  0  0  0
  -15.5354  -30.3027   23.7628 H   0  0  0  0  0  0
  -15.8663  -28.0853   22.7057 H   0  0  0  0  0  0
  -24.5939  -30.7063   25.7792 H   0  0  0  0  0  0
  -24.8954  -32.2880   26.4904 H   0  0  0  0  0  0
  -25.8102  -30.8882   27.0236 H   0  0  0  0  0  0
  -26.2936  -29.6762   24.1225 H   0  0  0  0  0  0
  -27.4106  -29.7302   25.4649 H   0  0  0  0  0  0
  -27.8767  -30.4326   23.9354 H   0  0  0  0  0  0
  -27.2698  -33.3633   26.2074 H   0  0  0  0  0  0
  -28.3881  -32.6894   25.0322 H   0  0  0  0  0  0
  -28.0751  -31.8461   26.5400 H   0  0  0  0  0  0
  -28.2595  -38.0089   24.7501 H   0  0  0  0  0  0
  -28.1053  -36.2615   24.6302 H   0  0  0  0  0  0
  -27.2269  -37.1468   25.8857 H   0  0  0  0  0  0
  -20.9264  -29.8756   21.6898 H   0  0  0  0  0  0
  -26.0160  -38.2849   24.1453 H   0  0  0  0  0  0
  -30.7912  -22.3390   22.7801 H   0  0  0  0  0  0
  -36.2450  -21.9727   20.0082 H   0  0  0  0  0  0
  -36.1459  -20.5545   18.9619 H   0  0  0  0  0  0
  -36.7258  -20.4023   20.6235 H   0  0  0  0  0  0
  -33.7749  -22.5701   19.7257 H   0  0  0  0  0  0
  -32.5540  -21.3270   19.8414 H   0  0  0  0  0  0
  -33.7142  -21.2712   18.5363 H   0  0  0  0  0  0
  -26.6230  -22.3289   19.4010 H   0  0  0  0  0  0
  -27.4889  -23.0416   18.0435 H   0  0  0  0  0  0
  -26.1506  -23.8895   18.7910 H   0  0  0  0  0  0
  -28.0853  -21.3108   21.2948 H   0  0  0  0  0  0
  -28.7142  -20.8606   19.7238 H   0  0  0  0  0  0
  -32.8722  -17.6593   21.2353 H   0  0  0  0  0  0
  -33.6709  -18.5797   22.4805 H   0  0  0  0  0  0
  -29.9089  -22.9775   19.4654 H   0  0  0  0  0  0
  -29.7198  -23.4294   21.1259 H   0  0  0  0  0  0
  -33.8344  -18.9008   19.4490 H   0  0  0  0  0  0
  -35.1042  -18.5635   20.5644 H   0  0  0  0  0  0
  -29.3003  -18.3986   20.0594 H   0  0  0  0  0  0
  -30.9618  -18.0148   19.6722 H   0  0  0  0  0  0
  -29.4731  -17.1908   22.2400 H   0  0  0  0  0  0
  -31.1389  -16.8456   22.0491 H   0  0  0  0  0  0
  -28.0600  -25.4963   18.3868 H   0  0  0  0  0  0
  -29.5437  -25.2491   19.1729 H   0  0  0  0  0  0
  -34.5196  -21.0248   21.4900 H   0  0  0  0  0  0
  -27.4656  -24.1260   20.9023 H   0  0  0  0  0  0
  -32.7994  -20.9035   23.0678 H   0  0  0  0  0  0
  -28.8925  -15.3492   21.1068 H   0  0  0  0  0  0
  1 25  1  0  0  0
  1 30  2  0  0  0
  1 88  1  0  0  0
  2  3  1  0  0  0
  2 25  1  0  0  0
  2 89  1  0  0  0
  2 90  1  0  0  0
  3  4  1  0  0  0
  3 91  1  0  0  0
  3 92  1  0  0  0
  4  5  1  0  0  0
  4 93  1  0  0  0
  4 94  1  0  0  0
  5  6  1  0  0  0
  5 26  1  0  0  0
  5 95  1  0  0  0
  6 25  1  0  0  0
  6 96  1  0  0  0
  6 97  1  0  0  0
  7  8  2  0  0  0
  7 26  1  0  0  0
  7 29  1  0  0  0
  8  9  1  0  0  0
  8 22  1  0  0  0
  9 10  1  0  0  0
  9 27  2  0  0  0
 10 11  2  0  0  0
 10 15  1  0  0  0
 11 12  1  0  0  0
 11 98  1  0  0  0
 12 13  2  0  0  0
 12 99  1  0  0  0
 13 14  1  0  0  0
 13 31  1  0  0  0
 14 15  2  0  0  0
 14100  1  0  0  0
 15101  1  0  0  0
 16 17  2  0  0  0
 16 21  1  0  0  0
 16 31  1  0  0  0
 17 18  1  0  0  0
 17102  1  0  0  0
 18 19  2  0  0  0
 18103  1  0  0  0
 19 20  1  0  0  0
 19 24  1  0  0  0
 20 21  2  0  0  0
 20104  1  0  0  0
 21 23  1  0  0  0
 22 28  1  0  0  0
 22 32  2  0  0  0
 26 27  1  0  0  0
 28105  1  0  0  0
 28106  1  0  0  0
 29107  1  0  0  0
 29108  1  0  0  0
 33 34  1  0  0  0
 33 66  1  0  0  0
 33 70  2  0  0  0
 34 36  1  0  0  0
 34 59  1  0  0  0
 34109  1  0  0  0
 35 44  2  0  0  0
 35 45  1  0  0  0
 35 68  1  0  0  0
 36 56  1  0  0  0
 36110  1  0  0  0
 37 39  1  0  0  0
 37 47  1  0  0  0
 37 66  1  0  0  0
 37111  1  0  0  0
 38 43  2  0  0  0
 38 46  1  0  0  0
 38 47  1  0  0  0
 39 64  1  0  0  0
 39 67  2  0  0  0
 40 52  1  0  0  0
 40 53  2  0  0  0
 40 58  1  0  0  0
 41112  1  0  0  0
 41113  1  0  0  0
 41114  1  0  0  0
 41 48  1  0  0  0
 42 43  1  0  0  0
 42 66  1  0  0  0
 42115  1  0  0  0
 42116  1  0  0  0
 43 44  1  0  0  0
 44117  1  0  0  0
 45 46  2  0  0  0
 45118  1  0  0  0
 46119  1  0  0  0
 47120  1  0  0  0
 47121  1  0  0  0
 48 56  1  0  0  0
 48 65  1  0  0  0
 48122  1  0  0  0
 49 50  1  0  0  0
 49 53  1  0  0  0
 49 64  1  0  0  0
 49123  1  0  0  0
 50 51  1  0  0  0
 50124  1  0  0  0
 50125  1  0  0  0
 51 52  1  0  0  0
 51126  1  0  0  0
 51127  1  0  0  0
 52128  1  0  0  0
 52129  1  0  0  0
 53 54  1  0  0  0
 54 55  2  0  0  0
 54130  1  0  0  0
 55 57  1  0  0  0
 55131  1  0  0  0
 56 69  2  0  0  0
 57 58  2  0  0  0
 57132  1  0  0  0
 58133  1  0  0  0
 59 60  1  0  0  0
 59 61  1  0  0  0
 59 62  1  0  0  0
 60134  1  0  0  0
 60135  1  0  0  0
 60136  1  0  0  0
 61137  1  0  0  0
 61138  1  0  0  0
 61139  1  0  0  0
 62140  1  0  0  0
 62141  1  0  0  0
 62142  1  0  0  0
 63 65  1  0  0  0
 63143  1  0  0  0
 63144  1  0  0  0
 63145  1  0  0  0
 64146  1  0  0  0
 65147  1  0  0  0
 68 83  1  0  0  0
 71 72  2  0  0  0
 71 87  1  0  0  0
 71148  1  0  0  0
 72 77  1  0  0  0
 72 86  1  0  0  0
 73 78  1  0  0  0
 73 86  1  0  0  0
 73 87  2  0  0  0
 74149  1  0  0  0
 74150  1  0  0  0
 74151  1  0  0  0
 74 84  1  0  0  0
 75 84  1  0  0  0
 75152  1  0  0  0
 75153  1  0  0  0
 75154  1  0  0  0
 76155  1  0  0  0
 76156  1  0  0  0
 76157  1  0  0  0
 76 85  1  0  0  0
 77 79  1  0  0  0
 77158  1  0  0  0
 77159  1  0  0  0
 78 80  1  0  0  0
 78160  1  0  0  0
 78161  1  0  0  0
 79 85  1  0  0  0
 79162  1  0  0  0
 79163  1  0  0  0
 80 84  1  0  0  0
 80164  1  0  0  0
 80165  1  0  0  0
 81 82  1  0  0  0
 81 86  1  0  0  0
 81166  1  0  0  0
 81167  1  0  0  0
 82 88  1  0  0  0
 82168  1  0  0  0
 82169  1  0  0  0
 83 85  1  0  0  0
 83170  1  0  0  0
 83171  1  0  0  0
 84172  1  0  0  0
 85173  1  0  0  0
 87174  1  0  0  0
 88175  1  0  0  0
M  CHG  1  87   1
M  ISO  4   1 100  68 101  83 101  88 100
M  END
> <chiral flag>
0

> <version>
0

> <s_m_source_file>
/data/baiqing/PycharmProjects/Reinvent-master-3.2/result/LINK_invent/BTK/process_docking_weight1_custom_sum_contain_oxygen_bond_distance_aromatic_linkinvent_7_9_3/rearranged_h_0097.sdf

> <i_m_source_file_index>
47

> <r_mmod_Potential_Energy-OPLS-2005>
19.8415069580078

> <r_mmod_Stretch_Energy-OPLS-2005>
70.3778991699219

> <r_mmod_Bend_Energy-OPLS-2005>
157.690032958984

> <r_mmod_Torsional_Energy-OPLS-2005>
267.068084716797

> <r_mmod_Improper_Torsional_Energy-OPLS-2005>
4.27830457687378

> <r_mmod_Van_der_Waal_Energy-OPLS-2005>
124.46671295166

> <r_mmod_Electrostatic_Energy-OPLS-2005>
-231.141372680664

> <r_mmod_Solvation_Energy-OPLS-2005>
-406.097015380859

> <b_mmod_Minimization_Converged-OPLS-2005>
0

> <r_mmod_RMS_Derivative-OPLS-2005>
3.7084755897522

$$$$
47
                    3D
 Structure written by MMmdl.
181189  0  0  1  0            999 V2000
  -30.6991  -14.5384   20.5172 C   0  0  0  0  0  0
  -30.4281  -12.3564   19.4390 C   0  0  0  0  0  0
  -29.4906  -12.4916   18.2221 C   0  0  0  0  0  0
  -28.0140  -12.3546   18.6365 C   0  0  0  0  0  0
  -27.6503  -13.2259   19.8681 C   0  0  2  0  0  0
  -28.6945  -13.0771   20.9985 C   0  0  0  0  0  0
  -25.2508  -13.8256   20.5668 C   0  0  0  0  0  0
  -24.1762  -13.0426   20.9209 C   0  0  0  0  0  0
  -24.6377  -11.6937   20.8781 C   0  0  0  0  0  0
  -23.9063  -10.4297   21.0417 C   0  0  0  0  0  0
  -24.3621   -9.4232   21.9179 C   0  0  0  0  0  0
  -23.6303   -8.2255   22.0745 C   0  0  0  0  0  0
  -22.4290   -8.0293   21.3530 C   0  0  0  0  0  0
  -21.9925   -9.0271   20.4637 C   0  0  0  0  0  0
  -22.7246  -10.2162   20.3050 C   0  0  0  0  0  0
  -21.6869   -6.0745   22.5277 C   0  0  0  0  0  0
  -21.4017   -6.5638   23.8219 C   0  0  0  0  0  0
  -21.3654   -5.6797   24.9188 C   0  0  0  0  0  0
  -21.6051   -4.3042   24.7228 C   0  0  0  0  0  0
  -21.8812   -3.8145   23.4339 C   0  0  0  0  0  0
  -21.9192   -4.6983   22.3407 C   0  0  0  0  0  0
  -22.7808  -13.5243   21.1892 C   0  0  0  0  0  0
  -22.1654   -4.2158   21.0992 F   0  0  0  0  0  0
  -21.5640   -3.4529   25.7745 F   0  0  0  0  0  0
  -30.0204  -13.3643   20.4321 N   0  0  0  0  0  0
  -26.2957  -12.9445   20.3378 N   0  0  0  0  0  0
  -25.9295  -11.6572   20.5776 N   0  0  0  0  0  0
  -22.0445  -12.8207   22.0491 N   0  0  0  0  0  0
  -25.4184  -15.1961   20.4048 N   0  0  0  0  0  0
  -31.8617  -14.6541   20.1250 O   0  0  0  0  0  0
  -21.6633   -6.8894   21.4236 O   0  0  0  0  0  0
  -22.3461  -14.5510   20.6776 O   0  0  0  0  0  0
  -24.6172  -31.8730   23.2136 C   0  0  0  0  0  0
  -25.9045  -32.4914   23.8432 C   0  0  1  0  0  0
  -27.1676  -27.4066   20.1280 C   0  0  0  0  0  0
  -25.5769  -33.8696   24.2362 N   0  0  0  0  0  0
  -23.3962  -30.5182   21.5586 C   0  0  2  0  0  0
  -24.8229  -28.9882   20.1103 C   0  0  0  0  0  0
  -22.7381  -29.4793   22.4965 C   0  0  0  0  0  0
  -18.0323  -28.1279   22.8560 C   0  0  0  0  0  0
  -24.1423  -36.7378   23.2647 C   0  0  0  0  0  0
  -25.9281  -30.8433   21.3610 C   0  0  0  0  0  0
  -25.9939  -29.4837   20.6979 C   0  0  0  0  0  0
  -27.1789  -28.7129   20.6756 C   0  0  0  0  0  0
  -25.9826  -26.9308   19.5239 C   0  0  0  0  0  0
  -24.8205  -27.7194   19.5179 C   0  0  0  0  0  0
  -23.5899  -29.8676   20.1636 C   0  0  0  0  0  0
  -25.4027  -36.3179   24.0362 C   0  0  1  0  0  0
  -20.5924  -28.3720   23.1324 C   0  0  2  0  0  0
  -20.6819  -26.9432   22.5462 C   0  0  0  0  0  0
  -19.5832  -26.6378   21.5223 C   0  0  0  0  0  0
  -18.2016  -26.7843   22.1686 C   0  0  0  0  0  0
  -19.1546  -28.8774   23.2953 C   0  0  0  0  0  0
  -18.9483  -30.1415   23.8907 C   0  0  0  0  0  0
  -17.6478  -30.6546   24.0560 C   0  0  0  0  0  0
  -25.8922  -34.9553   23.5129 C   0  0  0  0  0  0
  -16.5356  -29.9020   23.6363 C   0  0  0  0  0  0
  -16.7311  -28.6392   23.0420 C   0  0  0  0  0  0
  -26.4453  -31.6678   25.0758 C   0  0  0  0  0  0
  -25.3658  -31.3816   26.1468 C   0  0  0  0  0  0
  -27.0285  -30.3127   24.6239 C   0  0  0  0  0  0
  -27.6027  -32.4387   25.7431 C   0  0  0  0  0  0
  -27.5551  -37.1863   24.8439 C   0  0  0  0  0  0
  -21.4112  -29.3068   22.3609 N   0  0  0  0  0  0
  -26.4265  -37.3842   23.9388 N   0  0  0  0  0  0
  -24.6707  -31.0875   22.1038 N   0  0  0  0  0  0
  -23.4154  -28.8303   23.2983 O   0  0  0  0  0  0
  -28.2893  -26.6111   20.2113 O   0  0  0  0  0  0
  -26.5590  -34.9023   22.4752 O   0  0  0  0  0  0
  -23.5364  -32.1505   23.7515 O   0  0  0  0  0  0
  -28.3418  -18.7581   20.5575 C   0  0  0  0  0  0
  -27.8850  -19.7081   21.5453 C   0  0  0  0  0  0
  -29.4465  -18.1082   21.0675 C   0  0  0  0  0  0
  -28.5202  -19.2807   22.6806 C   0  0  0  0  0  0
  -28.2964  -19.5212   24.1506 C   0  0  0  0  0  0
  -31.7110  -20.7687   24.6444 C   0  0  0  0  0  0
  -32.6312  -21.1516   21.0610 C   0  0  0  0  0  0
  -25.4751  -20.4444   21.5493 C   0  0  0  0  0  0
  -27.1841  -21.9099   22.6077 C   0  0  0  0  0  0
  -30.3784  -17.0198   20.5206 C   0  0  0  0  0  0
  -31.5874  -19.4582   23.8401 C   0  0  0  0  0  0
  -31.9619  -19.7748   21.2583 C   0  0  0  0  0  0
  -28.4005  -22.6962   19.9940 C   0  0  0  0  0  0
  -28.1263  -24.1854   19.5698 C   0  0  0  0  0  0
  -27.1466  -21.7471   20.1237 C   0  0  0  0  0  0
  -28.0743  -25.2556   20.6990 C   0  0  0  0  0  0
  -30.9617  -19.6847   22.4460 C   0  0  0  0  0  0
  -26.9380  -20.9205   21.4390 C   0  0  0  0  0  0
  -29.7442  -18.8979   22.1710 N   0  0  0  0  0  0
  -29.9684  -15.6342   20.8210 N   0  0  0  0  0  0
  -31.4608  -12.4856   19.1045 H   0  0  0  0  0  0
  -30.3863  -11.3584   19.8695 H   0  0  0  0  0  0
  -29.7353  -11.7305   17.4804 H   0  0  0  0  0  0
  -29.6482  -13.4595   17.7422 H   0  0  0  0  0  0
  -27.8241  -11.3039   18.8516 H   0  0  0  0  0  0
  -27.3664  -12.6179   17.7986 H   0  0  0  0  0  0
  -27.6705  -14.2636   19.5304 H   0  0  0  0  0  0
  -28.6701  -12.0690   21.4154 H   0  0  0  0  0  0
  -28.4523  -13.7490   21.8258 H   0  0  0  0  0  0
  -25.2764   -9.5721   22.4737 H   0  0  0  0  0  0
  -24.0036   -7.4645   22.7451 H   0  0  0  0  0  0
  -21.0856   -8.8788   19.8916 H   0  0  0  0  0  0
  -22.3697  -10.9710   19.6148 H   0  0  0  0  0  0
  -21.1973   -7.6140   23.9736 H   0  0  0  0  0  0
  -21.1501   -6.0511   25.9102 H   0  0  0  0  0  0
  -22.0586   -2.7601   23.2847 H   0  0  0  0  0  0
  -22.4065  -11.9874   22.4872 H   0  0  0  0  0  0
  -21.1040  -13.1217   22.2647 H   0  0  0  0  0  0
  -24.6577  -15.8599   20.5247 H   0  0  0  0  0  0
  -26.2736  -15.6383   20.0824 H   0  0  0  0  0  0
  -26.7129  -32.5656   23.1192 H   0  0  0  0  0  0
  -24.9759  -33.9814   25.0397 H   0  0  0  0  0  0
  -22.6950  -31.3511   21.4509 H   0  0  0  0  0  0
  -23.3664  -35.9720   23.3311 H   0  0  0  0  0  0
  -24.3580  -36.8986   22.2071 H   0  0  0  0  0  0
  -23.7205  -37.6603   23.6633 H   0  0  0  0  0  0
  -26.0271  -31.6186   20.5996 H   0  0  0  0  0  0
  -26.8155  -30.8903   21.9758 H   0  0  0  0  0  0
  -28.0846  -29.1030   21.1126 H   0  0  0  0  0  0
  -25.9445  -25.9571   19.0508 H   0  0  0  0  0  0
  -23.9189  -27.3540   19.0538 H   0  0  0  0  0  0
  -23.6941  -30.6524   19.4161 H   0  0  0  0  0  0
  -22.7076  -29.2973   19.8679 H   0  0  0  0  0  0
  -25.1221  -36.2075   25.0889 H   0  0  0  0  0  0
  -21.0083  -28.3229   24.1424 H   0  0  0  0  0  0
  -20.5719  -26.2248   23.3626 H   0  0  0  0  0  0
  -21.6723  -26.7495   22.1279 H   0  0  0  0  0  0
  -19.7063  -25.6294   21.1225 H   0  0  0  0  0  0
  -19.6727  -27.3288   20.6795 H   0  0  0  0  0  0
  -17.4235  -26.6575   21.4133 H   0  0  0  0  0  0
  -18.0562  -25.9974   22.9084 H   0  0  0  0  0  0
  -19.7954  -30.7295   24.2172 H   0  0  0  0  0  0
  -17.5009  -31.6316   24.5029 H   0  0  0  0  0  0
  -15.5330  -30.2928   23.7585 H   0  0  0  0  0  0
  -15.8707  -28.0708   22.7099 H   0  0  0  0  0  0
  -24.5801  -30.7225   25.7733 H   0  0  0  0  0  0
  -24.8898  -32.3007   26.4910 H   0  0  0  0  0  0
  -25.7951  -30.8964   27.0246 H   0  0  0  0  0  0
  -26.2893  -29.6900   24.1166 H   0  0  0  0  0  0
  -27.3810  -29.7452   25.4869 H   0  0  0  0  0  0
  -27.8860  -30.4462   23.9608 H   0  0  0  0  0  0
  -27.2716  -33.3699   26.2060 H   0  0  0  0  0  0
  -28.3733  -32.6875   25.0103 H   0  0  0  0  0  0
  -28.0748  -31.8473   26.5291 H   0  0  0  0  0  0
  -28.2602  -38.0130   24.7448 H   0  0  0  0  0  0
  -28.1021  -36.2672   24.6252 H   0  0  0  0  0  0
  -27.2325  -37.1528   25.8871 H   0  0  0  0  0  0
  -20.9097  -29.8736   21.6872 H   0  0  0  0  0  0
  -26.0156  -38.2913   24.1425 H   0  0  0  0  0  0
  -27.9618  -18.6466   19.5512 H   0  0  0  0  0  0
  -27.2329  -19.6067   24.3772 H   0  0  0  0  0  0
  -28.7726  -20.4338   24.5067 H   0  0  0  0  0  0
  -28.6515  -18.6823   24.7535 H   0  0  0  0  0  0
  -32.1157  -20.5935   25.6439 H   0  0  0  0  0  0
  -30.7446  -21.2522   24.7805 H   0  0  0  0  0  0
  -32.3426  -21.4911   24.1227 H   0  0  0  0  0  0
  -33.2571  -21.1524   20.1656 H   0  0  0  0  0  0
  -33.2766  -21.4171   21.8936 H   0  0  0  0  0  0
  -31.8961  -21.9486   20.9394 H   0  0  0  0  0  0
  -25.3005  -19.9070   22.4848 H   0  0  0  0  0  0
  -25.1665  -19.7902   20.7334 H   0  0  0  0  0  0
  -24.7978  -21.3000   21.5592 H   0  0  0  0  0  0
  -26.7805  -22.8937   22.3751 H   0  0  0  0  0  0
  -28.2491  -22.0280   22.8351 H   0  0  0  0  0  0
  -26.7279  -21.5900   23.5331 H   0  0  0  0  0  0
  -31.3893  -17.1580   20.9104 H   0  0  0  0  0  0
  -30.4687  -17.1185   19.4341 H   0  0  0  0  0  0
  -30.9935  -18.7530   24.4252 H   0  0  0  0  0  0
  -32.5656  -18.9890   23.7362 H   0  0  0  0  0  0
  -32.7260  -18.9988   21.3450 H   0  0  0  0  0  0
  -31.4471  -19.5777   20.3187 H   0  0  0  0  0  0
  -29.0100  -22.2546   19.1972 H   0  0  0  0  0  0
  -29.0446  -22.6744   20.8763 H   0  0  0  0  0  0
  -27.1931  -24.2199   19.0059 H   0  0  0  0  0  0
  -28.9031  -24.4940   18.8628 H   0  0  0  0  0  0
  -27.1239  -21.0552   19.2757 H   0  0  0  0  0  0
  -26.2634  -22.3798   20.0173 H   0  0  0  0  0  0
  -28.8469  -25.0683   21.4492 H   0  0  0  0  0  0
  -27.1381  -25.1454   21.2498 H   0  0  0  0  0  0
  -30.5602  -20.6991   22.4912 H   0  0  0  0  0  0
  -29.0199  -15.4919   21.1280 H   0  0  0  0  0  0
  1 25  1  0  0  0
  1 30  2  0  0  0
  1 90  1  0  0  0
  2  3  1  0  0  0
  2 25  1  0  0  0
  2 91  1  0  0  0
  2 92  1  0  0  0
  3  4  1  0  0  0
  3 93  1  0  0  0
  3 94  1  0  0  0
  4  5  1  0  0  0
  4 95  1  0  0  0
  4 96  1  0  0  0
  5  6  1  0  0  0
  5 26  1  0  0  0
  5 97  1  0  0  0
  6 25  1  0  0  0
  6 98  1  0  0  0
  6 99  1  0  0  0
  7  8  2  0  0  0
  7 26  1  0  0  0
  7 29  1  0  0  0
  8  9  1  0  0  0
  8 22  1  0  0  0
  9 10  1  0  0  0
  9 27  2  0  0  0
 10 11  2  0  0  0
 10 15  1  0  0  0
 11 12  1  0  0  0
 11100  1  0  0  0
 12 13  2  0  0  0
 12101  1  0  0  0
 13 14  1  0  0  0
 13 31  1  0  0  0
 14 15  2  0  0  0
 14102  1  0  0  0
 15103  1  0  0  0
 16 17  2  0  0  0
 16 21  1  0  0  0
 16 31  1  0  0  0
 17 18  1  0  0  0
 17104  1  0  0  0
 18 19  2  0  0  0
 18105  1  0  0  0
 19 20  1  0  0  0
 19 24  1  0  0  0
 20 21  2  0  0  0
 20106  1  0  0  0
 21 23  1  0  0  0
 22 28  1  0  0  0
 22 32  2  0  0  0
 26 27  1  0  0  0
 28107  1  0  0  0
 28108  1  0  0  0
 29109  1  0  0  0
 29110  1  0  0  0
 33 34  1  0  0  0
 33 66  1  0  0  0
 33 70  2  0  0  0
 34 36  1  0  0  0
 34 59  1  0  0  0
 34111  1  0  0  0
 35 44  2  0  0  0
 35 45  1  0  0  0
 35 68  1  0  0  0
 36 56  1  0  0  0
 36112  1  0  0  0
 37 39  1  0  0  0
 37 47  1  0  0  0
 37 66  1  0  0  0
 37113  1  0  0  0
 38 43  2  0  0  0
 38 46  1  0  0  0
 38 47  1  0  0  0
 39 64  1  0  0  0
 39 67  2  0  0  0
 40 52  1  0  0  0
 40 53  2  0  0  0
 40 58  1  0  0  0
 41114  1  0  0  0
 41115  1  0  0  0
 41116  1  0  0  0
 41 48  1  0  0  0
 42 43  1  0  0  0
 42 66  1  0  0  0
 42117  1  0  0  0
 42118  1  0  0  0
 43 44  1  0  0  0
 44119  1  0  0  0
 45 46  2  0  0  0
 45120  1  0  0  0
 46121  1  0  0  0
 47122  1  0  0  0
 47123  1  0  0  0
 48 56  1  0  0  0
 48 65  1  0  0  0
 48124  1  0  0  0
 49 50  1  0  0  0
 49 53  1  0  0  0
 49 64  1  0  0  0
 49125  1  0  0  0
 50 51  1  0  0  0
 50126  1  0  0  0
 50127  1  0  0  0
 51 52  1  0  0  0
 51128  1  0  0  0
 51129  1  0  0  0
 52130  1  0  0  0
 52131  1  0  0  0
 53 54  1  0  0  0
 54 55  2  0  0  0
 54132  1  0  0  0
 55 57  1  0  0  0
 55133  1  0  0  0
 56 69  2  0  0  0
 57 58  2  0  0  0
 57134  1  0  0  0
 58135  1  0  0  0
 59 60  1  0  0  0
 59 61  1  0  0  0
 59 62  1  0  0  0
 60136  1  0  0  0
 60137  1  0  0  0
 60138  1  0  0  0
 61139  1  0  0  0
 61140  1  0  0  0
 61141  1  0  0  0
 62142  1  0  0  0
 62143  1  0  0  0
 62144  1  0  0  0
 63 65  1  0  0  0
 63145  1  0  0  0
 63146  1  0  0  0
 63147  1  0  0  0
 64148  1  0  0  0
 65149  1  0  0  0
 68 86  1  0  0  0
 71 72  1  0  0  0
 71 73  2  0  0  0
 71150  1  0  0  0
 72 74  2  0  0  0
 72 88  1  0  0  0
 73 80  1  0  0  0
 73 89  1  0  0  0
 74 75  1  0  0  0
 74 89  1  0  0  0
 75151  1  0  0  0
 75152  1  0  0  0
 75153  1  0  0  0
 76 81  1  0  0  0
 76154  1  0  0  0
 76155  1  0  0  0
 76156  1  0  0  0
 77 82  1  0  0  0
 77157  1  0  0  0
 77158  1  0  0  0
 77159  1  0  0  0
 78160  1  0  0  0
 78161  1  0  0  0
 78162  1  0  0  0
 78 88  1  0  0  0
 79 88  1  0  0  0
 79163  1  0  0  0
 79164  1  0  0  0
 79165  1  0  0  0
 80 90  1  0  0  0
 80166  1  0  0  0
 80167  1  0  0  0
 81168  1  0  0  0
 81169  1  0  0  0
 81 87  1  0  0  0
 82 87  1  0  0  0
 82170  1  0  0  0
 82171  1  0  0  0
 83 84  1  0  0  0
 83 85  1  0  0  0
 83172  1  0  0  0
 83173  1  0  0  0
 84 86  1  0  0  0
 84174  1  0  0  0
 84175  1  0  0  0
 85 88  1  0  0  0
 85176  1  0  0  0
 85177  1  0  0  0
 86178  1  0  0  0
 86179  1  0  0  0
 87 89  1  0  0  0
 87180  1  0  0  0
 90181  1  0  0  0
M  ISO  4   1 100  68 101  86 101  90 100
M  END
> <chiral flag>
0

> <version>
0

> <s_m_source_file>
/data/baiqing/PycharmProjects/Reinvent-master-3.2/result/LINK_invent/BTK/process_docking_weight1_custom_sum_contain_oxygen_bond_distance_aromatic_linkinvent_7_9_3/rearranged_h_0097.sdf

> <i_m_source_file_index>
48

> <r_mmod_Potential_Energy-OPLS-2005>
184.233291625977

> <r_mmod_Stretch_Energy-OPLS-2005>
51.2351112365723

> <r_mmod_Bend_Energy-OPLS-2005>
138.676406860352

> <r_mmod_Torsional_Energy-OPLS-2005>
470.314849853516

> <r_mmod_Improper_Torsional_Energy-OPLS-2005>
17.8074512481689

> <r_mmod_Van_der_Waal_Energy-OPLS-2005>
131.264083862305

> <r_mmod_Electrostatic_Energy-OPLS-2005>
-474.414398193359

> <r_mmod_Solvation_Energy-OPLS-2005>
-181.443252563477

> <b_mmod_Minimization_Converged-OPLS-2005>
0

> <r_mmod_RMS_Derivative-OPLS-2005>
11.6181116104126

$$$$
48
                    3D
 Structure written by MMmdl.
166174  0  0  1  0            999 V2000
  -30.7101  -14.4967   20.5777 C   0  0  0  0  0  0
  -30.4241  -12.3258   19.4247 C   0  0  0  0  0  0
  -29.4973  -12.5040   18.2063 C   0  0  0  0  0  0
  -28.0177  -12.3599   18.6195 C   0  0  0  0  0  0
  -27.6621  -13.2078   19.8716 C   0  0  2  0  0  0
  -28.7047  -13.0134   20.9937 C   0  0  0  0  0  0
  -25.2595  -13.8168   20.5647 C   0  0  0  0  0  0
  -24.1832  -13.0458   20.9150 C   0  0  0  0  0  0
  -24.6393  -11.6922   20.8733 C   0  0  0  0  0  0
  -23.9060  -10.4308   21.0402 C   0  0  0  0  0  0
  -24.3621   -9.4225   21.9172 C   0  0  0  0  0  0
  -23.6303   -8.2258   22.0749 C   0  0  0  0  0  0
  -22.4278   -8.0294   21.3546 C   0  0  0  0  0  0
  -21.9912   -9.0261   20.4645 C   0  0  0  0  0  0
  -22.7238  -10.2141   20.3047 C   0  0  0  0  0  0
  -21.6860   -6.0748   22.5271 C   0  0  0  0  0  0
  -21.4016   -6.5642   23.8205 C   0  0  0  0  0  0
  -21.3659   -5.6790   24.9159 C   0  0  0  0  0  0
  -21.6047   -4.3056   24.7210 C   0  0  0  0  0  0
  -21.8818   -3.8154   23.4331 C   0  0  0  0  0  0
  -21.9190   -4.6974   22.3391 C   0  0  0  0  0  0
  -22.7853  -13.5273   21.1814 C   0  0  0  0  0  0
  -22.1657   -4.2160   21.0969 F   0  0  0  0  0  0
  -21.5630   -3.4539   25.7727 F   0  0  0  0  0  0
  -30.0287  -13.3242   20.4321 N   0  0  0  0  0  0
  -26.3041  -12.9342   20.3364 N   0  0  0  0  0  0
  -25.9325  -11.6506   20.5767 N   0  0  0  0  0  0
  -22.0481  -12.8274   22.0372 N   0  0  0  0  0  0
  -25.4355  -15.1874   20.4033 N   0  0  0  0  0  0
  -31.8448  -14.6566   20.1243 O   0  0  0  0  0  0
  -21.6640   -6.8896   21.4239 O   0  0  0  0  0  0
  -22.3552  -14.5597   20.6689 O   0  0  0  0  0  0
  -24.6193  -31.8640   23.2060 C   0  0  0  0  0  0
  -25.9073  -32.4795   23.8371 C   0  0  1  0  0  0
  -27.2379  -27.3813   20.0996 C   0  0  0  0  0  0
  -25.5920  -33.8597   24.2304 N   0  0  0  0  0  0
  -23.4092  -30.4864   21.5468 C   0  0  2  0  0  0
  -24.8540  -28.9399   20.1174 C   0  0  0  0  0  0
  -22.7428  -29.4652   22.4974 C   0  0  0  0  0  0
  -18.0277  -28.1381   22.8488 C   0  0  0  0  0  0
  -24.1485  -36.7289   23.2637 C   0  0  0  0  0  0
  -25.9436  -30.8097   21.3694 C   0  0  0  0  0  0
  -26.0164  -29.4406   20.7145 C   0  0  0  0  0  0
  -27.2055  -28.6687   20.7002 C   0  0  0  0  0  0
  -26.0466  -26.9017   19.5064 C   0  0  0  0  0  0
  -24.8666  -27.6715   19.5129 C   0  0  0  0  0  0
  -23.6197  -29.8138   20.1637 C   0  0  0  0  0  0
  -25.4109  -36.3089   24.0333 C   0  0  1  0  0  0
  -20.5869  -28.3679   23.1299 C   0  0  2  0  0  0
  -20.6771  -26.9413   22.5406 C   0  0  0  0  0  0
  -19.5750  -26.6387   21.5205 C   0  0  0  0  0  0
  -18.1928  -26.7925   22.1616 C   0  0  0  0  0  0
  -19.1524  -28.8847   23.2887 C   0  0  0  0  0  0
  -18.9458  -30.1449   23.8900 C   0  0  0  0  0  0
  -17.6461  -30.6591   24.0560 C   0  0  0  0  0  0
  -25.9044  -34.9460   23.5115 C   0  0  0  0  0  0
  -16.5347  -29.9086   23.6332 C   0  0  0  0  0  0
  -16.7267  -28.6497   23.0360 C   0  0  0  0  0  0
  -26.4486  -31.6598   25.0726 C   0  0  0  0  0  0
  -25.3740  -31.3727   26.1470 C   0  0  0  0  0  0
  -27.0337  -30.3034   24.6156 C   0  0  0  0  0  0
  -27.6056  -32.4333   25.7488 C   0  0  0  0  0  0
  -27.5579  -37.1796   24.8465 C   0  0  0  0  0  0
  -21.4154  -29.3041   22.3704 N   0  0  0  0  0  0
  -26.4289  -37.3781   23.9413 N   0  0  0  0  0  0
  -24.6754  -31.0695   22.0982 N   0  0  0  0  0  0
  -23.4176  -28.8202   23.3041 O   0  0  0  0  0  0
  -28.4299  -26.6645   20.1203 O   0  0  0  0  0  0
  -26.5598  -34.8921   22.4673 O   0  0  0  0  0  0
  -23.5375  -32.1425   23.7423 O   0  0  0  0  0  0
  -29.6114  -19.2102   21.6654 C   0  0  0  0  0  0
  -29.2976  -19.7180   19.5282 C   0  0  0  0  0  0
  -29.9996  -18.1008   20.9520 C   0  0  0  0  0  0
  -29.7987  -18.4353   19.5729 C   0  0  0  0  0  0
  -31.6137  -17.6722   18.0215 C   0  0  0  0  0  0
  -29.2419  -17.8852   17.1671 C   0  0  0  0  0  0
  -29.6774  -24.5781   21.8003 C   0  0  0  0  0  0
  -30.6102  -16.8214   21.5519 C   0  0  0  0  0  0
  -28.8796  -22.7393   20.2062 C   0  0  0  0  0  0
  -28.7100  -21.5605   21.2283 C   0  0  0  0  0  0
  -28.5554  -25.2961   19.6395 C   0  0  0  0  0  0
  -30.1252  -17.5628   18.3789 C   0  0  0  0  0  0
  -28.6118  -24.1934   20.7549 C   0  0  2  0  0  0
  -29.2020  -20.2274   20.8095 N   0  0  0  0  0  0
  -30.0389  -15.5165   21.1552 N   0  0  0  0  0  0
  -31.4678  -12.4289   19.1208 H   0  0  0  0  0  0
  -30.3334  -11.3190   19.8348 H   0  0  0  0  0  0
  -29.7469  -11.7738   17.4337 H   0  0  0  0  0  0
  -29.6589  -13.4878   17.7634 H   0  0  0  0  0  0
  -27.8252  -11.3036   18.8137 H   0  0  0  0  0  0
  -27.3710  -12.6329   17.7854 H   0  0  0  0  0  0
  -27.7064  -14.2533   19.5650 H   0  0  0  0  0  0
  -28.6874  -11.9832   21.3536 H   0  0  0  0  0  0
  -28.4667  -13.6294   21.8620 H   0  0  0  0  0  0
  -25.2764   -9.5710   22.4746 H   0  0  0  0  0  0
  -24.0009   -7.4660   22.7478 H   0  0  0  0  0  0
  -21.0843   -8.8785   19.8966 H   0  0  0  0  0  0
  -22.3694  -10.9676   19.6161 H   0  0  0  0  0  0
  -21.2006   -7.6148   23.9717 H   0  0  0  0  0  0
  -21.1487   -6.0509   25.9064 H   0  0  0  0  0  0
  -22.0604   -2.7624   23.2813 H   0  0  0  0  0  0
  -22.4099  -11.9953   22.4786 H   0  0  0  0  0  0
  -21.1101  -13.1323   22.2575 H   0  0  0  0  0  0
  -24.6771  -15.8485   20.5236 H   0  0  0  0  0  0
  -26.2961  -15.6229   20.0956 H   0  0  0  0  0  0
  -26.7137  -32.5479   23.1119 H   0  0  0  0  0  0
  -25.0107  -33.9759   25.0474 H   0  0  0  0  0  0
  -22.7001  -31.3046   21.4027 H   0  0  0  0  0  0
  -23.3755  -35.9614   23.3306 H   0  0  0  0  0  0
  -24.3573  -36.8900   22.2050 H   0  0  0  0  0  0
  -23.7232  -37.6492   23.6649 H   0  0  0  0  0  0
  -26.0705  -31.5753   20.6027 H   0  0  0  0  0  0
  -26.8263  -30.8557   21.9963 H   0  0  0  0  0  0
  -28.1040  -29.0520   21.1634 H   0  0  0  0  0  0
  -25.9894  -25.9327   19.0372 H   0  0  0  0  0  0
  -23.9696  -27.2762   19.0562 H   0  0  0  0  0  0
  -23.7336  -30.5850   19.4012 H   0  0  0  0  0  0
  -22.7425  -29.2358   19.8673 H   0  0  0  0  0  0
  -25.1286  -36.1943   25.0826 H   0  0  0  0  0  0
  -20.9957  -28.3250   24.1419 H   0  0  0  0  0  0
  -20.5677  -26.2291   23.3598 H   0  0  0  0  0  0
  -21.6644  -26.7459   22.1202 H   0  0  0  0  0  0
  -19.6918  -25.6297   21.1238 H   0  0  0  0  0  0
  -19.6688  -27.3193   20.6730 H   0  0  0  0  0  0
  -17.4199  -26.6672   21.4017 H   0  0  0  0  0  0
  -18.0332  -26.0063   22.9010 H   0  0  0  0  0  0
  -19.7937  -30.7259   24.2273 H   0  0  0  0  0  0
  -17.5022  -31.6272   24.5157 H   0  0  0  0  0  0
  -15.5353  -30.2993   23.7660 H   0  0  0  0  0  0
  -15.8662  -28.0815   22.7091 H   0  0  0  0  0  0
  -24.5902  -30.7087   25.7804 H   0  0  0  0  0  0
  -24.8946  -32.2893   26.4916 H   0  0  0  0  0  0
  -25.8083  -30.8892   27.0230 H   0  0  0  0  0  0
  -26.2909  -29.6780   24.1191 H   0  0  0  0  0  0
  -27.4068  -29.7289   25.4644 H   0  0  0  0  0  0
  -27.8756  -30.4340   23.9354 H   0  0  0  0  0  0
  -27.2673  -33.3630   26.2077 H   0  0  0  0  0  0
  -28.3857  -32.6906   25.0310 H   0  0  0  0  0  0
  -28.0737  -31.8457   26.5395 H   0  0  0  0  0  0
  -28.2595  -38.0096   24.7523 H   0  0  0  0  0  0
  -28.1076  -36.2628   24.6273 H   0  0  0  0  0  0
  -27.2298  -37.1430   25.8868 H   0  0  0  0  0  0
  -20.9326  -29.8747   21.6904 H   0  0  0  0  0  0
  -26.0172  -38.2856   24.1423 H   0  0  0  0  0  0
  -29.6143  -19.3806   22.7349 H   0  0  0  0  0  0
  -29.0158  -20.3264   18.6798 H   0  0  0  0  0  0
  -32.2424  -17.3980   18.8690 H   0  0  0  0  0  0
  -31.8782  -18.6888   17.7303 H   0  0  0  0  0  0
  -31.8735  -17.0105   17.1948 H   0  0  0  0  0  0
  -28.1852  -17.8069   17.4218 H   0  0  0  0  0  0
  -29.4350  -17.1951   16.3454 H   0  0  0  0  0  0
  -29.4278  -18.8945   16.7977 H   0  0  0  0  0  0
  -29.6712  -23.9095   22.6598 H   0  0  0  0  0  0
  -29.5067  -25.5832   22.1867 H   0  0  0  0  0  0
  -30.6792  -24.5560   21.3696 H   0  0  0  0  0  0
  -30.5237  -16.8889   22.6373 H   0  0  0  0  0  0
  -31.6832  -16.8492   21.3511 H   0  0  0  0  0  0
  -28.2019  -22.5522   19.3724 H   0  0  0  0  0  0
  -29.8845  -22.7003   19.7854 H   0  0  0  0  0  0
  -27.6561  -21.4602   21.4899 H   0  0  0  0  0  0
  -29.2198  -21.8029   22.1592 H   0  0  0  0  0  0
  -27.8281  -25.0330   18.8744 H   0  0  0  0  0  0
  -29.5079  -25.2674   19.1082 H   0  0  0  0  0  0
  -29.9199  -16.5310   18.6596 H   0  0  0  0  0  0
  -27.6408  -24.1888   21.2524 H   0  0  0  0  0  0
  -29.0924  -15.3298   21.4482 H   0  0  0  0  0  0
  1 25  1  0  0  0
  1 30  2  0  0  0
  1 85  1  0  0  0
  2  3  1  0  0  0
  2 25  1  0  0  0
  2 86  1  0  0  0
  2 87  1  0  0  0
  3  4  1  0  0  0
  3 88  1  0  0  0
  3 89  1  0  0  0
  4  5  1  0  0  0
  4 90  1  0  0  0
  4 91  1  0  0  0
  5  6  1  0  0  0
  5 26  1  0  0  0
  5 92  1  0  0  0
  6 25  1  0  0  0
  6 93  1  0  0  0
  6 94  1  0  0  0
  7  8  2  0  0  0
  7 26  1  0  0  0
  7 29  1  0  0  0
  8  9  1  0  0  0
  8 22  1  0  0  0
  9 10  1  0  0  0
  9 27  2  0  0  0
 10 11  2  0  0  0
 10 15  1  0  0  0
 11 12  1  0  0  0
 11 95  1  0  0  0
 12 13  2  0  0  0
 12 96  1  0  0  0
 13 14  1  0  0  0
 13 31  1  0  0  0
 14 15  2  0  0  0
 14 97  1  0  0  0
 15 98  1  0  0  0
 16 17  2  0  0  0
 16 21  1  0  0  0
 16 31  1  0  0  0
 17 18  1  0  0  0
 17 99  1  0  0  0
 18 19  2  0  0  0
 18100  1  0  0  0
 19 20  1  0  0  0
 19 24  1  0  0  0
 20 21  2  0  0  0
 20101  1  0  0  0
 21 23  1  0  0  0
 22 28  1  0  0  0
 22 32  2  0  0  0
 26 27  1  0  0  0
 28102  1  0  0  0
 28103  1  0  0  0
 29104  1  0  0  0
 29105  1  0  0  0
 33 34  1  0  0  0
 33 66  1  0  0  0
 33 70  2  0  0  0
 34 36  1  0  0  0
 34 59  1  0  0  0
 34106  1  0  0  0
 35 44  2  0  0  0
 35 45  1  0  0  0
 35 68  1  0  0  0
 36 56  1  0  0  0
 36107  1  0  0  0
 37 39  1  0  0  0
 37 47  1  0  0  0
 37 66  1  0  0  0
 37108  1  0  0  0
 38 43  2  0  0  0
 38 46  1  0  0  0
 38 47  1  0  0  0
 39 64  1  0  0  0
 39 67  2  0  0  0
 40 52  1  0  0  0
 40 53  2  0  0  0
 40 58  1  0  0  0
 41109  1  0  0  0
 41110  1  0  0  0
 41111  1  0  0  0
 41 48  1  0  0  0
 42 43  1  0  0  0
 42 66  1  0  0  0
 42112  1  0  0  0
 42113  1  0  0  0
 43 44  1  0  0  0
 44114  1  0  0  0
 45 46  2  0  0  0
 45115  1  0  0  0
 46116  1  0  0  0
 47117  1  0  0  0
 47118  1  0  0  0
 48 56  1  0  0  0
 48 65  1  0  0  0
 48119  1  0  0  0
 49 50  1  0  0  0
 49 53  1  0  0  0
 49 64  1  0  0  0
 49120  1  0  0  0
 50 51  1  0  0  0
 50121  1  0  0  0
 50122  1  0  0  0
 51 52  1  0  0  0
 51123  1  0  0  0
 51124  1  0  0  0
 52125  1  0  0  0
 52126  1  0  0  0
 53 54  1  0  0  0
 54 55  2  0  0  0
 54127  1  0  0  0
 55 57  1  0  0  0
 55128  1  0  0  0
 56 69  2  0  0  0
 57 58  2  0  0  0
 57129  1  0  0  0
 58130  1  0  0  0
 59 60  1  0  0  0
 59 61  1  0  0  0
 59 62  1  0  0  0
 60131  1  0  0  0
 60132  1  0  0  0
 60133  1  0  0  0
 61134  1  0  0  0
 61135  1  0  0  0
 61136  1  0  0  0
 62137  1  0  0  0
 62138  1  0  0  0
 62139  1  0  0  0
 63 65  1  0  0  0
 63140  1  0  0  0
 63141  1  0  0  0
 63142  1  0  0  0
 64143  1  0  0  0
 65144  1  0  0  0
 68 81  1  0  0  0
 71 73  2  0  0  0
 71 84  1  0  0  0
 71145  1  0  0  0
 72 74  2  0  0  0
 72 84  1  0  0  0
 72146  1  0  0  0
 73 74  1  0  0  0
 73 78  1  0  0  0
 74 82  1  0  0  0
 75147  1  0  0  0
 75148  1  0  0  0
 75149  1  0  0  0
 75 82  1  0  0  0
 76 82  1  0  0  0
 76150  1  0  0  0
 76151  1  0  0  0
 76152  1  0  0  0
 77153  1  0  0  0
 77154  1  0  0  0
 77155  1  0  0  0
 77 83  1  0  0  0
 78 85  1  0  0  0
 78156  1  0  0  0
 78157  1  0  0  0
 79 80  1  0  0  0
 79 83  1  0  0  0
 79158  1  0  0  0
 79159  1  0  0  0
 80 84  1  0  0  0
 80160  1  0  0  0
 80161  1  0  0  0
 81 83  1  0  0  0
 81162  1  0  0  0
 81163  1  0  0  0
 82164  1  0  0  0
 83165  1  0  0  0
 85166  1  0  0  0
M  ISO  4   1 100  68 101  81 101  85 100
M  END
> <chiral flag>
0

> <version>
0

> <s_m_source_file>
/data/baiqing/PycharmProjects/Reinvent-master-3.2/result/LINK_invent/BTK/process_docking_weight1_custom_sum_contain_oxygen_bond_distance_aromatic_linkinvent_7_9_3/rearranged_h_0097.sdf

> <i_m_source_file_index>
49

> <r_mmod_Potential_Energy-OPLS-2005>
-117.327842712402

> <r_mmod_Stretch_Energy-OPLS-2005>
47.9239463806152

> <r_mmod_Bend_Energy-OPLS-2005>
125.294998168945

> <r_mmod_Torsional_Energy-OPLS-2005>
207.294418334961

> <r_mmod_Improper_Torsional_Energy-OPLS-2005>
2.85952258110046

> <r_mmod_Van_der_Waal_Energy-OPLS-2005>
118.176231384277

> <r_mmod_Electrostatic_Energy-OPLS-2005>
-436.579162597656

> <r_mmod_Solvation_Energy-OPLS-2005>
-200.875930786133

> <b_mmod_Minimization_Converged-OPLS-2005>
0

> <r_mmod_RMS_Derivative-OPLS-2005>
2.2545804977417

$$$$
49
                    3D
 Structure written by MMmdl.
172180  0  0  1  0            999 V2000
  -30.7431  -14.4261   20.5824 C   0  0  0  0  0  0
  -30.4168  -12.3041   19.3739 C   0  0  0  0  0  0
  -29.4727  -12.5194   18.1757 C   0  0  0  0  0  0
  -27.9990  -12.3847   18.6089 C   0  0  0  0  0  0
  -27.6663  -13.2102   19.8795 C   0  0  2  0  0  0
  -28.7212  -12.9607   20.9821 C   0  0  0  0  0  0
  -25.2638  -13.8175   20.5696 C   0  0  0  0  0  0
  -24.1891  -13.0454   20.9168 C   0  0  0  0  0  0
  -24.6447  -11.6920   20.8773 C   0  0  0  0  0  0
  -23.9101  -10.4274   21.0410 C   0  0  0  0  0  0
  -24.3638   -9.4190   21.9187 C   0  0  0  0  0  0
  -23.6273   -8.2254   22.0772 C   0  0  0  0  0  0
  -22.4262   -8.0292   21.3558 C   0  0  0  0  0  0
  -21.9908   -9.0290   20.4691 C   0  0  0  0  0  0
  -22.7273  -10.2138   20.3083 C   0  0  0  0  0  0
  -21.6842   -6.0743   22.5276 C   0  0  0  0  0  0
  -21.4013   -6.5635   23.8214 C   0  0  0  0  0  0
  -21.3661   -5.6789   24.9171 C   0  0  0  0  0  0
  -21.6040   -4.3052   24.7222 C   0  0  0  0  0  0
  -21.8822   -3.8146   23.4342 C   0  0  0  0  0  0
  -21.9189   -4.6966   22.3397 C   0  0  0  0  0  0
  -22.7910  -13.5260   21.1806 C   0  0  0  0  0  0
  -22.1659   -4.2157   21.0967 F   0  0  0  0  0  0
  -21.5629   -3.4531   25.7728 F   0  0  0  0  0  0
  -30.0429  -13.2720   20.4150 N   0  0  0  0  0  0
  -26.3070  -12.9362   20.3442 N   0  0  0  0  0  0
  -25.9376  -11.6513   20.5814 N   0  0  0  0  0  0
  -22.0517  -12.8301   22.0354 N   0  0  0  0  0  0
  -25.4338  -15.1883   20.4152 N   0  0  0  0  0  0
  -31.8608  -14.6074   20.0948 O   0  0  0  0  0  0
  -21.6637   -6.8900   21.4240 O   0  0  0  0  0  0
  -22.3617  -14.5561   20.6612 O   0  0  0  0  0  0
  -24.6157  -31.8659   23.2072 C   0  0  0  0  0  0
  -25.9035  -32.4802   23.8383 C   0  0  1  0  0  0
  -27.2523  -27.4424   20.0902 C   0  0  0  0  0  0
  -25.5883  -33.8608   24.2291 N   0  0  0  0  0  0
  -23.4053  -30.4898   21.5441 C   0  0  2  0  0  0
  -24.8569  -28.9566   20.1152 C   0  0  0  0  0  0
  -22.7401  -29.4651   22.4937 C   0  0  0  0  0  0
  -18.0272  -28.1348   22.8541 C   0  0  0  0  0  0
  -24.1480  -36.7285   23.2657 C   0  0  0  0  0  0
  -25.9345  -30.8340   21.3651 C   0  0  0  0  0  0
  -26.0153  -29.4691   20.7083 C   0  0  0  0  0  0
  -27.2116  -28.7191   20.6958 C   0  0  0  0  0  0
  -26.0703  -26.9482   19.4884 C   0  0  0  0  0  0
  -24.8761  -27.6913   19.5104 C   0  0  0  0  0  0
  -23.6168  -29.8174   20.1624 C   0  0  0  0  0  0
  -25.4095  -36.3092   24.0349 C   0  0  1  0  0  0
  -20.5890  -28.3632   23.1318 C   0  0  2  0  0  0
  -20.6747  -26.9337   22.5450 C   0  0  0  0  0  0
  -19.5711  -26.6355   21.5246 C   0  0  0  0  0  0
  -18.1892  -26.7899   22.1670 C   0  0  0  0  0  0
  -19.1537  -28.8785   23.2951 C   0  0  0  0  0  0
  -18.9468  -30.1413   23.8937 C   0  0  0  0  0  0
  -17.6473  -30.6571   24.0550 C   0  0  0  0  0  0
  -25.9014  -34.9463   23.5096 C   0  0  0  0  0  0
  -16.5354  -29.9069   23.6336 C   0  0  0  0  0  0
  -16.7271  -28.6473   23.0378 C   0  0  0  0  0  0
  -26.4438  -31.6605   25.0721 C   0  0  0  0  0  0
  -25.3730  -31.3778   26.1499 C   0  0  0  0  0  0
  -27.0243  -30.3024   24.6148 C   0  0  0  0  0  0
  -27.6006  -32.4329   25.7507 C   0  0  0  0  0  0
  -27.5558  -37.1794   24.8457 C   0  0  0  0  0  0
  -21.4130  -29.3000   22.3675 N   0  0  0  0  0  0
  -26.4267  -37.3774   23.9412 N   0  0  0  0  0  0
  -24.6680  -31.0797   22.0956 N   0  0  0  0  0  0
  -23.4160  -28.8183   23.2988 O   0  0  0  0  0  0
  -28.4383  -26.7311   20.1107 O   0  0  0  0  0  0
  -26.5587  -34.8923   22.4664 O   0  0  0  0  0  0
  -23.5349  -32.1382   23.7499 O   0  0  0  0  0  0
  -30.5287  -21.2652   21.2751 C   0  0  0  0  0  0
  -30.8305  -22.3006   20.3662 C   0  0  0  0  0  0
  -32.1926  -22.5145   20.0186 C   0  0  0  0  0  0
  -33.1714  -21.7106   20.6542 C   0  0  0  0  0  0
  -31.5716  -20.5133   21.8364 C   0  0  0  0  0  0
  -32.6036  -23.5596   18.9789 C   0  0  0  0  0  0
  -35.3600  -22.5351   21.6345 C   0  0  0  0  0  0
  -28.2291  -17.4605   21.7967 C   0  0  0  0  0  0
  -29.6822  -23.1275   19.7946 C   0  0  0  0  0  0
  -34.6721  -21.8749   20.4299 C   0  0  0  0  0  0
  -29.6277  -24.5845   20.3165 C   0  0  0  0  0  0
  -30.0893  -18.7986   22.9157 C   0  0  0  0  0  0
  -30.7167  -16.7387   21.4985 C   0  0  0  0  0  0
  -28.4003  -25.3373   19.7722 C   0  0  0  0  0  0
  -29.7024  -17.9020   21.7128 C   0  0  1  0  0  0
  -32.8576  -20.7443   21.5459 N   0  0  0  0  0  0
  -31.3738  -19.4805   22.7571 N   0  0  0  0  0  0
  -30.1131  -15.4186   21.2256 N   0  0  0  0  0  0
  -31.4513  -12.4021   19.0487 H   0  0  0  0  0  0
  -30.3201  -11.2876   19.7545 H   0  0  0  0  0  0
  -29.6346  -13.5064   17.7429 H   0  0  0  0  0  0
  -29.6929  -11.7998   17.3842 H   0  0  0  0  0  0
  -27.8039  -11.3240   18.7854 H   0  0  0  0  0  0
  -27.3384  -12.6789   17.7908 H   0  0  0  0  0  0
  -27.7151  -14.2660   19.6029 H   0  0  0  0  0  0
  -28.7030  -11.9115   21.2869 H   0  0  0  0  0  0
  -28.5052  -13.5345   21.8833 H   0  0  0  0  0  0
  -25.2796   -9.5639   22.4770 H   0  0  0  0  0  0
  -23.9978   -7.4644   22.7489 H   0  0  0  0  0  0
  -21.0844   -8.8841   19.9002 H   0  0  0  0  0  0
  -22.3759  -10.9690   19.6208 H   0  0  0  0  0  0
  -21.2010   -7.6145   23.9712 H   0  0  0  0  0  0
  -21.1477   -6.0517   25.9069 H   0  0  0  0  0  0
  -22.0599   -2.7608   23.2830 H   0  0  0  0  0  0
  -22.4125  -11.9981   22.4795 H   0  0  0  0  0  0
  -21.1161  -13.1415   22.2573 H   0  0  0  0  0  0
  -24.6716  -15.8432   20.5525 H   0  0  0  0  0  0
  -26.2958  -15.6322   20.1259 H   0  0  0  0  0  0
  -26.7114  -32.5505   23.1171 H   0  0  0  0  0  0
  -25.0034  -33.9737   25.0444 H   0  0  0  0  0  0
  -22.6955  -31.3065   21.3965 H   0  0  0  0  0  0
  -23.3717  -35.9638   23.3320 H   0  0  0  0  0  0
  -24.3574  -36.8871   22.2066 H   0  0  0  0  0  0
  -23.7239  -37.6508   23.6635 H   0  0  0  0  0  0
  -26.0599  -31.6055   20.6043 H   0  0  0  0  0  0
  -26.8171  -30.8770   21.9907 H   0  0  0  0  0  0
  -28.1075  -29.1109   21.1612 H   0  0  0  0  0  0
  -26.0468  -25.9913   18.9908 H   0  0  0  0  0  0
  -23.9821  -27.2853   19.0587 H   0  0  0  0  0  0
  -23.7175  -30.5821   19.3917 H   0  0  0  0  0  0
  -22.7450  -29.2296   19.8738 H   0  0  0  0  0  0
  -25.1276  -36.1949   25.0839 H   0  0  0  0  0  0
  -21.0056  -28.3190   24.1417 H   0  0  0  0  0  0
  -20.5607  -26.2201   23.3636 H   0  0  0  0  0  0
  -21.6602  -26.7307   22.1240 H   0  0  0  0  0  0
  -19.6823  -25.6277   21.1218 H   0  0  0  0  0  0
  -19.6653  -27.3218   20.6813 H   0  0  0  0  0  0
  -17.4157  -26.6704   21.4069 H   0  0  0  0  0  0
  -18.0256  -26.0032   22.9048 H   0  0  0  0  0  0
  -19.7939  -30.7232   24.2308 H   0  0  0  0  0  0
  -17.5014  -31.6288   24.5103 H   0  0  0  0  0  0
  -15.5346  -30.2974   23.7626 H   0  0  0  0  0  0
  -15.8680  -28.0794   22.7081 H   0  0  0  0  0  0
  -24.5889  -30.7087   25.7886 H   0  0  0  0  0  0
  -24.8969  -32.2997   26.4887 H   0  0  0  0  0  0
  -25.8163  -30.9036   27.0273 H   0  0  0  0  0  0
  -26.2819  -29.6853   24.1070 H   0  0  0  0  0  0
  -27.3800  -29.7207   25.4652 H   0  0  0  0  0  0
  -27.8735  -30.4237   23.9428 H   0  0  0  0  0  0
  -27.2559  -33.3588   26.2123 H   0  0  0  0  0  0
  -28.3846  -32.6942   25.0386 H   0  0  0  0  0  0
  -28.0621  -31.8427   26.5432 H   0  0  0  0  0  0
  -28.2592  -38.0081   24.7489 H   0  0  0  0  0  0
  -28.1039  -36.2605   24.6293 H   0  0  0  0  0  0
  -27.2274  -37.1466   25.8866 H   0  0  0  0  0  0
  -20.9209  -29.8729   21.6953 H   0  0  0  0  0  0
  -26.0141  -38.2837   24.1453 H   0  0  0  0  0  0
  -29.5006  -21.0698   21.5385 H   0  0  0  0  0  0
  -31.7652  -23.9641   18.4142 H   0  0  0  0  0  0
  -33.2722  -23.1184   18.2398 H   0  0  0  0  0  0
  -33.1158  -24.3934   19.4562 H   0  0  0  0  0  0
  -36.4398  -22.5864   21.4945 H   0  0  0  0  0  0
  -35.1695  -21.9720   22.5505 H   0  0  0  0  0  0
  -34.9946  -23.5515   21.7854 H   0  0  0  0  0  0
  -27.5720  -18.3243   21.9102 H   0  0  0  0  0  0
  -28.0347  -16.7877   22.6326 H   0  0  0  0  0  0
  -27.9169  -16.9663   20.8765 H   0  0  0  0  0  0
  -28.7450  -22.6308   20.0527 H   0  0  0  0  0  0
  -29.7152  -23.0964   18.7034 H   0  0  0  0  0  0
  -34.8940  -22.4503   19.5331 H   0  0  0  0  0  0
  -35.1062  -20.8911   20.2483 H   0  0  0  0  0  0
  -29.5816  -24.5756   21.4051 H   0  0  0  0  0  0
  -30.5365  -25.1242   20.0581 H   0  0  0  0  0  0
  -30.1561  -18.1865   23.8164 H   0  0  0  0  0  0
  -29.3173  -19.5399   23.1228 H   0  0  0  0  0  0
  -31.3729  -16.6335   22.3657 H   0  0  0  0  0  0
  -31.3778  -17.0357   20.6766 H   0  0  0  0  0  0
  -28.3571  -25.2291   18.6844 H   0  0  0  0  0  0
  -27.5144  -24.8525   20.1904 H   0  0  0  0  0  0
  -29.7467  -18.5311   20.8180 H   0  0  0  0  0  0
  -32.1882  -19.0938   23.2201 H   0  0  0  0  0  0
  -29.1731  -15.2458   21.5473 H   0  0  0  0  0  0
  1 25  1  0  0  0
  1 30  2  0  0  0
  1 88  1  0  0  0
  2  3  1  0  0  0
  2 25  1  0  0  0
  2 89  1  0  0  0
  2 90  1  0  0  0
  3  4  1  0  0  0
  3 91  1  0  0  0
  3 92  1  0  0  0
  4  5  1  0  0  0
  4 93  1  0  0  0
  4 94  1  0  0  0
  5  6  1  0  0  0
  5 26  1  0  0  0
  5 95  1  0  0  0
  6 25  1  0  0  0
  6 96  1  0  0  0
  6 97  1  0  0  0
  7  8  2  0  0  0
  7 26  1  0  0  0
  7 29  1  0  0  0
  8  9  1  0  0  0
  8 22  1  0  0  0
  9 10  1  0  0  0
  9 27  2  0  0  0
 10 11  2  0  0  0
 10 15  1  0  0  0
 11 12  1  0  0  0
 11 98  1  0  0  0
 12 13  2  0  0  0
 12 99  1  0  0  0
 13 14  1  0  0  0
 13 31  1  0  0  0
 14 15  2  0  0  0
 14100  1  0  0  0
 15101  1  0  0  0
 16 17  2  0  0  0
 16 21  1  0  0  0
 16 31  1  0  0  0
 17 18  1  0  0  0
 17102  1  0  0  0
 18 19  2  0  0  0
 18103  1  0  0  0
 19 20  1  0  0  0
 19 24  1  0  0  0
 20 21  2  0  0  0
 20104  1  0  0  0
 21 23  1  0  0  0
 22 28  1  0  0  0
 22 32  2  0  0  0
 26 27  1  0  0  0
 28105  1  0  0  0
 28106  1  0  0  0
 29107  1  0  0  0
 29108  1  0  0  0
 33 34  1  0  0  0
 33 66  1  0  0  0
 33 70  2  0  0  0
 34 36  1  0  0  0
 34 59  1  0  0  0
 34109  1  0  0  0
 35 44  2  0  0  0
 35 45  1  0  0  0
 35 68  1  0  0  0
 36 56  1  0  0  0
 36110  1  0  0  0
 37 39  1  0  0  0
 37 47  1  0  0  0
 37 66  1  0  0  0
 37111  1  0  0  0
 38 43  2  0  0  0
 38 46  1  0  0  0
 38 47  1  0  0  0
 39 64  1  0  0  0
 39 67  2  0  0  0
 40 52  1  0  0  0
 40 53  2  0  0  0
 40 58  1  0  0  0
 41112  1  0  0  0
 41113  1  0  0  0
 41114  1  0  0  0
 41 48  1  0  0  0
 42 43  1  0  0  0
 42 66  1  0  0  0
 42115  1  0  0  0
 42116  1  0  0  0
 43 44  1  0  0  0
 44117  1  0  0  0
 45 46  2  0  0  0
 45118  1  0  0  0
 46119  1  0  0  0
 47120  1  0  0  0
 47121  1  0  0  0
 48 56  1  0  0  0
 48 65  1  0  0  0
 48122  1  0  0  0
 49 50  1  0  0  0
 49 53  1  0  0  0
 49 64  1  0  0  0
 49123  1  0  0  0
 50 51  1  0  0  0
 50124  1  0  0  0
 50125  1  0  0  0
 51 52  1  0  0  0
 51126  1  0  0  0
 51127  1  0  0  0
 52128  1  0  0  0
 52129  1  0  0  0
 53 54  1  0  0  0
 54 55  2  0  0  0
 54130  1  0  0  0
 55 57  1  0  0  0
 55131  1  0  0  0
 56 69  2  0  0  0
 57 58  2  0  0  0
 57132  1  0  0  0
 58133  1  0  0  0
 59 60  1  0  0  0
 59 61  1  0  0  0
 59 62  1  0  0  0
 60134  1  0  0  0
 60135  1  0  0  0
 60136  1  0  0  0
 61137  1  0  0  0
 61138  1  0  0  0
 61139  1  0  0  0
 62140  1  0  0  0
 62141  1  0  0  0
 62142  1  0  0  0
 63 65  1  0  0  0
 63143  1  0  0  0
 63144  1  0  0  0
 63145  1  0  0  0
 64146  1  0  0  0
 65147  1  0  0  0
 68 84  1  0  0  0
 71 72  2  0  0  0
 71 75  1  0  0  0
 71148  1  0  0  0
 72 73  1  0  0  0
 72 79  1  0  0  0
 73 74  2  0  0  0
 73 76  1  0  0  0
 74 80  1  0  0  0
 74 86  1  0  0  0
 75 86  2  0  0  0
 75 87  1  0  0  0
 76149  1  0  0  0
 76150  1  0  0  0
 76151  1  0  0  0
 77 80  1  0  0  0
 77152  1  0  0  0
 77153  1  0  0  0
 77154  1  0  0  0
 78155  1  0  0  0
 78156  1  0  0  0
 78157  1  0  0  0
 78 85  1  0  0  0
 79 81  1  0  0  0
 79158  1  0  0  0
 79159  1  0  0  0
 80160  1  0  0  0
 80161  1  0  0  0
 81 84  1  0  0  0
 81162  1  0  0  0
 81163  1  0  0  0
 82 85  1  0  0  0
 82 87  1  0  0  0
 82164  1  0  0  0
 82165  1  0  0  0
 83 85  1  0  0  0
 83 88  1  0  0  0
 83166  1  0  0  0
 83167  1  0  0  0
 84168  1  0  0  0
 84169  1  0  0  0
 85170  1  0  0  0
 87171  1  0  0  0
 88172  1  0  0  0
M  ISO  4   1 100  68 101  84 101  88 100
M  END
> <chiral flag>
0

> <version>
0

> <s_m_source_file>
/data/baiqing/PycharmProjects/Reinvent-master-3.2/result/LINK_invent/BTK/process_docking_weight1_custom_sum_contain_oxygen_bond_distance_aromatic_linkinvent_7_9_3/rearranged_h_0097.sdf

> <i_m_source_file_index>
50

> <r_mmod_Potential_Energy-OPLS-2005>
-361.921539306641

> <r_mmod_Stretch_Energy-OPLS-2005>
37.4612464904785

> <r_mmod_Bend_Energy-OPLS-2005>
117.63459777832

> <r_mmod_Torsional_Energy-OPLS-2005>
201.254959106445

> <r_mmod_Improper_Torsional_Energy-OPLS-2005>
2.54707026481628

> <r_mmod_Van_der_Waal_Energy-OPLS-2005>
165.354965209961

> <r_mmod_Electrostatic_Energy-OPLS-2005>
-663.810363769531

> <r_mmod_Solvation_Energy-OPLS-2005>
-233.744491577148

> <b_mmod_Minimization_Converged-OPLS-2005>
0

> <r_mmod_RMS_Derivative-OPLS-2005>
6.01737213134766

$$$$
50
                    3D
 Structure written by MMmdl.
173181  0  0  1  0            999 V2000
  -30.6908  -14.6995   20.5055 C   0  0  0  0  0  0
  -30.4165  -12.4441   19.4788 C   0  0  0  0  0  0
  -29.5049  -12.5123   18.2363 C   0  0  0  0  0  0
  -28.0349  -12.3312   18.6521 C   0  0  0  0  0  0
  -27.6400  -13.2379   19.8481 C   0  0  2  0  0  0
  -28.6806  -13.1937   20.9891 C   0  0  0  0  0  0
  -25.2503  -13.8235   20.5704 C   0  0  0  0  0  0
  -24.1802  -13.0464   20.9236 C   0  0  0  0  0  0
  -24.6396  -11.6948   20.8764 C   0  0  0  0  0  0
  -23.9078  -10.4317   21.0416 C   0  0  0  0  0  0
  -24.3626   -9.4225   21.9200 C   0  0  0  0  0  0
  -23.6287   -8.2266   22.0765 C   0  0  0  0  0  0
  -22.4271   -8.0307   21.3560 C   0  0  0  0  0  0
  -21.9912   -9.0280   20.4664 C   0  0  0  0  0  0
  -22.7241  -10.2157   20.3071 C   0  0  0  0  0  0
  -21.6847   -6.0738   22.5286 C   0  0  0  0  0  0
  -21.4011   -6.5637   23.8222 C   0  0  0  0  0  0
  -21.3660   -5.6791   24.9185 C   0  0  0  0  0  0
  -21.6040   -4.3055   24.7227 C   0  0  0  0  0  0
  -21.8816   -3.8144   23.4348 C   0  0  0  0  0  0
  -21.9190   -4.6965   22.3403 C   0  0  0  0  0  0
  -22.7825  -13.5255   21.1867 C   0  0  0  0  0  0
  -22.1666   -4.2151   21.0979 F   0  0  0  0  0  0
  -21.5633   -3.4536   25.7737 F   0  0  0  0  0  0
  -29.9911  -13.5171   20.4121 N   0  0  0  0  0  0
  -26.2927  -12.9449   20.3281 N   0  0  0  0  0  0
  -25.9328  -11.6588   20.5773 N   0  0  0  0  0  0
  -22.0426  -12.8259   22.0404 N   0  0  0  0  0  0
  -25.4157  -15.1960   20.4032 N   0  0  0  0  0  0
  -31.8459  -14.7596   20.0862 O   0  0  0  0  0  0
  -21.6640   -6.8893   21.4253 O   0  0  0  0  0  0
  -22.3557  -14.5573   20.6704 O   0  0  0  0  0  0
  -24.6319  -31.8569   23.2006 C   0  0  0  0  0  0
  -25.9142  -32.4766   23.8346 C   0  0  1  0  0  0
  -27.2199  -27.2734   20.1261 C   0  0  0  0  0  0
  -25.5929  -33.8564   24.2277 N   0  0  0  0  0  0
  -23.4285  -30.4821   21.5440 C   0  0  2  0  0  0
  -24.8752  -28.9347   20.1115 C   0  0  0  0  0  0
  -22.7507  -29.4627   22.4913 C   0  0  0  0  0  0
  -18.0297  -28.1371   22.8499 C   0  0  0  0  0  0
  -24.1485  -36.7287   23.2638 C   0  0  0  0  0  0
  -25.9759  -30.7733   21.3814 C   0  0  0  0  0  0
  -26.0476  -29.3992   20.7208 C   0  0  0  0  0  0
  -27.2236  -28.5817   20.7162 C   0  0  0  0  0  0
  -26.0219  -26.8819   19.4828 C   0  0  0  0  0  0
  -24.8676  -27.6846   19.4808 C   0  0  0  0  0  0
  -23.6452  -29.8184   20.1601 C   0  0  0  0  0  0
  -25.4108  -36.3074   24.0334 C   0  0  1  0  0  0
  -20.5896  -28.3698   23.1253 C   0  0  2  0  0  0
  -20.6793  -26.9416   22.5393 C   0  0  0  0  0  0
  -19.5746  -26.6360   21.5221 C   0  0  0  0  0  0
  -18.1946  -26.7900   22.1674 C   0  0  0  0  0  0
  -19.1548  -28.8854   23.2866 C   0  0  0  0  0  0
  -18.9468  -30.1450   23.8889 C   0  0  0  0  0  0
  -17.6465  -30.6586   24.0541 C   0  0  0  0  0  0
  -25.9046  -34.9444   23.5109 C   0  0  0  0  0  0
  -16.5360  -29.9076   23.6327 C   0  0  0  0  0  0
  -16.7286  -28.6484   23.0376 C   0  0  0  0  0  0
  -26.4493  -31.6583   25.0735 C   0  0  0  0  0  0
  -25.3706  -31.3768   26.1462 C   0  0  0  0  0  0
  -27.0355  -30.2991   24.6249 C   0  0  0  0  0  0
  -27.6041  -32.4328   25.7510 C   0  0  0  0  0  0
  -27.5578  -37.1801   24.8463 C   0  0  0  0  0  0
  -21.4212  -29.3066   22.3659 N   0  0  0  0  0  0
  -26.4285  -37.3772   23.9411 N   0  0  0  0  0  0
  -24.6978  -31.0545   22.0977 N   0  0  0  0  0  0
  -23.4199  -28.8167   23.3019 O   0  0  0  0  0  0
  -28.3104  -26.3718   20.1888 O   0  0  0  0  0  0
  -26.5620  -34.8928   22.4680 O   0  0  0  0  0  0
  -23.5475  -32.1383   23.7312 O   0  0  0  0  0  0
  -30.5367  -18.5272   19.3416 C   0  0  0  0  0  0
  -30.8375  -19.8201   18.8742 C   0  0  0  0  0  0
  -29.5522  -18.3388   20.3272 C   0  0  0  0  0  0
  -28.9299  -19.5629   20.8250 C   0  0  0  0  0  0
  -29.2573  -20.8653   20.2445 C   0  0  0  0  0  0
  -24.6631  -20.6571   24.8001 C   0  0  0  0  0  0
  -24.5615  -18.1272   22.8772 C   0  0  0  0  0  0
  -25.9502  -19.8112   20.5839 C   0  0  0  0  0  0
  -29.1432  -16.8335   20.6630 C   0  0  0  0  0  0
  -27.9794  -19.4918   22.0294 C   0  0  0  0  0  0
  -28.4221  -22.2177   20.4161 C   0  0  0  0  0  0
  -25.2141  -20.5579   23.3705 C   0  0  0  0  0  0
  -29.0513  -23.7073   20.3705 C   0  0  0  0  0  0
  -28.0069  -24.9047   20.0844 C   0  0  0  0  0  0
  -25.7182  -19.1394   22.9888 C   0  0  2  0  0  0
  -30.1972  -20.9403   19.2794 N   0  0  0  0  0  0
  -30.1744  -15.8254   21.1053 N   0  0  0  0  0  0
  -26.5599  -19.1232   21.7517 N   0  3  1  0  0  0
  -30.3371  -11.4695   19.9630 H   0  0  0  0  0  0
  -31.4617  -12.5351   19.1787 H   0  0  0  0  0  0
  -29.7923  -11.7448   17.5156 H   0  0  0  0  0  0
  -29.6330  -13.4700   17.7284 H   0  0  0  0  0  0
  -27.8986  -11.2830   18.9226 H   0  0  0  0  0  0
  -27.3752  -12.5156   17.8042 H   0  0  0  0  0  0
  -27.6326  -14.2552   19.4571 H   0  0  0  0  0  0
  -28.4087  -13.9003   21.7755 H   0  0  0  0  0  0
  -28.7026  -12.2104   21.4587 H   0  0  0  0  0  0
  -25.2774   -9.5681   22.4788 H   0  0  0  0  0  0
  -23.9983   -7.4647   22.7474 H   0  0  0  0  0  0
  -21.0849   -8.8791   19.8971 H   0  0  0  0  0  0
  -22.3700  -10.9697   19.6183 H   0  0  0  0  0  0
  -21.2013   -7.6149   23.9720 H   0  0  0  0  0  0
  -21.1479   -6.0528   25.9088 H   0  0  0  0  0  0
  -22.0589   -2.7604   23.2842 H   0  0  0  0  0  0
  -22.3993  -11.9927   22.4853 H   0  0  0  0  0  0
  -21.1055  -13.1346   22.2582 H   0  0  0  0  0  0
  -24.5833  -15.7731   20.3600 H   0  0  0  0  0  0
  -26.1786  -15.5598   19.8484 H   0  0  0  0  0  0
  -26.7216  -32.5418   23.1096 H   0  0  0  0  0  0
  -25.0048  -33.9699   25.0405 H   0  0  0  0  0  0
  -22.7243  -31.3039   21.3999 H   0  0  0  0  0  0
  -23.3752  -35.9612   23.3293 H   0  0  0  0  0  0
  -24.3574  -36.8911   22.2051 H   0  0  0  0  0  0
  -23.7242  -37.6491   23.6662 H   0  0  0  0  0  0
  -26.1205  -31.5388   20.6169 H   0  0  0  0  0  0
  -26.8502  -30.8138   22.0198 H   0  0  0  0  0  0
  -28.1205  -28.9320   21.2095 H   0  0  0  0  0  0
  -25.9370  -25.9295   18.9821 H   0  0  0  0  0  0
  -23.9714  -27.3242   18.9953 H   0  0  0  0  0  0
  -23.7709  -30.5938   19.4042 H   0  0  0  0  0  0
  -22.7632  -29.2509   19.8570 H   0  0  0  0  0  0
  -25.1291  -36.1917   25.0827 H   0  0  0  0  0  0
  -20.9975  -28.3279   24.1372 H   0  0  0  0  0  0
  -21.6653  -26.7443   22.1170 H   0  0  0  0  0  0
  -20.5737  -26.2326   23.3622 H   0  0  0  0  0  0
  -19.6895  -25.6262   21.1274 H   0  0  0  0  0  0
  -19.6653  -27.3155   20.6729 H   0  0  0  0  0  0
  -17.4172  -26.6589   21.4138 H   0  0  0  0  0  0
  -18.0418  -26.0069   22.9115 H   0  0  0  0  0  0
  -19.7953  -30.7257   24.2254 H   0  0  0  0  0  0
  -17.5018  -31.6273   24.5122 H   0  0  0  0  0  0
  -15.5355  -30.2973   23.7637 H   0  0  0  0  0  0
  -15.8688  -28.0790   22.7124 H   0  0  0  0  0  0
  -24.5854  -30.7139   25.7808 H   0  0  0  0  0  0
  -24.8931  -32.2960   26.4866 H   0  0  0  0  0  0
  -25.8004  -30.8957   27.0258 H   0  0  0  0  0  0
  -26.2974  -29.6728   24.1228 H   0  0  0  0  0  0
  -27.3975  -29.7259   25.4796 H   0  0  0  0  0  0
  -27.8866  -30.4258   23.9555 H   0  0  0  0  0  0
  -27.2630  -33.3617   26.2101 H   0  0  0  0  0  0
  -28.3843  -32.6913   25.0334 H   0  0  0  0  0  0
  -28.0720  -31.8447   26.5420 H   0  0  0  0  0  0
  -28.2600  -38.0095   24.7506 H   0  0  0  0  0  0
  -28.1072  -36.2629   24.6289 H   0  0  0  0  0  0
  -27.2293  -37.1448   25.8865 H   0  0  0  0  0  0
  -20.9402  -29.8833   21.6903 H   0  0  0  0  0  0
  -26.0165  -38.2847   24.1405 H   0  0  0  0  0  0
  -31.0462  -17.6760   18.9073 H   0  0  0  0  0  0
  -31.5820  -19.9583   18.1026 H   0  0  0  0  0  0
  -24.3282  -21.6724   25.0161 H   0  0  0  0  0  0
  -25.4272  -20.4013   25.5347 H   0  0  0  0  0  0
  -23.8098  -19.9962   24.9504 H   0  0  0  0  0  0
  -24.0655  -17.9833   23.8376 H   0  0  0  0  0  0
  -24.9172  -17.1473   22.5579 H   0  0  0  0  0  0
  -23.7994  -18.4506   22.1689 H   0  0  0  0  0  0
  -26.5143  -19.6158   19.6718 H   0  0  0  0  0  0
  -25.9056  -20.8894   20.7289 H   0  0  0  0  0  0
  -24.9328  -19.4652   20.4051 H   0  0  0  0  0  0
  -28.6741  -16.4360   19.7624 H   0  0  0  0  0  0
  -28.3532  -16.8259   21.4107 H   0  0  0  0  0  0
  -28.0238  -20.4341   22.5723 H   0  0  0  0  0  0
  -28.3975  -18.7715   22.7343 H   0  0  0  0  0  0
  -27.8358  -22.1703   21.3298 H   0  0  0  0  0  0
  -27.6836  -22.1800   19.6155 H   0  0  0  0  0  0
  -26.0187  -21.2871   23.2786 H   0  0  0  0  0  0
  -24.4396  -20.8798   22.6736 H   0  0  0  0  0  0
  -29.8078  -23.7400   19.5861 H   0  0  0  0  0  0
  -29.5877  -23.8957   21.3006 H   0  0  0  0  0  0
  -27.1432  -24.7185   20.7259 H   0  0  0  0  0  0
  -27.6681  -24.7243   19.0644 H   0  0  0  0  0  0
  -26.3489  -18.7833   23.8057 H   0  0  0  0  0  0
  -30.9439  -16.3429   21.5024 H   0  0  0  0  0  0
  -26.5939  -18.1485   21.4956 H   0  0  0  0  0  0
  1 25  1  0  0  0
  1 30  2  0  0  0
  1 87  1  0  0  0
  2  3  1  0  0  0
  2 25  1  0  0  0
  2 89  1  0  0  0
  2 90  1  0  0  0
  3  4  1  0  0  0
  3 91  1  0  0  0
  3 92  1  0  0  0
  4  5  1  0  0  0
  4 93  1  0  0  0
  4 94  1  0  0  0
  5  6  1  0  0  0
  5 26  1  0  0  0
  5 95  1  0  0  0
  6 25  1  0  0  0
  6 96  1  0  0  0
  6 97  1  0  0  0
  7  8  2  0  0  0
  7 26  1  0  0  0
  7 29  1  0  0  0
  8  9  1  0  0  0
  8 22  1  0  0  0
  9 10  1  0  0  0
  9 27  2  0  0  0
 10 11  2  0  0  0
 10 15  1  0  0  0
 11 12  1  0  0  0
 11 98  1  0  0  0
 12 13  2  0  0  0
 12 99  1  0  0  0
 13 14  1  0  0  0
 13 31  1  0  0  0
 14 15  2  0  0  0
 14100  1  0  0  0
 15101  1  0  0  0
 16 17  2  0  0  0
 16 21  1  0  0  0
 16 31  1  0  0  0
 17 18  1  0  0  0
 17102  1  0  0  0
 18 19  2  0  0  0
 18103  1  0  0  0
 19 20  1  0  0  0
 19 24  1  0  0  0
 20 21  2  0  0  0
 20104  1  0  0  0
 21 23  1  0  0  0
 22 28  1  0  0  0
 22 32  2  0  0  0
 26 27  1  0  0  0
 28105  1  0  0  0
 28106  1  0  0  0
 29107  1  0  0  0
 29108  1  0  0  0
 33 34  1  0  0  0
 33 66  1  0  0  0
 33 70  2  0  0  0
 34 36  1  0  0  0
 34 59  1  0  0  0
 34109  1  0  0  0
 35 44  2  0  0  0
 35 45  1  0  0  0
 35 68  1  0  0  0
 36 56  1  0  0  0
 36110  1  0  0  0
 37 39  1  0  0  0
 37 47  1  0  0  0
 37 66  1  0  0  0
 37111  1  0  0  0
 38 43  2  0  0  0
 38 46  1  0  0  0
 38 47  1  0  0  0
 39 64  1  0  0  0
 39 67  2  0  0  0
 40 52  1  0  0  0
 40 53  2  0  0  0
 40 58  1  0  0  0
 41112  1  0  0  0
 41113  1  0  0  0
 41114  1  0  0  0
 41 48  1  0  0  0
 42 43  1  0  0  0
 42 66  1  0  0  0
 42115  1  0  0  0
 42116  1  0  0  0
 43 44  1  0  0  0
 44117  1  0  0  0
 45 46  2  0  0  0
 45118  1  0  0  0
 46119  1  0  0  0
 47120  1  0  0  0
 47121  1  0  0  0
 48 56  1  0  0  0
 48 65  1  0  0  0
 48122  1  0  0  0
 49 50  1  0  0  0
 49 53  1  0  0  0
 49 64  1  0  0  0
 49123  1  0  0  0
 50 51  1  0  0  0
 50124  1  0  0  0
 50125  1  0  0  0
 51 52  1  0  0  0
 51126  1  0  0  0
 51127  1  0  0  0
 52128  1  0  0  0
 52129  1  0  0  0
 53 54  1  0  0  0
 54 55  2  0  0  0
 54130  1  0  0  0
 55 57  1  0  0  0
 55131  1  0  0  0
 56 69  2  0  0  0
 57 58  2  0  0  0
 57132  1  0  0  0
 58133  1  0  0  0
 59 60  1  0  0  0
 59 61  1  0  0  0
 59 62  1  0  0  0
 60134  1  0  0  0
 60135  1  0  0  0
 60136  1  0  0  0
 61137  1  0  0  0
 61138  1  0  0  0
 61139  1  0  0  0
 62140  1  0  0  0
 62141  1  0  0  0
 62142  1  0  0  0
 63 65  1  0  0  0
 63143  1  0  0  0
 63144  1  0  0  0
 63145  1  0  0  0
 64146  1  0  0  0
 65147  1  0  0  0
 68 84  1  0  0  0
 71 72  2  0  0  0
 71 73  1  0  0  0
 71148  1  0  0  0
 72 86  1  0  0  0
 72149  1  0  0  0
 73 74  2  0  0  0
 73 79  1  0  0  0
 74 75  1  0  0  0
 74 80  1  0  0  0
 75 81  1  0  0  0
 75 86  2  0  0  0
 76 82  1  0  0  0
 76150  1  0  0  0
 76151  1  0  0  0
 76152  1  0  0  0
 77153  1  0  0  0
 77154  1  0  0  0
 77155  1  0  0  0
 77 85  1  0  0  0
 78156  1  0  0  0
 78157  1  0  0  0
 78158  1  0  0  0
 78 88  1  0  0  0
 79 87  1  0  0  0
 79159  1  0  0  0
 79160  1  0  0  0
 80 88  1  0  0  0
 80161  1  0  0  0
 80162  1  0  0  0
 81 83  1  0  0  0
 81163  1  0  0  0
 81164  1  0  0  0
 82 85  1  0  0  0
 82165  1  0  0  0
 82166  1  0  0  0
 83 84  1  0  0  0
 83167  1  0  0  0
 83168  1  0  0  0
 84169  1  0  0  0
 84170  1  0  0  0
 85 88  1  0  0  0
 85171  1  0  0  0
 87172  1  0  0  0
 88173  1  0  0  0
M  CHG  1  88   1
M  ISO  4   1 100  68 101  84 101  87 100
M  END
> <chiral flag>
0

> <version>
0

> <s_m_source_file>
/data/baiqing/PycharmProjects/Reinvent-master-3.2/result/LINK_invent/BTK/process_docking_weight1_custom_sum_contain_oxygen_bond_distance_aromatic_linkinvent_7_9_3/rearranged_h_0097.sdf

> <i_m_source_file_index>
51

> <r_mmod_Potential_Energy-OPLS-2005>
-120.089202880859

> <r_mmod_Stretch_Energy-OPLS-2005>
119.150764465332

> <r_mmod_Bend_Energy-OPLS-2005>
197.659652709961

> <r_mmod_Torsional_Energy-OPLS-2005>
278.327178955078

> <r_mmod_Improper_Torsional_Energy-OPLS-2005>
10.347373008728

> <r_mmod_Van_der_Waal_Energy-OPLS-2005>
134.218978881836

> <r_mmod_Electrostatic_Energy-OPLS-2005>
-468.069671630859

> <r_mmod_Solvation_Energy-OPLS-2005>
-466.995635986328

> <b_mmod_Minimization_Converged-OPLS-2005>
0

> <r_mmod_RMS_Derivative-OPLS-2005>
2.55133152008057

$$$$
51
                    3D
 Structure written by MMmdl.
192200  0  0  1  0            999 V2000
  -30.8715  -14.2278   20.7926 C   0  0  0  0  0  0
  -30.4166  -12.2933   19.3455 C   0  0  0  0  0  0
  -29.4643  -12.5641   18.1727 C   0  0  0  0  0  0
  -28.0029  -12.3887   18.6138 C   0  0  0  0  0  0
  -27.6742  -13.2063   19.8878 C   0  0  2  0  0  0
  -28.7207  -12.9543   20.9991 C   0  0  0  0  0  0
  -25.2634  -13.8155   20.5703 C   0  0  0  0  0  0
  -24.1876  -13.0437   20.9170 C   0  0  0  0  0  0
  -24.6430  -11.6899   20.8734 C   0  0  0  0  0  0
  -23.9093  -10.4283   21.0403 C   0  0  0  0  0  0
  -24.3634   -9.4193   21.9190 C   0  0  0  0  0  0
  -23.6300   -8.2235   22.0760 C   0  0  0  0  0  0
  -22.4283   -8.0281   21.3550 C   0  0  0  0  0  0
  -21.9930   -9.0256   20.4646 C   0  0  0  0  0  0
  -22.7265  -10.2130   20.3049 C   0  0  0  0  0  0
  -21.6861   -6.0735   22.5276 C   0  0  0  0  0  0
  -21.4017   -6.5638   23.8213 C   0  0  0  0  0  0
  -21.3659   -5.6788   24.9169 C   0  0  0  0  0  0
  -21.6046   -4.3051   24.7220 C   0  0  0  0  0  0
  -21.8824   -3.8145   23.4341 C   0  0  0  0  0  0
  -21.9197   -4.6957   22.3400 C   0  0  0  0  0  0
  -22.7887  -13.5231   21.1842 C   0  0  0  0  0  0
  -22.1661   -4.2145   21.0975 F   0  0  0  0  0  0
  -21.5635   -3.4537   25.7733 F   0  0  0  0  0  0
  -30.0751  -13.1852   20.4604 N   0  0  0  0  0  0
  -26.3111  -12.9350   20.3470 N   0  0  0  0  0  0
  -25.9375  -11.6503   20.5813 N   0  0  0  0  0  0
  -22.0539  -12.8202   22.0382 N   0  0  0  0  0  0
  -25.4356  -15.1874   20.4079 N   0  0  0  0  0  0
  -31.7072  -14.7310   20.0328 O   0  0  0  0  0  0
  -21.6654   -6.8873   21.4241 O   0  0  0  0  0  0
  -22.3556  -14.5545   20.6700 O   0  0  0  0  0  0
  -24.6101  -31.8652   23.2162 C   0  0  0  0  0  0
  -25.9014  -32.4804   23.8432 C   0  0  1  0  0  0
  -27.2450  -27.4922   20.0497 C   0  0  0  0  0  0
  -25.5898  -33.8600   24.2360 N   0  0  0  0  0  0
  -23.3930  -30.4882   21.5591 C   0  0  2  0  0  0
  -24.8384  -28.9589   20.1207 C   0  0  0  0  0  0
  -22.7359  -29.4638   22.5090 C   0  0  0  0  0  0
  -18.0250  -28.1354   22.8546 C   0  0  0  0  0  0
  -24.1486  -36.7339   23.2644 C   0  0  0  0  0  0
  -25.9159  -30.8444   21.3616 C   0  0  0  0  0  0
  -25.9956  -29.4801   20.7149 C   0  0  0  0  0  0
  -27.2001  -28.7456   20.6917 C   0  0  0  0  0  0
  -26.0634  -26.9576   19.4920 C   0  0  0  0  0  0
  -24.8634  -27.6900   19.5161 C   0  0  0  0  0  0
  -23.5921  -29.8133   20.1756 C   0  0  0  0  0  0
  -25.4105  -36.3107   24.0341 C   0  0  1  0  0  0
  -20.5821  -28.3643   23.1379 C   0  0  2  0  0  0
  -20.6751  -26.9386   22.5450 C   0  0  0  0  0  0
  -19.5729  -26.6378   21.5242 C   0  0  0  0  0  0
  -18.1897  -26.7924   22.1631 C   0  0  0  0  0  0
  -19.1490  -28.8828   23.2944 C   0  0  0  0  0  0
  -18.9419  -30.1439   23.8954 C   0  0  0  0  0  0
  -17.6411  -30.6575   24.0593 C   0  0  0  0  0  0
  -25.9011  -34.9462   23.5142 C   0  0  0  0  0  0
  -16.5309  -29.9082   23.6333 C   0  0  0  0  0  0
  -16.7234  -28.6475   23.0415 C   0  0  0  0  0  0
  -26.4462  -31.6595   25.0761 C   0  0  0  0  0  0
  -25.3758  -31.3663   26.1541 C   0  0  0  0  0  0
  -27.0312  -30.3065   24.6084 C   0  0  0  0  0  0
  -27.6010  -32.4338   25.7536 C   0  0  0  0  0  0
  -27.5572  -37.1809   24.8457 C   0  0  0  0  0  0
  -21.4086  -29.3022   22.3825 N   0  0  0  0  0  0
  -26.4293  -37.3784   23.9392 N   0  0  0  0  0  0
  -24.6581  -31.0799   22.1047 N   0  0  0  0  0  0
  -23.4156  -28.8177   23.3104 O   0  0  0  0  0  0
  -28.4335  -26.8118   19.9654 O   0  0  0  0  0  0
  -26.5541  -34.8897   22.4686 O   0  0  0  0  0  0
  -23.5303  -32.1396   23.7588 O   0  0  0  0  0  0
  -29.6026  -22.5135   20.5490 C   0  0  0  0  0  0
  -27.8717  -24.0414   21.2818 C   0  0  0  0  0  0
  -28.6666  -23.5145   20.2523 C   0  0  0  0  0  0
  -29.7176  -21.9828   21.8538 C   0  0  0  0  0  0
  -28.0010  -23.5872   22.6114 C   0  0  0  0  0  0
  -28.9103  -22.5230   22.9003 C   0  0  0  0  0  0
  -30.0161  -22.7664   25.1798 C   0  0  0  0  0  0
  -25.3054  -22.4580   23.6388 C   0  0  0  0  0  0
  -27.3459  -25.8020   23.6992 C   0  0  0  0  0  0
  -31.7316  -13.6184   22.9761 C   0  0  0  0  0  0
  -33.1926  -18.6751   20.1715 C   0  0  0  0  0  0
  -28.5370  -24.0172   18.8259 C   0  0  0  0  0  0
  -30.6664  -20.8061   22.1179 C   0  0  0  0  0  0
  -29.0284  -21.9657   24.3229 C   0  0  0  0  0  0
  -25.6337  -23.9518   23.5248 C   0  0  0  0  0  0
  -29.5099  -25.1665   18.5138 C   0  0  0  0  0  0
  -31.6117  -16.8737   22.4581 C   0  0  0  0  0  0
  -30.5599  -15.7701   22.7103 C   0  0  0  0  0  0
  -31.4342  -20.2449   20.8909 C   0  0  0  0  0  0
  -31.2025  -17.8184   21.3159 C   0  0  0  0  0  0
  -28.8730  -26.5569   18.6300 C   0  0  0  0  0  0
  -27.1341  -24.2771   23.6807 C   0  0  1  0  0  0
  -30.9034  -14.4728   22.1193 N   0  0  0  0  0  0
  -32.1365  -18.9662   21.1717 N   0  3  1  0  0  0
  -31.4510  -12.4198   19.0202 H   0  0  0  0  0  0
  -30.3353  -11.2546   19.6722 H   0  0  0  0  0  0
  -29.6863  -11.8915   17.3443 H   0  0  0  0  0  0
  -29.6195  -13.5773   17.7950 H   0  0  0  0  0  0
  -27.8296  -11.3278   18.7966 H   0  0  0  0  0  0
  -27.3298  -12.6708   17.8043 H   0  0  0  0  0  0
  -27.7334  -14.2605   19.6186 H   0  0  0  0  0  0
  -28.6550  -11.9282   21.3649 H   0  0  0  0  0  0
  -28.5008  -13.5945   21.8543 H   0  0  0  0  0  0
  -25.2788   -9.5661   22.4756 H   0  0  0  0  0  0
  -24.0009   -7.4628   22.7475 H   0  0  0  0  0  0
  -21.0873   -8.8784   19.8941 H   0  0  0  0  0  0
  -22.3754  -10.9671   19.6140 H   0  0  0  0  0  0
  -21.2014   -7.6152   23.9711 H   0  0  0  0  0  0
  -21.1477   -6.0522   25.9073 H   0  0  0  0  0  0
  -22.0607   -2.7605   23.2851 H   0  0  0  0  0  0
  -22.4163  -11.9838   22.4717 H   0  0  0  0  0  0
  -21.1153  -13.1205   22.2615 H   0  0  0  0  0  0
  -24.6711  -15.8466   20.5111 H   0  0  0  0  0  0
  -26.2977  -15.6256   20.1085 H   0  0  0  0  0  0
  -26.7087  -32.5493   23.1193 H   0  0  0  0  0  0
  -25.0136  -33.9747   25.0574 H   0  0  0  0  0  0
  -22.6824  -31.3047   21.4202 H   0  0  0  0  0  0
  -23.3714  -35.9695   23.3293 H   0  0  0  0  0  0
  -24.3604  -36.8975   22.2062 H   0  0  0  0  0  0
  -23.7244  -37.6557   23.6657 H   0  0  0  0  0  0
  -26.0120  -31.6104   20.5914 H   0  0  0  0  0  0
  -26.8111  -30.9006   21.9684 H   0  0  0  0  0  0
  -28.1006  -29.1525   21.1311 H   0  0  0  0  0  0
  -26.0675  -25.9840   19.0262 H   0  0  0  0  0  0
  -23.9743  -27.2722   19.0672 H   0  0  0  0  0  0
  -23.6729  -30.5803   19.4036 H   0  0  0  0  0  0
  -22.7211  -29.2145   19.9021 H   0  0  0  0  0  0
  -25.1273  -36.1993   25.0833 H   0  0  0  0  0  0
  -20.9880  -28.3175   24.1518 H   0  0  0  0  0  0
  -20.5685  -26.2228   23.3627 H   0  0  0  0  0  0
  -21.6618  -26.7466   22.1208 H   0  0  0  0  0  0
  -19.6884  -25.6297   21.1261 H   0  0  0  0  0  0
  -19.6674  -27.3204   20.6791 H   0  0  0  0  0  0
  -17.4184  -26.6749   21.4016 H   0  0  0  0  0  0
  -18.0246  -26.0022   22.8973 H   0  0  0  0  0  0
  -19.7878  -30.7245   24.2363 H   0  0  0  0  0  0
  -17.4960  -31.6275   24.5169 H   0  0  0  0  0  0
  -15.5318  -30.3013   23.7622 H   0  0  0  0  0  0
  -15.8620  -28.0769   22.7202 H   0  0  0  0  0  0
  -24.5960  -30.6952   25.7937 H   0  0  0  0  0  0
  -24.8908  -32.2789   26.5009 H   0  0  0  0  0  0
  -25.8160  -30.8873   27.0294 H   0  0  0  0  0  0
  -26.2842  -29.6808   24.1183 H   0  0  0  0  0  0
  -27.4205  -29.7303   25.4488 H   0  0  0  0  0  0
  -27.8603  -30.4478   23.9145 H   0  0  0  0  0  0
  -27.2621  -33.3657   26.2077 H   0  0  0  0  0  0
  -28.3842  -32.6876   25.0383 H   0  0  0  0  0  0
  -28.0639  -31.8487   26.5497 H   0  0  0  0  0  0
  -28.2567  -38.0129   24.7520 H   0  0  0  0  0  0
  -28.1088  -36.2656   24.6252 H   0  0  0  0  0  0
  -27.2287  -37.1420   25.8860 H   0  0  0  0  0  0
  -20.9245  -29.8755   21.7065 H   0  0  0  0  0  0
  -26.0186  -38.2863   24.1388 H   0  0  0  0  0  0
  -30.2120  -22.1566   19.7338 H   0  0  0  0  0  0
  -27.1642  -24.8242   21.0524 H   0  0  0  0  0  0
  -30.0514  -22.3752   26.1967 H   0  0  0  0  0  0
  -29.7356  -23.8164   25.2356 H   0  0  0  0  0  0
  -31.0240  -22.7130   24.7689 H   0  0  0  0  0  0
  -24.2323  -22.2894   23.5447 H   0  0  0  0  0  0
  -25.6194  -22.0596   24.6040 H   0  0  0  0  0  0
  -25.8003  -21.8817   22.8565 H   0  0  0  0  0  0
  -28.3962  -26.0524   23.8431 H   0  0  0  0  0  0
  -26.7847  -26.2619   24.5134 H   0  0  0  0  0  0
  -27.0139  -26.2771   22.7770 H   0  0  0  0  0  0
  -31.0999  -12.9248   23.5307 H   0  0  0  0  0  0
  -32.3061  -14.1993   23.6993 H   0  0  0  0  0  0
  -32.4460  -13.0279   22.3986 H   0  0  0  0  0  0
  -33.9670  -19.4426   20.1752 H   0  0  0  0  0  0
  -32.7772  -18.6184   19.1630 H   0  0  0  0  0  0
  -33.6740  -17.7201   20.3839 H   0  0  0  0  0  0
  -27.5078  -24.3076   18.6158 H   0  0  0  0  0  0
  -28.7358  -23.1819   18.1542 H   0  0  0  0  0  0
  -30.0596  -20.0155   22.5521 H   0  0  0  0  0  0
  -31.3830  -21.1021   22.8844 H   0  0  0  0  0  0
  -29.3332  -20.9218   24.3288 H   0  0  0  0  0  0
  -28.0472  -21.9303   24.7922 H   0  0  0  0  0  0
  -25.0686  -24.4885   24.2883 H   0  0  0  0  0  0
  -25.2694  -24.3278   22.5682 H   0  0  0  0  0  0
  -29.8468  -25.0488   17.4826 H   0  0  0  0  0  0
  -30.4079  -25.0988   19.1274 H   0  0  0  0  0  0
  -32.5951  -16.4392   22.2691 H   0  0  0  0  0  0
  -31.7221  -17.4573   23.3743 H   0  0  0  0  0  0
  -29.5747  -16.0796   22.3569 H   0  0  0  0  0  0
  -30.4373  -15.6348   23.7872 H   0  0  0  0  0  0
  -32.1607  -20.9921   20.5663 H   0  0  0  0  0  0
  -30.7607  -20.0679   20.0513 H   0  0  0  0  0  0
  -30.1882  -18.1644   21.5112 H   0  0  0  0  0  0
  -31.1267  -17.2759   20.3734 H   0  0  0  0  0  0
  -28.0792  -26.6427   17.8850 H   0  0  0  0  0  0
  -29.6074  -27.3185   18.3660 H   0  0  0  0  0  0
  -27.4315  -23.9482   24.6728 H   0  0  0  0  0  0
  -32.6094  -19.0916   22.0548 H   0  0  0  0  0  0
  1 25  1  0  0  0
  1 30  2  0  0  0
  1 93  1  0  0  0
  2  3  1  0  0  0
  2 25  1  0  0  0
  2 95  1  0  0  0
  2 96  1  0  0  0
  3  4  1  0  0  0
  3 97  1  0  0  0
  3 98  1  0  0  0
  4  5  1  0  0  0
  4 99  1  0  0  0
  4100  1  0  0  0
  5  6  1  0  0  0
  5 26  1  0  0  0
  5101  1  0  0  0
  6 25  1  0  0  0
  6102  1  0  0  0
  6103  1  0  0  0
  7  8  2  0  0  0
  7 26  1  0  0  0
  7 29  1  0  0  0
  8  9  1  0  0  0
  8 22  1  0  0  0
  9 10  1  0  0  0
  9 27  2  0  0  0
 10 11  2  0  0  0
 10 15  1  0  0  0
 11 12  1  0  0  0
 11104  1  0  0  0
 12 13  2  0  0  0
 12105  1  0  0  0
 13 14  1  0  0  0
 13 31  1  0  0  0
 14 15  2  0  0  0
 14106  1  0  0  0
 15107  1  0  0  0
 16 17  2  0  0  0
 16 21  1  0  0  0
 16 31  1  0  0  0
 17 18  1  0  0  0
 17108  1  0  0  0
 18 19  2  0  0  0
 18109  1  0  0  0
 19 20  1  0  0  0
 19 24  1  0  0  0
 20 21  2  0  0  0
 20110  1  0  0  0
 21 23  1  0  0  0
 22 28  1  0  0  0
 22 32  2  0  0  0
 26 27  1  0  0  0
 28111  1  0  0  0
 28112  1  0  0  0
 29113  1  0  0  0
 29114  1  0  0  0
 33 34  1  0  0  0
 33 66  1  0  0  0
 33 70  2  0  0  0
 34 36  1  0  0  0
 34 59  1  0  0  0
 34115  1  0  0  0
 35 44  2  0  0  0
 35 45  1  0  0  0
 35 68  1  0  0  0
 36 56  1  0  0  0
 36116  1  0  0  0
 37 39  1  0  0  0
 37 47  1  0  0  0
 37 66  1  0  0  0
 37117  1  0  0  0
 38 43  2  0  0  0
 38 46  1  0  0  0
 38 47  1  0  0  0
 39 64  1  0  0  0
 39 67  2  0  0  0
 40 52  1  0  0  0
 40 53  2  0  0  0
 40 58  1  0  0  0
 41118  1  0  0  0
 41119  1  0  0  0
 41120  1  0  0  0
 41 48  1  0  0  0
 42 43  1  0  0  0
 42 66  1  0  0  0
 42121  1  0  0  0
 42122  1  0  0  0
 43 44  1  0  0  0
 44123  1  0  0  0
 45 46  2  0  0  0
 45124  1  0  0  0
 46125  1  0  0  0
 47126  1  0  0  0
 47127  1  0  0  0
 48 56  1  0  0  0
 48 65  1  0  0  0
 48128  1  0  0  0
 49 50  1  0  0  0
 49 53  1  0  0  0
 49 64  1  0  0  0
 49129  1  0  0  0
 50 51  1  0  0  0
 50130  1  0  0  0
 50131  1  0  0  0
 51 52  1  0  0  0
 51132  1  0  0  0
 51133  1  0  0  0
 52134  1  0  0  0
 52135  1  0  0  0
 53 54  1  0  0  0
 54 55  2  0  0  0
 54136  1  0  0  0
 55 57  1  0  0  0
 55137  1  0  0  0
 56 69  2  0  0  0
 57 58  2  0  0  0
 57138  1  0  0  0
 58139  1  0  0  0
 59 60  1  0  0  0
 59 61  1  0  0  0
 59 62  1  0  0  0
 60140  1  0  0  0
 60141  1  0  0  0
 60142  1  0  0  0
 61143  1  0  0  0
 61144  1  0  0  0
 61145  1  0  0  0
 62146  1  0  0  0
 62147  1  0  0  0
 62148  1  0  0  0
 63 65  1  0  0  0
 63149  1  0  0  0
 63150  1  0  0  0
 63151  1  0  0  0
 64152  1  0  0  0
 65153  1  0  0  0
 68 91  1  0  0  0
 71 73  2  0  0  0
 71 74  1  0  0  0
 71154  1  0  0  0
 72 73  1  0  0  0
 72 75  2  0  0  0
 72155  1  0  0  0
 73 82  1  0  0  0
 74 76  2  0  0  0
 74 83  1  0  0  0
 75 76  1  0  0  0
 75 92  1  0  0  0
 76 84  1  0  0  0
 77 84  1  0  0  0
 77156  1  0  0  0
 77157  1  0  0  0
 77158  1  0  0  0
 78 85  1  0  0  0
 78159  1  0  0  0
 78160  1  0  0  0
 78161  1  0  0  0
 79162  1  0  0  0
 79163  1  0  0  0
 79164  1  0  0  0
 79 92  1  0  0  0
 80 93  1  0  0  0
 80165  1  0  0  0
 80166  1  0  0  0
 80167  1  0  0  0
 81168  1  0  0  0
 81169  1  0  0  0
 81170  1  0  0  0
 81 94  1  0  0  0
 82 86  1  0  0  0
 82171  1  0  0  0
 82172  1  0  0  0
 83 89  1  0  0  0
 83173  1  0  0  0
 83174  1  0  0  0
 84175  1  0  0  0
 84176  1  0  0  0
 85 92  1  0  0  0
 85177  1  0  0  0
 85178  1  0  0  0
 86 91  1  0  0  0
 86179  1  0  0  0
 86180  1  0  0  0
 87 88  1  0  0  0
 87 90  1  0  0  0
 87181  1  0  0  0
 87182  1  0  0  0
 88 93  1  0  0  0
 88183  1  0  0  0
 88184  1  0  0  0
 89 94  1  0  0  0
 89185  1  0  0  0
 89186  1  0  0  0
 90 94  1  0  0  0
 90187  1  0  0  0
 90188  1  0  0  0
 91189  1  0  0  0
 91190  1  0  0  0
 92191  1  0  0  0
 94192  1  0  0  0
M  CHG  1  94   1
M  ISO  4   1 100  68 101  91 101  93 100
M  END
> <chiral flag>
0

> <version>
0

> <s_m_source_file>
/data/baiqing/PycharmProjects/Reinvent-master-3.2/result/LINK_invent/BTK/process_docking_weight1_custom_sum_contain_oxygen_bond_distance_aromatic_linkinvent_7_9_3/rearranged_h_0097.sdf

> <i_m_source_file_index>
52

> <r_mmod_Potential_Energy-OPLS-2005>
45.8170013427734

> <r_mmod_Stretch_Energy-OPLS-2005>
38.4908485412598

> <r_mmod_Bend_Energy-OPLS-2005>
95.4755325317383

> <r_mmod_Torsional_Energy-OPLS-2005>
355.247680664062

> <r_mmod_Improper_Torsional_Energy-OPLS-2005>
7.98177671432495

> <r_mmod_Van_der_Waal_Energy-OPLS-2005>
147.903396606445

> <r_mmod_Electrostatic_Energy-OPLS-2005>
-221.814056396484

> <r_mmod_Solvation_Energy-OPLS-2005>
-390.508209228516

> <b_mmod_Minimization_Converged-OPLS-2005>
0

> <r_mmod_RMS_Derivative-OPLS-2005>
2.92046928405762

$$$$
52
                    3D
 Structure written by MMmdl.
159167  0  0  1  0            999 V2000
  -30.6953  -14.4898   20.5798 C   0  0  0  0  0  0
  -30.4299  -12.3243   19.4183 C   0  0  0  0  0  0
  -29.4948  -12.5060   18.2044 C   0  0  0  0  0  0
  -28.0171  -12.3628   18.6198 C   0  0  0  0  0  0
  -27.6623  -13.2057   19.8737 C   0  0  2  0  0  0
  -28.7058  -12.9902   20.9931 C   0  0  0  0  0  0
  -25.2595  -13.8158   20.5670 C   0  0  0  0  0  0
  -24.1844  -13.0439   20.9178 C   0  0  0  0  0  0
  -24.6394  -11.6907   20.8732 C   0  0  0  0  0  0
  -23.9060  -10.4294   21.0402 C   0  0  0  0  0  0
  -24.3612   -9.4212   21.9183 C   0  0  0  0  0  0
  -23.6288   -8.2243   22.0752 C   0  0  0  0  0  0
  -22.4271   -8.0278   21.3540 C   0  0  0  0  0  0
  -21.9908   -9.0252   20.4643 C   0  0  0  0  0  0
  -22.7232  -10.2135   20.3051 C   0  0  0  0  0  0
  -21.6856   -6.0735   22.5277 C   0  0  0  0  0  0
  -21.4012   -6.5640   23.8211 C   0  0  0  0  0  0
  -21.3661   -5.6792   24.9175 C   0  0  0  0  0  0
  -21.6040   -4.3051   24.7227 C   0  0  0  0  0  0
  -21.8823   -3.8147   23.4347 C   0  0  0  0  0  0
  -21.9194   -4.6962   22.3401 C   0  0  0  0  0  0
  -22.7869  -13.5239   21.1842 C   0  0  0  0  0  0
  -22.1663   -4.2145   21.0978 F   0  0  0  0  0  0
  -21.5632   -3.4537   25.7745 F   0  0  0  0  0  0
  -30.0349  -13.3065   20.4406 N   0  0  0  0  0  0
  -26.3030  -12.9322   20.3362 N   0  0  0  0  0  0
  -25.9319  -11.6486   20.5764 N   0  0  0  0  0  0
  -22.0510  -12.8225   22.0397 N   0  0  0  0  0  0
  -25.4331  -15.1870   20.4071 N   0  0  0  0  0  0
  -31.8143  -14.6938   20.1019 O   0  0  0  0  0  0
  -21.6638   -6.8874   21.4235 O   0  0  0  0  0  0
  -22.3552  -14.5546   20.6696 O   0  0  0  0  0  0
  -24.6191  -31.8670   23.2116 C   0  0  0  0  0  0
  -25.9068  -32.4824   23.8407 C   0  0  1  0  0  0
  -27.2193  -27.3938   20.0900 C   0  0  0  0  0  0
  -25.5902  -33.8620   24.2332 N   0  0  0  0  0  0
  -23.4083  -30.4955   21.5540 C   0  0  2  0  0  0
  -24.8510  -28.9710   20.1091 C   0  0  0  0  0  0
  -22.7440  -29.4659   22.4978 C   0  0  0  0  0  0
  -18.0278  -28.1372   22.8489 C   0  0  0  0  0  0
  -24.1491  -36.7316   23.2637 C   0  0  0  0  0  0
  -25.9452  -30.8189   21.3755 C   0  0  0  0  0  0
  -26.0183  -29.4554   20.7130 C   0  0  0  0  0  0
  -27.2061  -28.6757   20.7009 C   0  0  0  0  0  0
  -26.0306  -26.9606   19.4488 C   0  0  0  0  0  0
  -24.8545  -27.7241   19.4718 C   0  0  0  0  0  0
  -23.6171  -29.8417   20.1653 C   0  0  0  0  0  0
  -25.4110  -36.3110   24.0334 C   0  0  1  0  0  0
  -20.5873  -28.3677   23.1293 C   0  0  2  0  0  0
  -20.6776  -26.9408   22.5406 C   0  0  0  0  0  0
  -19.5752  -26.6382   21.5209 C   0  0  0  0  0  0
  -18.1931  -26.7918   22.1620 C   0  0  0  0  0  0
  -19.1527  -28.8840   23.2886 C   0  0  0  0  0  0
  -18.9456  -30.1443   23.8904 C   0  0  0  0  0  0
  -17.6459  -30.6582   24.0563 C   0  0  0  0  0  0
  -25.9033  -34.9476   23.5129 C   0  0  0  0  0  0
  -16.5352  -29.9078   23.6329 C   0  0  0  0  0  0
  -16.7266  -28.6493   23.0351 C   0  0  0  0  0  0
  -26.4476  -31.6606   25.0748 C   0  0  0  0  0  0
  -25.3726  -31.3718   26.1486 C   0  0  0  0  0  0
  -27.0311  -30.3036   24.6155 C   0  0  0  0  0  0
  -27.6046  -32.4332   25.7512 C   0  0  0  0  0  0
  -27.5585  -37.1811   24.8462 C   0  0  0  0  0  0
  -21.4161  -29.3044   22.3707 N   0  0  0  0  0  0
  -26.4303  -37.3790   23.9401 N   0  0  0  0  0  0
  -24.6762  -31.0743   22.1046 N   0  0  0  0  0  0
  -23.4200  -28.8191   23.3024 O   0  0  0  0  0  0
  -28.3452  -26.5717   20.1476 O   0  0  0  0  0  0
  -26.5601  -34.8933   22.4695 O   0  0  0  0  0  0
  -23.5366  -32.1443   23.7477 O   0  0  0  0  0  0
  -30.5322  -21.1823   21.1678 C   0  0  0  0  0  0
  -28.7747  -20.1977   20.3327 C   0  0  0  0  0  0
  -29.1895  -21.4374   20.7577 C   0  0  0  0  0  0
  -26.5676  -21.6233   22.3625 C   0  0  0  0  0  0
  -27.5836  -22.7607   22.1694 C   0  0  0  0  0  0
  -29.0706  -24.0828   20.5500 C   0  0  0  0  0  0
  -29.7817  -17.8359   20.2326 C   0  0  0  0  0  0
  -30.3749  -16.9006   21.3279 C   0  0  0  0  0  0
  -28.0731  -25.1495   19.9964 C   0  0  0  0  0  0
  -28.3451  -22.7156   20.8212 C   0  0  1  0  0  0
  -30.8870  -19.9023   21.0289 N   0  0  0  0  0  0
  -29.7868  -19.2772   20.5450 N   0  0  0  0  0  0
  -29.9917  -15.4800   21.1626 N   0  0  0  0  0  0
  -31.4712  -12.4383   19.1111 H   0  0  0  0  0  0
  -30.3475  -11.3128   19.8194 H   0  0  0  0  0  0
  -29.7362  -11.7743   17.4320 H   0  0  0  0  0  0
  -29.6571  -13.4875   17.7565 H   0  0  0  0  0  0
  -27.8310  -11.3069   18.8199 H   0  0  0  0  0  0
  -27.3644  -12.6325   17.7887 H   0  0  0  0  0  0
  -27.7055  -14.2528   19.5734 H   0  0  0  0  0  0
  -28.6886  -11.9530   21.3308 H   0  0  0  0  0  0
  -28.4619  -13.5850   21.8742 H   0  0  0  0  0  0
  -25.2762   -9.5690   22.4752 H   0  0  0  0  0  0
  -24.0005   -7.4636   22.7470 H   0  0  0  0  0  0
  -21.0843   -8.8767   19.8945 H   0  0  0  0  0  0
  -22.3692  -10.9671   19.6156 H   0  0  0  0  0  0
  -21.2000   -7.6150   23.9712 H   0  0  0  0  0  0
  -21.1478   -6.0524   25.9077 H   0  0  0  0  0  0
  -22.0601   -2.7607   23.2851 H   0  0  0  0  0  0
  -22.4131  -11.9890   22.4789 H   0  0  0  0  0  0
  -21.1123  -13.1238   22.2595 H   0  0  0  0  0  0
  -24.6682  -15.8451   20.5085 H   0  0  0  0  0  0
  -26.2863  -15.6210   20.0783 H   0  0  0  0  0  0
  -26.7140  -32.5536   23.1169 H   0  0  0  0  0  0
  -25.0048  -33.9776   25.0474 H   0  0  0  0  0  0
  -22.6987  -31.3146   21.4213 H   0  0  0  0  0  0
  -23.3748  -35.9654   23.3311 H   0  0  0  0  0  0
  -24.3581  -36.8923   22.2048 H   0  0  0  0  0  0
  -23.7256  -37.6528   23.6650 H   0  0  0  0  0  0
  -26.0675  -31.5904   20.6134 H   0  0  0  0  0  0
  -26.8288  -30.8630   22.0003 H   0  0  0  0  0  0
  -28.1013  -29.0393   21.1877 H   0  0  0  0  0  0
  -25.9726  -26.0182   18.9260 H   0  0  0  0  0  0
  -23.9618  -27.3495   18.9890 H   0  0  0  0  0  0
  -23.7292  -30.6238   19.4132 H   0  0  0  0  0  0
  -22.7391  -29.2665   19.8655 H   0  0  0  0  0  0
  -25.1291  -36.1977   25.0825 H   0  0  0  0  0  0
  -20.9954  -28.3245   24.1412 H   0  0  0  0  0  0
  -20.5691  -26.2285   23.3600 H   0  0  0  0  0  0
  -21.6646  -26.7457   22.1197 H   0  0  0  0  0  0
  -19.6917  -25.6293   21.1231 H   0  0  0  0  0  0
  -19.6684  -27.3201   20.6746 H   0  0  0  0  0  0
  -17.4205  -26.6666   21.4022 H   0  0  0  0  0  0
  -18.0326  -26.0057   22.9010 H   0  0  0  0  0  0
  -19.7938  -30.7242   24.2280 H   0  0  0  0  0  0
  -17.5024  -31.6267   24.5157 H   0  0  0  0  0  0
  -15.5350  -30.2983   23.7658 H   0  0  0  0  0  0
  -15.8666  -28.0818   22.7055 H   0  0  0  0  0  0
  -24.5904  -30.7069   25.7810 H   0  0  0  0  0  0
  -24.8918  -32.2879   26.4928 H   0  0  0  0  0  0
  -25.8058  -30.8889   27.0254 H   0  0  0  0  0  0
  -26.2874  -29.6797   24.1187 H   0  0  0  0  0  0
  -27.4035  -29.7275   25.4635 H   0  0  0  0  0  0
  -27.8736  -30.4336   23.9357 H   0  0  0  0  0  0
  -27.2653  -33.3631   26.2094 H   0  0  0  0  0  0
  -28.3838  -32.6887   25.0319 H   0  0  0  0  0  0
  -28.0722  -31.8455   26.5420 H   0  0  0  0  0  0
  -28.2602  -38.0112   24.7506 H   0  0  0  0  0  0
  -28.1082  -36.2637   24.6295 H   0  0  0  0  0  0
  -27.2293  -37.1468   25.8865 H   0  0  0  0  0  0
  -20.9323  -29.8784   21.6943 H   0  0  0  0  0  0
  -26.0194  -38.2870   24.1400 H   0  0  0  0  0  0
  -31.2475  -21.8798   21.5808 H   0  0  0  0  0  0
  -27.8195  -19.8869   19.9326 H   0  0  0  0  0  0
  -25.9718  -21.7896   23.2601 H   0  0  0  0  0  0
  -27.0557  -20.6550   22.4743 H   0  0  0  0  0  0
  -25.8795  -21.5584   21.5193 H   0  0  0  0  0  0
  -28.2970  -22.7504   22.9946 H   0  0  0  0  0  0
  -27.0419  -23.7003   22.2667 H   0  0  0  0  0  0
  -29.5532  -24.4345   21.4618 H   0  0  0  0  0  0
  -29.8654  -23.9502   19.8150 H   0  0  0  0  0  0
  -28.7463  -17.5500   20.0433 H   0  0  0  0  0  0
  -30.3115  -17.6899   19.2907 H   0  0  0  0  0  0
  -30.0098  -17.2204   22.3047 H   0  0  0  0  0  0
  -31.4610  -17.0059   21.3637 H   0  0  0  0  0  0
  -27.1242  -24.9440   20.4902 H   0  0  0  0  0  0
  -27.9153  -24.9383   18.9378 H   0  0  0  0  0  0
  -27.5908  -22.6310   20.0367 H   0  0  0  0  0  0
  -29.0824  -15.2167   21.5141 H   0  0  0  0  0  0
  1 25  1  0  0  0
  1 30  2  0  0  0
  1 83  1  0  0  0
  2  3  1  0  0  0
  2 25  1  0  0  0
  2 84  1  0  0  0
  2 85  1  0  0  0
  3  4  1  0  0  0
  3 86  1  0  0  0
  3 87  1  0  0  0
  4  5  1  0  0  0
  4 88  1  0  0  0
  4 89  1  0  0  0
  5  6  1  0  0  0
  5 26  1  0  0  0
  5 90  1  0  0  0
  6 25  1  0  0  0
  6 91  1  0  0  0
  6 92  1  0  0  0
  7  8  2  0  0  0
  7 26  1  0  0  0
  7 29  1  0  0  0
  8  9  1  0  0  0
  8 22  1  0  0  0
  9 10  1  0  0  0
  9 27  2  0  0  0
 10 11  2  0  0  0
 10 15  1  0  0  0
 11 12  1  0  0  0
 11 93  1  0  0  0
 12 13  2  0  0  0
 12 94  1  0  0  0
 13 14  1  0  0  0
 13 31  1  0  0  0
 14 15  2  0  0  0
 14 95  1  0  0  0
 15 96  1  0  0  0
 16 17  2  0  0  0
 16 21  1  0  0  0
 16 31  1  0  0  0
 17 18  1  0  0  0
 17 97  1  0  0  0
 18 19  2  0  0  0
 18 98  1  0  0  0
 19 20  1  0  0  0
 19 24  1  0  0  0
 20 21  2  0  0  0
 20 99  1  0  0  0
 21 23  1  0  0  0
 22 28  1  0  0  0
 22 32  2  0  0  0
 26 27  1  0  0  0
 28100  1  0  0  0
 28101  1  0  0  0
 29102  1  0  0  0
 29103  1  0  0  0
 33 34  1  0  0  0
 33 66  1  0  0  0
 33 70  2  0  0  0
 34 36  1  0  0  0
 34 59  1  0  0  0
 34104  1  0  0  0
 35 44  2  0  0  0
 35 45  1  0  0  0
 35 68  1  0  0  0
 36 56  1  0  0  0
 36105  1  0  0  0
 37 39  1  0  0  0
 37 47  1  0  0  0
 37 66  1  0  0  0
 37106  1  0  0  0
 38 43  2  0  0  0
 38 46  1  0  0  0
 38 47  1  0  0  0
 39 64  1  0  0  0
 39 67  2  0  0  0
 40 52  1  0  0  0
 40 53  2  0  0  0
 40 58  1  0  0  0
 41107  1  0  0  0
 41108  1  0  0  0
 41109  1  0  0  0
 41 48  1  0  0  0
 42 43  1  0  0  0
 42 66  1  0  0  0
 42110  1  0  0  0
 42111  1  0  0  0
 43 44  1  0  0  0
 44112  1  0  0  0
 45 46  2  0  0  0
 45113  1  0  0  0
 46114  1  0  0  0
 47115  1  0  0  0
 47116  1  0  0  0
 48 56  1  0  0  0
 48 65  1  0  0  0
 48117  1  0  0  0
 49 50  1  0  0  0
 49 53  1  0  0  0
 49 64  1  0  0  0
 49118  1  0  0  0
 50 51  1  0  0  0
 50119  1  0  0  0
 50120  1  0  0  0
 51 52  1  0  0  0
 51121  1  0  0  0
 51122  1  0  0  0
 52123  1  0  0  0
 52124  1  0  0  0
 53 54  1  0  0  0
 54 55  2  0  0  0
 54125  1  0  0  0
 55 57  1  0  0  0
 55126  1  0  0  0
 56 69  2  0  0  0
 57 58  2  0  0  0
 57127  1  0  0  0
 58128  1  0  0  0
 59 60  1  0  0  0
 59 61  1  0  0  0
 59 62  1  0  0  0
 60129  1  0  0  0
 60130  1  0  0  0
 60131  1  0  0  0
 61132  1  0  0  0
 61133  1  0  0  0
 61134  1  0  0  0
 62135  1  0  0  0
 62136  1  0  0  0
 62137  1  0  0  0
 63 65  1  0  0  0
 63138  1  0  0  0
 63139  1  0  0  0
 63140  1  0  0  0
 64141  1  0  0  0
 65142  1  0  0  0
 68 79  1  0  0  0
 71 73  1  0  0  0
 71 81  2  0  0  0
 71143  1  0  0  0
 72 73  2  0  0  0
 72 82  1  0  0  0
 72144  1  0  0  0
 73 80  1  0  0  0
 74 75  1  0  0  0
 74145  1  0  0  0
 74146  1  0  0  0
 74147  1  0  0  0
 75148  1  0  0  0
 75149  1  0  0  0
 75 80  1  0  0  0
 76 79  1  0  0  0
 76 80  1  0  0  0
 76150  1  0  0  0
 76151  1  0  0  0
 77 78  1  0  0  0
 77 82  1  0  0  0
 77152  1  0  0  0
 77153  1  0  0  0
 78 83  1  0  0  0
 78154  1  0  0  0
 78155  1  0  0  0
 79156  1  0  0  0
 79157  1  0  0  0
 80158  1  0  0  0
 81 82  1  0  0  0
 83159  1  0  0  0
M  ISO  4   1 100  68 101  79 101  83 100
M  END
> <chiral flag>
0

> <version>
0

> <s_m_source_file>
/data/baiqing/PycharmProjects/Reinvent-master-3.2/result/LINK_invent/BTK/process_docking_weight1_custom_sum_contain_oxygen_bond_distance_aromatic_linkinvent_7_9_3/rearranged_h_0097.sdf

> <i_m_source_file_index>
53

> <r_mmod_Potential_Energy-OPLS-2005>
-55.7234191894531

> <r_mmod_Stretch_Energy-OPLS-2005>
44.9827003479004

> <r_mmod_Bend_Energy-OPLS-2005>
108.819969177246

> <r_mmod_Torsional_Energy-OPLS-2005>
215.792114257812

> <r_mmod_Improper_Torsional_Energy-OPLS-2005>
3.30352234840393

> <r_mmod_Van_der_Waal_Energy-OPLS-2005>
136.965866088867

> <r_mmod_Electrostatic_Energy-OPLS-2005>
-358.599853515625

> <r_mmod_Solvation_Energy-OPLS-2005>
-227.226684570312

> <b_mmod_Minimization_Converged-OPLS-2005>
0

> <r_mmod_RMS_Derivative-OPLS-2005>
1.19805669784546

$$$$
53
                    3D
 Structure written by MMmdl.
155163  0  0  1  0            999 V2000
  -30.4765  -15.1970   20.3803 C   0  0  0  0  0  0
  -30.4377  -12.7621   19.5177 C   0  0  0  0  0  0
  -29.5304  -12.5635   18.2788 C   0  0  0  0  0  0
  -28.0759  -12.3021   18.7069 C   0  0  0  0  0  0
  -27.6147  -13.2712   19.8245 C   0  0  2  0  0  0
  -28.6524  -13.4218   20.9576 C   0  0  0  0  0  0
  -25.2403  -13.8245   20.5743 C   0  0  0  0  0  0
  -24.1750  -13.0437   20.9252 C   0  0  0  0  0  0
  -24.6403  -11.6933   20.8764 C   0  0  0  0  0  0
  -23.9099  -10.4291   21.0409 C   0  0  0  0  0  0
  -24.3641   -9.4204   21.9187 C   0  0  0  0  0  0
  -23.6306   -8.2243   22.0759 C   0  0  0  0  0  0
  -22.4288   -8.0285   21.3547 C   0  0  0  0  0  0
  -21.9930   -9.0262   20.4649 C   0  0  0  0  0  0
  -22.7268  -10.2135   20.3058 C   0  0  0  0  0  0
  -21.6856   -6.0742   22.5278 C   0  0  0  0  0  0
  -21.4016   -6.5644   23.8212 C   0  0  0  0  0  0
  -21.3658   -5.6795   24.9173 C   0  0  0  0  0  0
  -21.6043   -4.3058   24.7222 C   0  0  0  0  0  0
  -21.8818   -3.8151   23.4343 C   0  0  0  0  0  0
  -21.9193   -4.6969   22.3400 C   0  0  0  0  0  0
  -22.7767  -13.5190   21.1896 C   0  0  0  0  0  0
  -22.1661   -4.2155   21.0977 F   0  0  0  0  0  0
  -21.5626   -3.4541   25.7734 F   0  0  0  0  0  0
  -29.8926  -13.9057   20.3320 N   0  0  0  0  0  0
  -26.2832  -12.9515   20.3229 N   0  0  0  0  0  0
  -25.9340  -11.6624   20.5734 N   0  0  0  0  0  0
  -22.0428  -12.8172   22.0451 N   0  0  0  0  0  0
  -25.4034  -15.1979   20.4170 N   0  0  0  0  0  0
  -31.6966  -15.1923   20.1691 O   0  0  0  0  0  0
  -21.6644   -6.8886   21.4242 O   0  0  0  0  0  0
  -22.3444  -14.5489   20.6734 O   0  0  0  0  0  0
  -24.6606  -31.8281   23.1752 C   0  0  0  0  0  0
  -25.9303  -32.4613   23.8203 C   0  0  1  0  0  0
  -27.2140  -26.9621   20.1741 C   0  0  0  0  0  0
  -25.5983  -33.8425   24.2104 N   0  0  0  0  0  0
  -23.4733  -30.4435   21.5239 C   0  0  2  0  0  0
  -24.9264  -28.8429   20.1113 C   0  0  0  0  0  0
  -22.7659  -29.4471   22.4792 C   0  0  0  0  0  0
  -18.0324  -28.1411   22.8473 C   0  0  0  0  0  0
  -24.1490  -36.7213   23.2647 C   0  0  0  0  0  0
  -26.0425  -30.6456   21.4022 C   0  0  0  0  0  0
  -26.1107  -29.2401   20.7446 C   0  0  0  0  0  0
  -27.2510  -28.3202   20.7548 C   0  0  0  0  0  0
  -26.0011  -26.7186   19.4871 C   0  0  0  0  0  0
  -24.8956  -27.6015   19.4624 C   0  0  0  0  0  0
  -23.7114  -29.7660   20.1478 C   0  0  0  0  0  0
  -25.4130  -36.2979   24.0304 C   0  0  1  0  0  0
  -20.5948  -28.3755   23.1194 C   0  0  2  0  0  0
  -20.6801  -26.9439   22.5401 C   0  0  0  0  0  0
  -19.5770  -26.6380   21.5218 C   0  0  0  0  0  0
  -18.1953  -26.7946   22.1625 C   0  0  0  0  0  0
  -19.1586  -28.8902   23.2822 C   0  0  0  0  0  0
  -18.9496  -30.1494   23.8857 C   0  0  0  0  0  0
  -17.6488  -30.6601   24.0558 C   0  0  0  0  0  0
  -25.9094  -34.9362   23.5019 C   0  0  0  0  0  0
  -16.5379  -29.9089   23.6343 C   0  0  0  0  0  0
  -16.7306  -28.6508   23.0366 C   0  0  0  0  0  0
  -26.4561  -31.6548   25.0718 C   0  0  0  0  0  0
  -25.3691  -31.3795   26.1376 C   0  0  0  0  0  0
  -27.0456  -30.2919   24.6434 C   0  0  0  0  0  0
  -27.6057  -32.4354   25.7518 C   0  0  0  0  0  0
  -27.5567  -37.1766   24.8468 C   0  0  0  0  0  0
  -21.4331  -29.3052   22.3544 N   0  0  0  0  0  0
  -26.4277  -37.3713   23.9411 N   0  0  0  0  0  0
  -24.7466  -30.9979   22.0875 N   0  0  0  0  0  0
  -23.4222  -28.8027   23.3012 O   0  0  0  0  0  0
  -28.1946  -25.8459   20.2588 O   0  0  0  0  0  0
  -26.5696  -34.8890   22.4609 O   0  0  0  0  0  0
  -23.5682  -32.1235   23.6862 O   0  0  0  0  0  0
  -28.0917  -20.0647   20.0365 C   0  0  0  0  0  0
  -30.1438  -20.9037   20.5835 C   0  0  0  0  0  0
  -29.4291  -19.6417   20.3609 C   0  0  0  0  0  0
  -27.6098  -21.4644   19.9465 C   0  0  0  0  0  0
  -28.4145  -22.6703   20.1961 C   0  0  0  0  0  0
  -25.1920  -21.0853   20.6217 C   0  0  0  0  0  0
  -25.8481  -20.9927   18.1661 C   0  0  0  0  0  0
  -30.1717  -18.0626   20.3973 C   0  0  0  0  0  0
  -27.7677  -24.2912   20.0285 C   0  0  0  0  0  0
  -26.1392  -21.6236   19.5383 C   0  0  0  0  0  0
  -29.7059  -22.2623   20.5173 N   0  0  0  0  0  0
  -29.7371  -16.4706   20.4603 N   0  0  0  0  0  0
  -31.4603  -12.9514   19.1887 H   0  0  0  0  0  0
  -30.4873  -11.8492   20.1132 H   0  0  0  0  0  0
  -29.8962  -11.7384   17.6662 H   0  0  0  0  0  0
  -29.5721  -13.4548   17.6510 H   0  0  0  0  0  0
  -28.0201  -11.2747   19.0685 H   0  0  0  0  0  0
  -27.4069  -12.3602   17.8475 H   0  0  0  0  0  0
  -27.5375  -14.2442   19.3382 H   0  0  0  0  0  0
  -28.8048  -12.4807   21.4879 H   0  0  0  0  0  0
  -28.3064  -14.1450   21.6976 H   0  0  0  0  0  0
  -25.2786   -9.5674   22.4766 H   0  0  0  0  0  0
  -24.0008   -7.4635   22.7482 H   0  0  0  0  0  0
  -21.0859   -8.8787   19.8956 H   0  0  0  0  0  0
  -22.3730  -10.9677   19.6168 H   0  0  0  0  0  0
  -21.2013   -7.6154   23.9716 H   0  0  0  0  0  0
  -21.1479   -6.0527   25.9075 H   0  0  0  0  0  0
  -22.0599   -2.7614   23.2840 H   0  0  0  0  0  0
  -22.4063  -11.9840   22.4836 H   0  0  0  0  0  0
  -21.1042  -13.1181   22.2664 H   0  0  0  0  0  0
  -24.6308  -15.8456   20.5268 H   0  0  0  0  0  0
  -26.2418  -15.6391   20.0634 H   0  0  0  0  0  0
  -26.7373  -32.5160   23.0922 H   0  0  0  0  0  0
  -25.0099  -33.9517   25.0232 H   0  0  0  0  0  0
  -22.7848  -31.2747   21.3573 H   0  0  0  0  0  0
  -23.3764  -35.9532   23.3288 H   0  0  0  0  0  0
  -24.3566  -36.8876   22.2066 H   0  0  0  0  0  0
  -23.7234  -37.6392   23.6710 H   0  0  0  0  0  0
  -26.2206  -31.3903   20.6251 H   0  0  0  0  0  0
  -26.9038  -30.6997   22.0563 H   0  0  0  0  0  0
  -28.1438  -28.6202   21.2849 H   0  0  0  0  0  0
  -25.8544  -25.7775   18.9809 H   0  0  0  0  0  0
  -23.9970  -27.2930   18.9460 H   0  0  0  0  0  0
  -23.8649  -30.5377   19.3925 H   0  0  0  0  0  0
  -22.8219  -29.2202   19.8280 H   0  0  0  0  0  0
  -25.1326  -36.1781   25.0795 H   0  0  0  0  0  0
  -21.0040  -28.3356   24.1316 H   0  0  0  0  0  0
  -20.5689  -26.2373   23.3639 H   0  0  0  0  0  0
  -21.6662  -26.7418   22.1201 H   0  0  0  0  0  0
  -19.6928  -25.6280   21.1276 H   0  0  0  0  0  0
  -19.6706  -27.3166   20.6728 H   0  0  0  0  0  0
  -17.4222  -26.6701   21.4026 H   0  0  0  0  0  0
  -18.0342  -26.0099   22.9029 H   0  0  0  0  0  0
  -19.7971  -30.7324   24.2204 H   0  0  0  0  0  0
  -17.5040  -31.6277   24.5167 H   0  0  0  0  0  0
  -15.5378  -30.2978   23.7693 H   0  0  0  0  0  0
  -15.8707  -28.0810   22.7109 H   0  0  0  0  0  0
  -24.5888  -30.7127   25.7688 H   0  0  0  0  0  0
  -24.8864  -32.2996   26.4677 H   0  0  0  0  0  0
  -25.7926  -30.9046   27.0234 H   0  0  0  0  0  0
  -26.3123  -29.6604   24.1408 H   0  0  0  0  0  0
  -27.3966  -29.7271   25.5081 H   0  0  0  0  0  0
  -27.9071  -30.4113   23.9862 H   0  0  0  0  0  0
  -27.2627  -33.3697   26.1974 H   0  0  0  0  0  0
  -28.3931  -32.6849   25.0392 H   0  0  0  0  0  0
  -28.0655  -31.8562   26.5535 H   0  0  0  0  0  0
  -28.2572  -38.0073   24.7507 H   0  0  0  0  0  0
  -28.1072  -36.2598   24.6299 H   0  0  0  0  0  0
  -27.2284  -37.1414   25.8872 H   0  0  0  0  0  0
  -20.9576  -29.8751   21.6687 H   0  0  0  0  0  0
  -26.0125  -38.2772   24.1418 H   0  0  0  0  0  0
  -27.3895  -19.2730   19.8210 H   0  0  0  0  0  0
  -31.1924  -20.8236   20.8293 H   0  0  0  0  0  0
  -25.3601  -21.5874   21.5751 H   0  0  0  0  0  0
  -25.3167  -20.0144   20.7832 H   0  0  0  0  0  0
  -24.1500  -21.2530   20.3470 H   0  0  0  0  0  0
  -26.4948  -21.4137   17.3955 H   0  0  0  0  0  0
  -24.8184  -21.1831   17.8615 H   0  0  0  0  0  0
  -25.9869  -19.9118   18.1631 H   0  0  0  0  0  0
  -30.8695  -18.1478   21.2311 H   0  0  0  0  0  0
  -30.8236  -18.0920   19.5234 H   0  0  0  0  0  0
  -26.8501  -24.2333   20.6136 H   0  0  0  0  0  0
  -27.4572  -24.2872   18.9842 H   0  0  0  0  0  0
  -25.8918  -22.6745   19.4204 H   0  0  0  0  0  0
  -28.7456  -16.3285   20.5798 H   0  0  0  0  0  0
  1 25  1  0  0  0
  1 30  2  0  0  0
  1 82  1  0  0  0
  2  3  1  0  0  0
  2 25  1  0  0  0
  2 83  1  0  0  0
  2 84  1  0  0  0
  3  4  1  0  0  0
  3 85  1  0  0  0
  3 86  1  0  0  0
  4  5  1  0  0  0
  4 87  1  0  0  0
  4 88  1  0  0  0
  5  6  1  0  0  0
  5 26  1  0  0  0
  5 89  1  0  0  0
  6 25  1  0  0  0
  6 90  1  0  0  0
  6 91  1  0  0  0
  7  8  2  0  0  0
  7 26  1  0  0  0
  7 29  1  0  0  0
  8  9  1  0  0  0
  8 22  1  0  0  0
  9 10  1  0  0  0
  9 27  2  0  0  0
 10 11  2  0  0  0
 10 15  1  0  0  0
 11 12  1  0  0  0
 11 92  1  0  0  0
 12 13  2  0  0  0
 12 93  1  0  0  0
 13 14  1  0  0  0
 13 31  1  0  0  0
 14 15  2  0  0  0
 14 94  1  0  0  0
 15 95  1  0  0  0
 16 17  2  0  0  0
 16 21  1  0  0  0
 16 31  1  0  0  0
 17 18  1  0  0  0
 17 96  1  0  0  0
 18 19  2  0  0  0
 18 97  1  0  0  0
 19 20  1  0  0  0
 19 24  1  0  0  0
 20 21  2  0  0  0
 20 98  1  0  0  0
 21 23  1  0  0  0
 22 28  1  0  0  0
 22 32  2  0  0  0
 26 27  1  0  0  0
 28 99  1  0  0  0
 28100  1  0  0  0
 29101  1  0  0  0
 29102  1  0  0  0
 33 34  1  0  0  0
 33 66  1  0  0  0
 33 70  2  0  0  0
 34 36  1  0  0  0
 34 59  1  0  0  0
 34103  1  0  0  0
 35 44  2  0  0  0
 35 45  1  0  0  0
 35 68  1  0  0  0
 36 56  1  0  0  0
 36104  1  0  0  0
 37 39  1  0  0  0
 37 47  1  0  0  0
 37 66  1  0  0  0
 37105  1  0  0  0
 38 43  2  0  0  0
 38 46  1  0  0  0
 38 47  1  0  0  0
 39 64  1  0  0  0
 39 67  2  0  0  0
 40 52  1  0  0  0
 40 53  2  0  0  0
 40 58  1  0  0  0
 41106  1  0  0  0
 41107  1  0  0  0
 41108  1  0  0  0
 41 48  1  0  0  0
 42 43  1  0  0  0
 42 66  1  0  0  0
 42109  1  0  0  0
 42110  1  0  0  0
 43 44  1  0  0  0
 44111  1  0  0  0
 45 46  2  0  0  0
 45112  1  0  0  0
 46113  1  0  0  0
 47114  1  0  0  0
 47115  1  0  0  0
 48 56  1  0  0  0
 48 65  1  0  0  0
 48116  1  0  0  0
 49 50  1  0  0  0
 49 53  1  0  0  0
 49 64  1  0  0  0
 49117  1  0  0  0
 50 51  1  0  0  0
 50118  1  0  0  0
 50119  1  0  0  0
 51 52  1  0  0  0
 51120  1  0  0  0
 51121  1  0  0  0
 52122  1  0  0  0
 52123  1  0  0  0
 53 54  1  0  0  0
 54 55  2  0  0  0
 54124  1  0  0  0
 55 57  1  0  0  0
 55125  1  0  0  0
 56 69  2  0  0  0
 57 58  2  0  0  0
 57126  1  0  0  0
 58127  1  0  0  0
 59 60  1  0  0  0
 59 61  1  0  0  0
 59 62  1  0  0  0
 60128  1  0  0  0
 60129  1  0  0  0
 60130  1  0  0  0
 61131  1  0  0  0
 61132  1  0  0  0
 61133  1  0  0  0
 62134  1  0  0  0
 62135  1  0  0  0
 62136  1  0  0  0
 63 65  1  0  0  0
 63137  1  0  0  0
 63138  1  0  0  0
 63139  1  0  0  0
 64140  1  0  0  0
 65141  1  0  0  0
 68 79  1  0  0  0
 71 73  2  0  0  0
 71 74  1  0  0  0
 71142  1  0  0  0
 72 73  1  0  0  0
 72 81  2  0  0  0
 72143  1  0  0  0
 73 78  1  0  0  0
 74 75  2  0  0  0
 74 80  1  0  0  0
 75 79  1  0  0  0
 75 81  1  0  0  0
 76144  1  0  0  0
 76145  1  0  0  0
 76146  1  0  0  0
 76 80  1  0  0  0
 77 80  1  0  0  0
 77147  1  0  0  0
 77148  1  0  0  0
 77149  1  0  0  0
 78 82  1  0  0  0
 78150  1  0  0  0
 78151  1  0  0  0
 79152  1  0  0  0
 79153  1  0  0  0
 80154  1  0  0  0
 82155  1  0  0  0
M  ISO  4   1 100  68 101  79 101  82 100
M  END
> <chiral flag>
0

> <version>
0

> <s_m_source_file>
/data/baiqing/PycharmProjects/Reinvent-master-3.2/result/LINK_invent/BTK/process_docking_weight1_custom_sum_contain_oxygen_bond_distance_aromatic_linkinvent_7_9_3/rearranged_h_0097.sdf

> <i_m_source_file_index>
54

> <r_mmod_Potential_Energy-OPLS-2005>
990.86767578125

> <r_mmod_Stretch_Energy-OPLS-2005>
474.855194091797

> <r_mmod_Bend_Energy-OPLS-2005>
452.305999755859

> <r_mmod_Torsional_Energy-OPLS-2005>
202.575759887695

> <r_mmod_Improper_Torsional_Energy-OPLS-2005>
4.38217258453369

> <r_mmod_Van_der_Waal_Energy-OPLS-2005>
137.666900634766

> <r_mmod_Electrostatic_Energy-OPLS-2005>
-448.393585205078

> <r_mmod_Solvation_Energy-OPLS-2005>
-234.514190673828

> <b_mmod_Minimization_Converged-OPLS-2005>
0

> <r_mmod_RMS_Derivative-OPLS-2005>
0.453147649765015

$$$$
54
                    3D
 Structure written by MMmdl.
163171  0  0  1  0            999 V2000
  -30.5788  -14.7438   20.4736 C   0  0  0  0  0  0
  -30.4470  -12.4582   19.4656 C   0  0  0  0  0  0
  -29.5163  -12.4941   18.2367 C   0  0  0  0  0  0
  -28.0390  -12.3316   18.6522 C   0  0  0  0  0  0
  -27.6433  -13.2267   19.8565 C   0  0  2  0  0  0
  -28.6901  -13.1350   20.9887 C   0  0  0  0  0  0
  -25.2548  -13.8215   20.5808 C   0  0  0  0  0  0
  -24.1825  -13.0475   20.9213 C   0  0  0  0  0  0
  -24.6395  -11.6929   20.8771 C   0  0  0  0  0  0
  -23.9034  -10.4315   21.0409 C   0  0  0  0  0  0
  -24.3584   -9.4213   21.9169 C   0  0  0  0  0  0
  -23.6265   -8.2246   22.0740 C   0  0  0  0  0  0
  -22.4226   -8.0284   21.3564 C   0  0  0  0  0  0
  -21.9881   -9.0242   20.4624 C   0  0  0  0  0  0
  -22.7203  -10.2138   20.3042 C   0  0  0  0  0  0
  -21.6824   -6.0702   22.5289 C   0  0  0  0  0  0
  -21.3991   -6.5600   23.8224 C   0  0  0  0  0  0
  -21.3693   -5.6767   24.9203 C   0  0  0  0  0  0
  -21.6066   -4.3023   24.7264 C   0  0  0  0  0  0
  -21.8807   -3.8108   23.4379 C   0  0  0  0  0  0
  -21.9174   -4.6927   22.3431 C   0  0  0  0  0  0
  -22.7832  -13.5235   21.1880 C   0  0  0  0  0  0
  -22.1626   -4.2111   21.1006 F   0  0  0  0  0  0
  -21.5673   -3.4502   25.7776 F   0  0  0  0  0  0
  -29.9854  -13.5067   20.4059 N   0  0  0  0  0  0
  -26.2949  -12.9409   20.3319 N   0  0  0  0  0  0
  -25.9326  -11.6553   20.5788 N   0  0  0  0  0  0
  -22.0533  -12.8255   22.0466 N   0  0  0  0  0  0
  -25.4283  -15.1972   20.4489 N   0  0  0  0  0  0
  -31.7679  -14.8653   20.1634 O   0  0  0  0  0  0
  -21.6629   -6.8849   21.4242 O   0  0  0  0  0  0
  -22.3436  -14.5501   20.6680 O   0  0  0  0  0  0
  -24.6339  -31.8612   23.1979 C   0  0  0  0  0  0
  -25.9130  -32.4784   23.8345 C   0  0  1  0  0  0
  -27.1630  -27.2393   20.1035 C   0  0  0  0  0  0
  -25.5998  -33.8576   24.2283 N   0  0  0  0  0  0
  -23.4294  -30.4913   21.5441 C   0  0  2  0  0  0
  -24.8545  -28.9495   20.0992 C   0  0  0  0  0  0
  -22.7515  -29.4675   22.4926 C   0  0  0  0  0  0
  -18.0288  -28.1352   22.8440 C   0  0  0  0  0  0
  -24.1470  -36.7300   23.2613 C   0  0  0  0  0  0
  -25.9771  -30.7637   21.3800 C   0  0  0  0  0  0
  -26.0319  -29.3875   20.7202 C   0  0  0  0  0  0
  -27.1848  -28.5365   20.7279 C   0  0  0  0  0  0
  -25.9640  -26.8986   19.4343 C   0  0  0  0  0  0
  -24.8243  -27.7144   19.4526 C   0  0  0  0  0  0
  -23.6337  -29.8389   20.1510 C   0  0  0  0  0  0
  -25.4126  -36.3096   24.0282 C   0  0  1  0  0  0
  -20.5941  -28.3610   23.1197 C   0  0  2  0  0  0
  -20.6753  -26.9484   22.4976 C   0  0  0  0  0  0
  -19.5687  -26.6830   21.4698 C   0  0  0  0  0  0
  -18.1929  -26.8029   22.1343 C   0  0  0  0  0  0
  -19.1577  -28.8760   23.2956 C   0  0  0  0  0  0
  -18.9530  -30.1288   23.9131 C   0  0  0  0  0  0
  -17.6564  -30.6615   24.0532 C   0  0  0  0  0  0
  -25.9100  -34.9468   23.5106 C   0  0  0  0  0  0
  -16.5441  -29.9241   23.6027 C   0  0  0  0  0  0
  -16.7281  -28.6594   23.0174 C   0  0  0  0  0  0
  -26.4545  -31.6628   25.0765 C   0  0  0  0  0  0
  -25.3747  -31.3705   26.1462 C   0  0  0  0  0  0
  -27.0374  -30.3048   24.6253 C   0  0  0  0  0  0
  -27.6152  -32.4312   25.7547 C   0  0  0  0  0  0
  -27.5601  -37.1843   24.8472 C   0  0  0  0  0  0
  -21.4207  -29.3074   22.3707 N   0  0  0  0  0  0
  -26.4318  -37.3802   23.9397 N   0  0  0  0  0  0
  -24.6993  -31.0608   22.0937 N   0  0  0  0  0  0
  -23.4264  -28.8211   23.3007 O   0  0  0  0  0  0
  -28.2360  -26.3164   20.1824 O   0  0  0  0  0  0
  -26.5670  -34.8973   22.4639 O   0  0  0  0  0  0
  -23.5490  -32.1320   23.7358 O   0  0  0  0  0  0
  -29.0619  -19.8692   20.6957 C   0  0  0  0  0  0
  -28.1303  -20.6623   19.9031 C   0  0  0  0  0  0
  -29.1712  -18.5309   20.2688 C   0  0  0  0  0  0
  -27.6565  -19.7135   19.0175 C   0  0  0  0  0  0
  -26.6091  -19.8414   17.9490 C   0  0  0  0  0  0
  -25.1153  -23.0337   19.5291 C   0  0  0  0  0  0
  -27.9993  -17.3059   18.3652 C   0  0  0  0  0  0
  -30.1615  -17.3407   20.6539 C   0  0  0  0  0  0
  -26.0940  -22.1810   20.3683 C   0  0  0  0  0  0
  -28.3564  -23.5088   20.4306 C   0  0  0  0  0  0
  -28.1498  -24.9114   19.6238 C   0  0  0  0  0  0
  -27.5815  -22.1856   19.8886 C   0  0  1  0  0  0
  -28.2719  -18.4681   19.2102 N   0  0  0  0  0  0
  -29.7776  -15.8579   20.6941 N   0  0  0  0  0  0
  -31.4776  -12.6067   19.1363 H   0  0  0  0  0  0
  -30.4311  -11.4785   19.9461 H   0  0  0  0  0  0
  -29.7931  -11.7077   17.5324 H   0  0  0  0  0  0
  -29.6561  -13.4401   17.7191 H   0  0  0  0  0  0
  -27.8981  -11.2835   18.9197 H   0  0  0  0  0  0
  -27.3794  -12.5242   17.8066 H   0  0  0  0  0  0
  -27.6339  -14.2504   19.4864 H   0  0  0  0  0  0
  -28.7274  -12.1287   21.4080 H   0  0  0  0  0  0
  -28.4373  -13.7997   21.8141 H   0  0  0  0  0  0
  -25.2722   -9.5679   22.4757 H   0  0  0  0  0  0
  -23.9995   -7.4601   22.7419 H   0  0  0  0  0  0
  -21.0844   -8.8710   19.8870 H   0  0  0  0  0  0
  -22.3619  -10.9668   19.6149 H   0  0  0  0  0  0
  -21.1930   -7.6092   23.9730 H   0  0  0  0  0  0
  -21.1553   -6.0489   25.9119 H   0  0  0  0  0  0
  -22.0559   -2.7561   23.2881 H   0  0  0  0  0  0
  -22.4114  -11.9858   22.4800 H   0  0  0  0  0  0
  -21.1171  -13.1365   22.2630 H   0  0  0  0  0  0
  -24.6660  -15.8376   20.6366 H   0  0  0  0  0  0
  -26.2847  -15.6704   20.2001 H   0  0  0  0  0  0
  -26.7151  -32.5394   23.1045 H   0  0  0  0  0  0
  -25.0096  -33.9662   25.0414 H   0  0  0  0  0  0
  -22.7283  -31.3126   21.4079 H   0  0  0  0  0  0
  -23.3764  -35.9598   23.3287 H   0  0  0  0  0  0
  -24.3548  -36.8963   22.2039 H   0  0  0  0  0  0
  -23.7213  -37.6493   23.6642 H   0  0  0  0  0  0
  -26.1140  -31.5255   20.6059 H   0  0  0  0  0  0
  -26.8524  -30.8091   22.0160 H   0  0  0  0  0  0
  -28.0705  -28.8588   21.2531 H   0  0  0  0  0  0
  -25.8308  -25.9936   18.8769 H   0  0  0  0  0  0
  -23.9199  -27.3789   18.9576 H   0  0  0  0  0  0
  -23.7479  -30.6084   19.3872 H   0  0  0  0  0  0
  -22.7531  -29.2618   19.8559 H   0  0  0  0  0  0
  -25.1309  -36.1970   25.0777 H   0  0  0  0  0  0
  -21.0199  -28.3023   24.1240 H   0  0  0  0  0  0
  -20.5790  -26.2128   23.2988 H   0  0  0  0  0  0
  -21.6587  -26.7522   22.0614 H   0  0  0  0  0  0
  -19.6855  -25.7114   20.9957 H   0  0  0  0  0  0
  -19.6474  -27.4132   20.6624 H   0  0  0  0  0  0
  -17.4151  -26.6860   21.3788 H   0  0  0  0  0  0
  -18.0397  -25.9929   22.8455 H   0  0  0  0  0  0
  -19.7945  -30.6948   24.2884 H   0  0  0  0  0  0
  -17.5017  -31.6335   24.5119 H   0  0  0  0  0  0
  -15.5542  -30.3327   23.7090 H   0  0  0  0  0  0
  -15.8631  -28.1094   22.6713 H   0  0  0  0  0  0
  -24.6006  -30.6971   25.7787 H   0  0  0  0  0  0
  -24.8820  -32.2814   26.4845 H   0  0  0  0  0  0
  -25.8060  -30.8961   27.0276 H   0  0  0  0  0  0
  -26.2948  -29.6843   24.1253 H   0  0  0  0  0  0
  -27.3994  -29.7300   25.4792 H   0  0  0  0  0  0
  -27.8833  -30.4343   23.9494 H   0  0  0  0  0  0
  -27.2789  -33.3600   26.2145 H   0  0  0  0  0  0
  -28.3947  -32.6867   25.0349 H   0  0  0  0  0  0
  -28.0764  -31.8374   26.5469 H   0  0  0  0  0  0
  -28.2662  -38.0122   24.7536 H   0  0  0  0  0  0
  -28.1060  -36.2667   24.6260 H   0  0  0  0  0  0
  -27.2280  -37.1454   25.8866 H   0  0  0  0  0  0
  -20.9409  -29.8459   21.6645 H   0  0  0  0  0  0
  -26.0215  -38.2873   24.1400 H   0  0  0  0  0  0
  -29.6382  -20.2623   21.5208 H   0  0  0  0  0  0
  -26.3555  -20.8706   17.7224 H   0  0  0  0  0  0
  -25.6819  -19.3517   18.2541 H   0  0  0  0  0  0
  -26.9572  -19.3913   17.0192 H   0  0  0  0  0  0
  -25.1999  -22.8329   18.4601 H   0  0  0  0  0  0
  -25.2548  -24.0968   19.6924 H   0  0  0  0  0  0
  -24.0782  -22.8305   19.7972 H   0  0  0  0  0  0
  -28.3812  -16.3802   18.7728 H   0  0  0  0  0  0
  -28.4476  -17.4489   17.3822 H   0  0  0  0  0  0
  -26.9291  -17.1727   18.2373 H   0  0  0  0  0  0
  -30.6071  -17.5685   21.6220 H   0  0  0  0  0  0
  -31.0047  -17.4129   19.9620 H   0  0  0  0  0  0
  -25.7084  -21.1621   20.3326 H   0  0  0  0  0  0
  -26.0178  -22.4601   21.4222 H   0  0  0  0  0  0
  -28.1415  -23.6401   21.4907 H   0  0  0  0  0  0
  -29.4196  -23.2836   20.4043 H   0  0  0  0  0  0
  -27.3261  -24.7491   18.9422 H   0  0  0  0  0  0
  -28.9674  -24.9370   18.9060 H   0  0  0  0  0  0
  -27.5659  -22.3648   18.8131 H   0  0  0  0  0  0
  -28.8159  -15.6563   20.9171 H   0  0  0  0  0  0
  1 25  1  0  0  0
  1 30  2  0  0  0
  1 84  1  0  0  0
  2  3  1  0  0  0
  2 25  1  0  0  0
  2 85  1  0  0  0
  2 86  1  0  0  0
  3  4  1  0  0  0
  3 87  1  0  0  0
  3 88  1  0  0  0
  4  5  1  0  0  0
  4 89  1  0  0  0
  4 90  1  0  0  0
  5  6  1  0  0  0
  5 26  1  0  0  0
  5 91  1  0  0  0
  6 25  1  0  0  0
  6 92  1  0  0  0
  6 93  1  0  0  0
  7  8  2  0  0  0
  7 26  1  0  0  0
  7 29  1  0  0  0
  8  9  1  0  0  0
  8 22  1  0  0  0
  9 10  1  0  0  0
  9 27  2  0  0  0
 10 11  2  0  0  0
 10 15  1  0  0  0
 11 12  1  0  0  0
 11 94  1  0  0  0
 12 13  2  0  0  0
 12 95  1  0  0  0
 13 14  1  0  0  0
 13 31  1  0  0  0
 14 15  2  0  0  0
 14 96  1  0  0  0
 15 97  1  0  0  0
 16 17  2  0  0  0
 16 21  1  0  0  0
 16 31  1  0  0  0
 17 18  1  0  0  0
 17 98  1  0  0  0
 18 19  2  0  0  0
 18 99  1  0  0  0
 19 20  1  0  0  0
 19 24  1  0  0  0
 20 21  2  0  0  0
 20100  1  0  0  0
 21 23  1  0  0  0
 22 28  1  0  0  0
 22 32  2  0  0  0
 26 27  1  0  0  0
 28101  1  0  0  0
 28102  1  0  0  0
 29103  1  0  0  0
 29104  1  0  0  0
 33 34  1  0  0  0
 33 66  1  0  0  0
 33 70  2  0  0  0
 34 36  1  0  0  0
 34 59  1  0  0  0
 34105  1  0  0  0
 35 44  2  0  0  0
 35 45  1  0  0  0
 35 68  1  0  0  0
 36 56  1  0  0  0
 36106  1  0  0  0
 37 39  1  0  0  0
 37 47  1  0  0  0
 37 66  1  0  0  0
 37107  1  0  0  0
 38 43  2  0  0  0
 38 46  1  0  0  0
 38 47  1  0  0  0
 39 64  1  0  0  0
 39 67  2  0  0  0
 40 52  1  0  0  0
 40 53  2  0  0  0
 40 58  1  0  0  0
 41108  1  0  0  0
 41109  1  0  0  0
 41110  1  0  0  0
 41 48  1  0  0  0
 42 43  1  0  0  0
 42 66  1  0  0  0
 42111  1  0  0  0
 42112  1  0  0  0
 43 44  1  0  0  0
 44113  1  0  0  0
 45 46  2  0  0  0
 45114  1  0  0  0
 46115  1  0  0  0
 47116  1  0  0  0
 47117  1  0  0  0
 48 56  1  0  0  0
 48 65  1  0  0  0
 48118  1  0  0  0
 49 50  1  0  0  0
 49 53  1  0  0  0
 49 64  1  0  0  0
 49119  1  0  0  0
 50 51  1  0  0  0
 50120  1  0  0  0
 50121  1  0  0  0
 51 52  1  0  0  0
 51122  1  0  0  0
 51123  1  0  0  0
 52124  1  0  0  0
 52125  1  0  0  0
 53 54  1  0  0  0
 54 55  2  0  0  0
 54126  1  0  0  0
 55 57  1  0  0  0
 55127  1  0  0  0
 56 69  2  0  0  0
 57 58  2  0  0  0
 57128  1  0  0  0
 58129  1  0  0  0
 59 60  1  0  0  0
 59 61  1  0  0  0
 59 62  1  0  0  0
 60130  1  0  0  0
 60131  1  0  0  0
 60132  1  0  0  0
 61133  1  0  0  0
 61134  1  0  0  0
 61135  1  0  0  0
 62136  1  0  0  0
 62137  1  0  0  0
 62138  1  0  0  0
 63 65  1  0  0  0
 63139  1  0  0  0
 63140  1  0  0  0
 63141  1  0  0  0
 64142  1  0  0  0
 65143  1  0  0  0
 68 81  1  0  0  0
 71 72  1  0  0  0
 71 73  2  0  0  0
 71144  1  0  0  0
 72 74  2  0  0  0
 72 82  1  0  0  0
 73 78  1  0  0  0
 73 83  1  0  0  0
 74 75  1  0  0  0
 74 83  1  0  0  0
 75145  1  0  0  0
 75146  1  0  0  0
 75147  1  0  0  0
 76 79  1  0  0  0
 76148  1  0  0  0
 76149  1  0  0  0
 76150  1  0  0  0
 77 83  1  0  0  0
 77151  1  0  0  0
 77152  1  0  0  0
 77153  1  0  0  0
 78 84  1  0  0  0
 78154  1  0  0  0
 78155  1  0  0  0
 79156  1  0  0  0
 79157  1  0  0  0
 79 82  1  0  0  0
 80 81  1  0  0  0
 80 82  1  0  0  0
 80158  1  0  0  0
 80159  1  0  0  0
 81160  1  0  0  0
 81161  1  0  0  0
 82162  1  0  0  0
 84163  1  0  0  0
M  ISO  4   1 100  68 101  81 101  84 100
M  END
> <chiral flag>
0

> <version>
0

> <s_m_source_file>
/data/baiqing/PycharmProjects/Reinvent-master-3.2/result/LINK_invent/BTK/process_docking_weight1_custom_sum_contain_oxygen_bond_distance_aromatic_linkinvent_7_9_3/rearranged_h_0097.sdf

> <i_m_source_file_index>
55

> <r_mmod_Potential_Energy-OPLS-2005>
163.732620239258

> <r_mmod_Stretch_Energy-OPLS-2005>
138.599334716797

> <r_mmod_Bend_Energy-OPLS-2005>
224.069396972656

> <r_mmod_Torsional_Energy-OPLS-2005>
225.171737670898

> <r_mmod_Improper_Torsional_Energy-OPLS-2005>
4.88077306747437

> <r_mmod_Van_der_Waal_Energy-OPLS-2005>
125.148643493652

> <r_mmod_Electrostatic_Energy-OPLS-2005>
-441.362030029297

> <r_mmod_Solvation_Energy-OPLS-2005>
-210.316268920898

> <b_mmod_Minimization_Converged-OPLS-2005>
0

> <r_mmod_RMS_Derivative-OPLS-2005>
9.82196617126465

$$$$
55
                    3D
 Structure written by MMmdl.
154162  0  0  1  0            999 V2000
  -30.5012  -15.0096   20.3817 C   0  0  0  0  0  0
  -30.4498  -12.6263   19.4858 C   0  0  0  0  0  0
  -29.5309  -12.5365   18.2481 C   0  0  0  0  0  0
  -28.0660  -12.3035   18.6682 C   0  0  0  0  0  0
  -27.6292  -13.2435   19.8228 C   0  0  2  0  0  0
  -28.6730  -13.2932   20.9560 C   0  0  0  0  0  0
  -25.2492  -13.8207   20.5688 C   0  0  0  0  0  0
  -24.1806  -13.0446   20.9230 C   0  0  0  0  0  0
  -24.6422  -11.6933   20.8738 C   0  0  0  0  0  0
  -23.9101  -10.4302   21.0374 C   0  0  0  0  0  0
  -24.3651   -9.4214   21.9149 C   0  0  0  0  0  0
  -23.6318   -8.2255   22.0730 C   0  0  0  0  0  0
  -22.4300   -8.0279   21.3532 C   0  0  0  0  0  0
  -21.9930   -9.0251   20.4635 C   0  0  0  0  0  0
  -22.7252  -10.2136   20.3036 C   0  0  0  0  0  0
  -21.6892   -6.0735   22.5279 C   0  0  0  0  0  0
  -21.4021   -6.5632   23.8207 C   0  0  0  0  0  0
  -21.3674   -5.6786   24.9162 C   0  0  0  0  0  0
  -21.6062   -4.3050   24.7203 C   0  0  0  0  0  0
  -21.8818   -3.8143   23.4319 C   0  0  0  0  0  0
  -21.9195   -4.6962   22.3379 C   0  0  0  0  0  0
  -22.7815  -13.5219   21.1860 C   0  0  0  0  0  0
  -22.1649   -4.2156   21.0945 F   0  0  0  0  0  0
  -21.5643   -3.4516   25.7702 F   0  0  0  0  0  0
  -29.9329  -13.7327   20.3407 N   0  0  0  0  0  0
  -26.2890  -12.9421   20.3129 N   0  0  0  0  0  0
  -25.9338  -11.6575   20.5704 N   0  0  0  0  0  0
  -22.0443  -12.8228   22.0418 N   0  0  0  0  0  0
  -25.4181  -15.1929   20.4150 N   0  0  0  0  0  0
  -31.7248  -15.0740   20.2100 O   0  0  0  0  0  0
  -21.6679   -6.8863   21.4236 O   0  0  0  0  0  0
  -22.3476  -14.5510   20.6668 O   0  0  0  0  0  0
  -24.6413  -31.8457   23.1864 C   0  0  0  0  0  0
  -25.9190  -32.4703   23.8263 C   0  0  1  0  0  0
  -27.2232  -27.1265   20.1506 C   0  0  0  0  0  0
  -25.5951  -33.8512   24.2183 N   0  0  0  0  0  0
  -23.4459  -30.4594   21.5370 C   0  0  2  0  0  0
  -24.8933  -28.8707   20.1267 C   0  0  0  0  0  0
  -22.7555  -29.4558   22.4921 C   0  0  0  0  0  0
  -18.0314  -28.1388   22.8494 C   0  0  0  0  0  0
  -24.1495  -36.7256   23.2635 C   0  0  0  0  0  0
  -26.0014  -30.7141   21.3824 C   0  0  0  0  0  0
  -26.0751  -29.3193   20.7314 C   0  0  0  0  0  0
  -27.2448  -28.4657   20.7182 C   0  0  0  0  0  0
  -26.0099  -26.7705   19.5281 C   0  0  0  0  0  0
  -24.8723  -27.6065   19.5137 C   0  0  0  0  0  0
  -23.6729  -29.7786   20.1617 C   0  0  0  0  0  0
  -25.4127  -36.3036   24.0311 C   0  0  1  0  0  0
  -20.5919  -28.3722   23.1250 C   0  0  2  0  0  0
  -20.6803  -26.9425   22.5430 C   0  0  0  0  0  0
  -19.5779  -26.6376   21.5235 C   0  0  0  0  0  0
  -18.1954  -26.7936   22.1631 C   0  0  0  0  0  0
  -19.1563  -28.8876   23.2858 C   0  0  0  0  0  0
  -18.9482  -30.1473   23.8866 C   0  0  0  0  0  0
  -17.6473  -30.6582   24.0568 C   0  0  0  0  0  0
  -25.9085  -34.9411   23.5055 C   0  0  0  0  0  0
  -16.5366  -29.9077   23.6330 C   0  0  0  0  0  0
  -16.7304  -28.6498   23.0362 C   0  0  0  0  0  0
  -26.4509  -31.6566   25.0703 C   0  0  0  0  0  0
  -25.3681  -31.3770   26.1396 C   0  0  0  0  0  0
  -27.0372  -30.2961   24.6261 C   0  0  0  0  0  0
  -27.6033  -32.4322   25.7507 C   0  0  0  0  0  0
  -27.5574  -37.1776   24.8446 C   0  0  0  0  0  0
  -21.4261  -29.3045   22.3639 N   0  0  0  0  0  0
  -26.4283  -37.3751   23.9394 N   0  0  0  0  0  0
  -24.7167  -31.0278   22.0919 N   0  0  0  0  0  0
  -23.4180  -28.8121   23.3096 O   0  0  0  0  0  0
  -28.3000  -26.1650   20.1208 O   0  0  0  0  0  0
  -26.5691  -34.8894   22.4643 O   0  0  0  0  0  0
  -23.5531  -32.1371   23.7061 O   0  0  0  0  0  0
  -29.5284  -19.5486   17.2907 C   0  0  0  0  0  0
  -29.2498  -20.6820   18.0680 C   0  0  0  0  0  0
  -29.7582  -18.5010   18.1250 C   0  0  0  0  0  0
  -29.2577  -20.3733   19.4024 C   0  0  0  0  0  0
  -30.2012  -17.1558   17.6481 C   0  0  0  0  0  0
  -28.9432  -21.6669   20.3651 C   0  0  0  0  0  0
  -28.7336  -23.2589   19.7535 C   0  0  0  0  0  0
  -28.1471  -24.6564   20.5182 C   0  0  0  0  0  0
  -29.8546  -17.7722   20.5828 C   0  0  0  0  0  0
  -29.5775  -18.8801   19.4703 N   0  0  0  0  0  0
  -29.6801  -16.1828   20.3953 N   0  0  0  0  0  0
  -31.4816  -12.8055   19.1766 H   0  0  0  0  0  0
  -30.4595  -11.6799   20.0287 H   0  0  0  0  0  0
  -29.8652  -11.7341   17.5904 H   0  0  0  0  0  0
  -29.6077  -13.4633   17.6768 H   0  0  0  0  0  0
  -27.9781  -11.2620   18.9828 H   0  0  0  0  0  0
  -27.4042  -12.4154   17.8094 H   0  0  0  0  0  0
  -27.5884  -14.2418   19.3862 H   0  0  0  0  0  0
  -28.7764  -12.3174   21.4347 H   0  0  0  0  0  0
  -28.3687  -13.9948   21.7336 H   0  0  0  0  0  0
  -25.2786   -9.5722   22.4705 H   0  0  0  0  0  0
  -24.0045   -7.4677   22.7456 H   0  0  0  0  0  0
  -21.0854   -8.8767   19.8946 H   0  0  0  0  0  0
  -22.3702  -10.9665   19.6144 H   0  0  0  0  0  0
  -21.2024   -7.6149   23.9713 H   0  0  0  0  0  0
  -21.1498   -6.0508   25.9084 H   0  0  0  0  0  0
  -22.0591   -2.7600   23.2813 H   0  0  0  0  0  0
  -22.4099  -11.9973   22.4933 H   0  0  0  0  0  0
  -21.1037  -13.1209   22.2551 H   0  0  0  0  0  0
  -24.6521  -15.8403   20.5576 H   0  0  0  0  0  0
  -26.2569  -15.6387   20.0659 H   0  0  0  0  0  0
  -26.7273  -32.5290   23.1003 H   0  0  0  0  0  0
  -25.0025  -33.9672   25.0275 H   0  0  0  0  0  0
  -22.7467  -31.2833   21.3776 H   0  0  0  0  0  0
  -23.3778  -35.9564   23.3275 H   0  0  0  0  0  0
  -24.3564  -36.8921   22.2047 H   0  0  0  0  0  0
  -23.7235  -37.6428   23.6716 H   0  0  0  0  0  0
  -26.1469  -31.4617   20.6017 H   0  0  0  0  0  0
  -26.8757  -30.7714   22.0202 H   0  0  0  0  0  0
  -28.1538  -28.8136   21.1899 H   0  0  0  0  0  0
  -25.9271  -25.8005   19.0579 H   0  0  0  0  0  0
  -23.9668  -27.2489   19.0417 H   0  0  0  0  0  0
  -23.8127  -30.5488   19.4032 H   0  0  0  0  0  0
  -22.7860  -29.2235   19.8514 H   0  0  0  0  0  0
  -25.1320  -36.1880   25.0814 H   0  0  0  0  0  0
  -20.9997  -28.3312   24.1371 H   0  0  0  0  0  0
  -20.5715  -26.2322   23.3653 H   0  0  0  0  0  0
  -21.6660  -26.7466   22.1198 H   0  0  0  0  0  0
  -19.6941  -25.6280   21.1277 H   0  0  0  0  0  0
  -19.6707  -27.3163   20.6751 H   0  0  0  0  0  0
  -17.4239  -26.6707   21.4022 H   0  0  0  0  0  0
  -18.0324  -26.0064   22.9007 H   0  0  0  0  0  0
  -19.7960  -30.7322   24.2172 H   0  0  0  0  0  0
  -17.5035  -31.6251   24.5188 H   0  0  0  0  0  0
  -15.5368  -30.2977   23.7665 H   0  0  0  0  0  0
  -15.8712  -28.0821   22.7073 H   0  0  0  0  0  0
  -24.5847  -30.7160   25.7677 H   0  0  0  0  0  0
  -24.8899  -32.2974   26.4772 H   0  0  0  0  0  0
  -25.7927  -30.8946   27.0216 H   0  0  0  0  0  0
  -26.2994  -29.6682   24.1264 H   0  0  0  0  0  0
  -27.3990  -29.7254   25.4825 H   0  0  0  0  0  0
  -27.8893  -30.4186   23.9565 H   0  0  0  0  0  0
  -27.2629  -33.3621   26.2074 H   0  0  0  0  0  0
  -28.3869  -32.6894   25.0368 H   0  0  0  0  0  0
  -28.0702  -31.8475   26.5449 H   0  0  0  0  0  0
  -28.2571  -38.0094   24.7526 H   0  0  0  0  0  0
  -28.1112  -36.2628   24.6273 H   0  0  0  0  0  0
  -27.2292  -37.1386   25.8847 H   0  0  0  0  0  0
  -20.9474  -29.8733   21.6799 H   0  0  0  0  0  0
  -26.0161  -38.2814   24.1442 H   0  0  0  0  0  0
  -29.6004  -19.5204   16.2120 H   0  0  0  0  0  0
  -29.0811  -21.6607   17.6471 H   0  0  0  0  0  0
  -30.4608  -17.1924   16.5893 H   0  0  0  0  0  0
  -29.4165  -16.4089   17.7588 H   0  0  0  0  0  0
  -31.1010  -16.8310   18.1677 H   0  0  0  0  0  0
  -29.7496  -21.7267   21.0971 H   0  0  0  0  0  0
  -28.0543  -21.4255   20.9463 H   0  0  0  0  0  0
  -28.0627  -23.1598   18.9004 H   0  0  0  0  0  0
  -29.6929  -23.5357   19.3172 H   0  0  0  0  0  0
  -28.6017  -24.6298   21.5073 H   0  0  0  0  0  0
  -27.0892  -24.4832   20.7145 H   0  0  0  0  0  0
  -29.1901  -18.0259   21.4092 H   0  0  0  0  0  0
  -30.8601  -17.9543   20.9620 H   0  0  0  0  0  0
  -28.7023  -15.9377   20.4052 H   0  0  0  0  0  0
  1 25  1  0  0  0
  1 30  2  0  0  0
  1 81  1  0  0  0
  2  3  1  0  0  0
  2 25  1  0  0  0
  2 82  1  0  0  0
  2 83  1  0  0  0
  3  4  1  0  0  0
  3 84  1  0  0  0
  3 85  1  0  0  0
  4  5  1  0  0  0
  4 86  1  0  0  0
  4 87  1  0  0  0
  5  6  1  0  0  0
  5 26  1  0  0  0
  5 88  1  0  0  0
  6 25  1  0  0  0
  6 89  1  0  0  0
  6 90  1  0  0  0
  7  8  2  0  0  0
  7 26  1  0  0  0
  7 29  1  0  0  0
  8  9  1  0  0  0
  8 22  1  0  0  0
  9 10  1  0  0  0
  9 27  2  0  0  0
 10 11  2  0  0  0
 10 15  1  0  0  0
 11 12  1  0  0  0
 11 91  1  0  0  0
 12 13  2  0  0  0
 12 92  1  0  0  0
 13 14  1  0  0  0
 13 31  1  0  0  0
 14 15  2  0  0  0
 14 93  1  0  0  0
 15 94  1  0  0  0
 16 17  2  0  0  0
 16 21  1  0  0  0
 16 31  1  0  0  0
 17 18  1  0  0  0
 17 95  1  0  0  0
 18 19  2  0  0  0
 18 96  1  0  0  0
 19 20  1  0  0  0
 19 24  1  0  0  0
 20 21  2  0  0  0
 20 97  1  0  0  0
 21 23  1  0  0  0
 22 28  1  0  0  0
 22 32  2  0  0  0
 26 27  1  0  0  0
 28 98  1  0  0  0
 28 99  1  0  0  0
 29100  1  0  0  0
 29101  1  0  0  0
 33 34  1  0  0  0
 33 66  1  0  0  0
 33 70  2  0  0  0
 34 36  1  0  0  0
 34 59  1  0  0  0
 34102  1  0  0  0
 35 44  2  0  0  0
 35 45  1  0  0  0
 35 68  1  0  0  0
 36 56  1  0  0  0
 36103  1  0  0  0
 37 39  1  0  0  0
 37 47  1  0  0  0
 37 66  1  0  0  0
 37104  1  0  0  0
 38 43  2  0  0  0
 38 46  1  0  0  0
 38 47  1  0  0  0
 39 64  1  0  0  0
 39 67  2  0  0  0
 40 52  1  0  0  0
 40 53  2  0  0  0
 40 58  1  0  0  0
 41105  1  0  0  0
 41106  1  0  0  0
 41107  1  0  0  0
 41 48  1  0  0  0
 42 43  1  0  0  0
 42 66  1  0  0  0
 42108  1  0  0  0
 42109  1  0  0  0
 43 44  1  0  0  0
 44110  1  0  0  0
 45 46  2  0  0  0
 45111  1  0  0  0
 46112  1  0  0  0
 47113  1  0  0  0
 47114  1  0  0  0
 48 56  1  0  0  0
 48 65  1  0  0  0
 48115  1  0  0  0
 49 50  1  0  0  0
 49 53  1  0  0  0
 49 64  1  0  0  0
 49116  1  0  0  0
 50 51  1  0  0  0
 50117  1  0  0  0
 50118  1  0  0  0
 51 52  1  0  0  0
 51119  1  0  0  0
 51120  1  0  0  0
 52121  1  0  0  0
 52122  1  0  0  0
 53 54  1  0  0  0
 54 55  2  0  0  0
 54123  1  0  0  0
 55 57  1  0  0  0
 55124  1  0  0  0
 56 69  2  0  0  0
 57 58  2  0  0  0
 57125  1  0  0  0
 58126  1  0  0  0
 59 60  1  0  0  0
 59 61  1  0  0  0
 59 62  1  0  0  0
 60127  1  0  0  0
 60128  1  0  0  0
 60129  1  0  0  0
 61130  1  0  0  0
 61131  1  0  0  0
 61132  1  0  0  0
 62133  1  0  0  0
 62134  1  0  0  0
 62135  1  0  0  0
 63 65  1  0  0  0
 63136  1  0  0  0
 63137  1  0  0  0
 63138  1  0  0  0
 64139  1  0  0  0
 65140  1  0  0  0
 68 78  1  0  0  0
 71 72  1  0  0  0
 71 73  2  0  0  0
 71141  1  0  0  0
 72 74  2  0  0  0
 72142  1  0  0  0
 73 75  1  0  0  0
 73 80  1  0  0  0
 74 76  1  0  0  0
 74 80  1  0  0  0
 75143  1  0  0  0
 75144  1  0  0  0
 75145  1  0  0  0
 76 77  1  0  0  0
 76146  1  0  0  0
 76147  1  0  0  0
 77 78  1  0  0  0
 77148  1  0  0  0
 77149  1  0  0  0
 78150  1  0  0  0
 78151  1  0  0  0
 79 80  1  0  0  0
 79 81  1  0  0  0
 79152  1  0  0  0
 79153  1  0  0  0
 81154  1  0  0  0
M  ISO  4   1 100  68 101  78 101  81 100
M  END
> <chiral flag>
0

> <version>
0

> <s_m_source_file>
/data/baiqing/PycharmProjects/Reinvent-master-3.2/result/LINK_invent/BTK/process_docking_weight1_custom_sum_contain_oxygen_bond_distance_aromatic_linkinvent_7_9_3/rearranged_h_0097.sdf

> <i_m_source_file_index>
56

> <r_mmod_Potential_Energy-OPLS-2005>
596.042358398438

> <r_mmod_Stretch_Energy-OPLS-2005>
326.160461425781

> <r_mmod_Bend_Energy-OPLS-2005>
344.094573974609

> <r_mmod_Torsional_Energy-OPLS-2005>
230.598876953125

> <r_mmod_Improper_Torsional_Energy-OPLS-2005>
5.39470911026001

> <r_mmod_Van_der_Waal_Energy-OPLS-2005>
111.734802246094

> <r_mmod_Electrostatic_Energy-OPLS-2005>
-422.425079345703

> <r_mmod_Solvation_Energy-OPLS-2005>
-217.463592529297

> <b_mmod_Minimization_Converged-OPLS-2005>
0

> <r_mmod_RMS_Derivative-OPLS-2005>
4.66207408905029

$$$$
56
                    3D
 Structure written by MMmdl.
172180  0  0  1  0            999 V2000
  -30.6615  -14.5144   20.5896 C   0  0  0  0  0  0
  -30.4403  -12.3411   19.4062 C   0  0  0  0  0  0
  -29.4956  -12.5113   18.1971 C   0  0  0  0  0  0
  -28.0186  -12.3591   18.6159 C   0  0  0  0  0  0
  -27.6617  -13.1991   19.8705 C   0  0  2  0  0  0
  -28.7078  -12.9706   20.9838 C   0  0  0  0  0  0
  -25.2603  -13.8131   20.5672 C   0  0  0  0  0  0
  -24.1853  -13.0427   20.9173 C   0  0  0  0  0  0
  -24.6396  -11.6888   20.8731 C   0  0  0  0  0  0
  -23.9052  -10.4285   21.0399 C   0  0  0  0  0  0
  -24.3605   -9.4201   21.9178 C   0  0  0  0  0  0
  -23.6284   -8.2237   22.0751 C   0  0  0  0  0  0
  -22.4267   -8.0274   21.3539 C   0  0  0  0  0  0
  -21.9898   -9.0248   20.4640 C   0  0  0  0  0  0
  -22.7223  -10.2126   20.3047 C   0  0  0  0  0  0
  -21.6843   -6.0730   22.5282 C   0  0  0  0  0  0
  -21.4010   -6.5635   23.8215 C   0  0  0  0  0  0
  -21.3661   -5.6791   24.9179 C   0  0  0  0  0  0
  -21.6047   -4.3052   24.7228 C   0  0  0  0  0  0
  -21.8819   -3.8141   23.4349 C   0  0  0  0  0  0
  -21.9195   -4.6961   22.3405 C   0  0  0  0  0  0
  -22.7879  -13.5232   21.1855 C   0  0  0  0  0  0
  -22.1663   -4.2144   21.0977 F   0  0  0  0  0  0
  -21.5635   -3.4537   25.7739 F   0  0  0  0  0  0
  -30.0303  -13.3157   20.4296 N   0  0  0  0  0  0
  -26.3029  -12.9290   20.3340 N   0  0  0  0  0  0
  -25.9313  -11.6459   20.5743 N   0  0  0  0  0  0
  -22.0521  -12.8221   22.0403 N   0  0  0  0  0  0
  -25.4345  -15.1849   20.4073 N   0  0  0  0  0  0
  -31.8030  -14.7386   20.1790 O   0  0  0  0  0  0
  -21.6631   -6.8868   21.4242 O   0  0  0  0  0  0
  -22.3570  -14.5548   20.6710 O   0  0  0  0  0  0
  -24.6191  -31.8674   23.2135 C   0  0  0  0  0  0
  -25.9059  -32.4811   23.8439 C   0  0  1  0  0  0
  -27.2247  -27.3896   20.0868 C   0  0  0  0  0  0
  -25.5893  -33.8611   24.2351 N   0  0  0  0  0  0
  -23.4085  -30.4929   21.5584 C   0  0  2  0  0  0
  -24.8535  -28.9677   20.1140 C   0  0  0  0  0  0
  -22.7433  -29.4648   22.5018 C   0  0  0  0  0  0
  -18.0259  -28.1373   22.8469 C   0  0  0  0  0  0
  -24.1485  -36.7317   23.2639 C   0  0  0  0  0  0
  -25.9455  -30.8183   21.3783 C   0  0  0  0  0  0
  -26.0224  -29.4534   20.7153 C   0  0  0  0  0  0
  -27.2101  -28.6726   20.7004 C   0  0  0  0  0  0
  -26.0291  -26.9507   19.4627 C   0  0  0  0  0  0
  -24.8543  -27.7163   19.4864 C   0  0  0  0  0  0
  -23.6174  -29.8354   20.1716 C   0  0  0  0  0  0
  -25.4106  -36.3098   24.0323 C   0  0  1  0  0  0
  -20.5851  -28.3653   23.1318 C   0  0  2  0  0  0
  -20.6752  -26.9395   22.5413 C   0  0  0  0  0  0
  -19.5748  -26.6383   21.5193 C   0  0  0  0  0  0
  -18.1925  -26.7921   22.1598 C   0  0  0  0  0  0
  -19.1509  -28.8831   23.2885 C   0  0  0  0  0  0
  -18.9436  -30.1441   23.8890 C   0  0  0  0  0  0
  -17.6443  -30.6592   24.0538 C   0  0  0  0  0  0
  -25.9029  -34.9460   23.5140 C   0  0  0  0  0  0
  -16.5330  -29.9070   23.6341 C   0  0  0  0  0  0
  -16.7244  -28.6495   23.0344 C   0  0  0  0  0  0
  -26.4471  -31.6600   25.0772 C   0  0  0  0  0  0
  -25.3700  -31.3700   26.1488 C   0  0  0  0  0  0
  -27.0337  -30.3034   24.6215 C   0  0  0  0  0  0
  -27.6075  -32.4306   25.7511 C   0  0  0  0  0  0
  -27.5589  -37.1801   24.8456 C   0  0  0  0  0  0
  -21.4157  -29.3015   22.3731 N   0  0  0  0  0  0
  -26.4296  -37.3781   23.9399 N   0  0  0  0  0  0
  -24.6765  -31.0723   22.1070 N   0  0  0  0  0  0
  -23.4189  -28.8180   23.3068 O   0  0  0  0  0  0
  -28.3649  -26.5850   20.1199 O   0  0  0  0  0  0
  -26.5604  -34.8897   22.4709 O   0  0  0  0  0  0
  -23.5363  -32.1454   23.7485 O   0  0  0  0  0  0
  -29.3024  -21.4536   20.5942 C   0  0  0  0  0  0
  -29.1808  -21.1602   21.9884 C   0  0  0  0  0  0
  -29.9135  -20.3616   20.0220 C   0  0  0  0  0  0
  -29.8142  -19.9566   22.2320 C   0  0  0  0  0  0
  -30.2983  -20.1396   18.5869 C   0  0  0  0  0  0
  -30.3350  -20.1370   24.7821 C   0  0  0  0  0  0
  -26.4173  -22.3144   24.4984 C   0  0  0  0  0  0
  -28.7243  -22.6791   19.8630 C   0  0  0  0  0  0
  -28.4513  -22.0416   22.9864 C   0  0  0  0  0  0
  -30.1309  -19.2574   23.5376 C   0  0  0  0  0  0
  -27.1970  -21.3715   23.5752 C   0  0  0  0  0  0
  -29.2253  -24.1221   20.2255 C   0  0  0  0  0  0
  -30.5757  -17.9769   20.6761 C   0  0  0  0  0  0
  -30.1665  -16.8265   21.6564 C   0  0  0  0  0  0
  -28.1636  -25.1801   19.8013 C   0  0  0  0  0  0
  -30.0973  -19.3653   20.9897 N   0  0  0  0  0  0
  -29.8796  -15.4772   21.1209 N   0  0  0  0  0  0
  -31.4779  -12.4793   19.0975 H   0  0  0  0  0  0
  -30.3785  -11.3262   19.8018 H   0  0  0  0  0  0
  -29.7392  -11.7826   17.4233 H   0  0  0  0  0  0
  -29.6494  -13.4945   17.7500 H   0  0  0  0  0  0
  -27.8392  -11.3028   18.8189 H   0  0  0  0  0  0
  -27.3623  -12.6239   17.7870 H   0  0  0  0  0  0
  -27.7063  -14.2465   19.5733 H   0  0  0  0  0  0
  -28.7009  -11.9250   21.2971 H   0  0  0  0  0  0
  -28.4598  -13.5386   21.8817 H   0  0  0  0  0  0
  -25.2753   -9.5681   22.4754 H   0  0  0  0  0  0
  -23.9998   -7.4624   22.7467 H   0  0  0  0  0  0
  -21.0834   -8.8757   19.8940 H   0  0  0  0  0  0
  -22.3680  -10.9665   19.6157 H   0  0  0  0  0  0
  -21.1991   -7.6147   23.9716 H   0  0  0  0  0  0
  -21.1490   -6.0518   25.9077 H   0  0  0  0  0  0
  -22.0598   -2.7609   23.2848 H   0  0  0  0  0  0
  -22.4130  -11.9865   22.4776 H   0  0  0  0  0  0
  -21.1141  -13.1249   22.2617 H   0  0  0  0  0  0
  -24.6683  -15.8404   20.5117 H   0  0  0  0  0  0
  -26.2858  -15.6231   20.0794 H   0  0  0  0  0  0
  -26.7128  -32.5523   23.1200 H   0  0  0  0  0  0
  -24.9967  -33.9784   25.0440 H   0  0  0  0  0  0
  -22.6978  -31.3112   21.4252 H   0  0  0  0  0  0
  -23.3731  -35.9672   23.3304 H   0  0  0  0  0  0
  -24.3591  -36.8956   22.2063 H   0  0  0  0  0  0
  -23.7256  -37.6518   23.6669 H   0  0  0  0  0  0
  -26.0663  -31.5874   20.6149 H   0  0  0  0  0  0
  -26.8278  -30.8683   22.0040 H   0  0  0  0  0  0
  -28.1081  -29.0391   21.1774 H   0  0  0  0  0  0
  -25.9630  -26.0045   18.9478 H   0  0  0  0  0  0
  -23.9556  -27.3392   19.0180 H   0  0  0  0  0  0
  -23.7190  -30.6117   19.4136 H   0  0  0  0  0  0
  -22.7405  -29.2535   19.8795 H   0  0  0  0  0  0
  -25.1285  -36.1969   25.0814 H   0  0  0  0  0  0
  -20.9907  -28.3205   24.1452 H   0  0  0  0  0  0
  -20.5672  -26.2247   23.3587 H   0  0  0  0  0  0
  -21.6630  -26.7464   22.1217 H   0  0  0  0  0  0
  -19.6917  -25.6290   21.1237 H   0  0  0  0  0  0
  -19.6706  -27.3170   20.6708 H   0  0  0  0  0  0
  -17.4198  -26.6626   21.3998 H   0  0  0  0  0  0
  -18.0338  -26.0077   22.9009 H   0  0  0  0  0  0
  -19.7911  -30.7241   24.2281 H   0  0  0  0  0  0
  -17.4996  -31.6280   24.5121 H   0  0  0  0  0  0
  -15.5323  -30.2949   23.7727 H   0  0  0  0  0  0
  -15.8635  -28.0821   22.7065 H   0  0  0  0  0  0
  -24.5893  -30.7038   25.7782 H   0  0  0  0  0  0
  -24.8828  -32.2831   26.4916 H   0  0  0  0  0  0
  -25.8004  -30.8864   27.0267 H   0  0  0  0  0  0
  -26.2939  -29.6729   24.1254 H   0  0  0  0  0  0
  -27.4073  -29.7325   25.4732 H   0  0  0  0  0  0
  -27.8779  -30.4352   23.9441 H   0  0  0  0  0  0
  -27.2773  -33.3629   26.2106 H   0  0  0  0  0  0
  -28.3861  -32.6818   25.0291 H   0  0  0  0  0  0
  -28.0758  -31.8398   26.5394 H   0  0  0  0  0  0
  -28.2586  -38.0124   24.7540 H   0  0  0  0  0  0
  -28.1117  -36.2648   24.6240 H   0  0  0  0  0  0
  -27.2313  -37.1410   25.8865 H   0  0  0  0  0  0
  -20.9331  -29.8733   21.6939 H   0  0  0  0  0  0
  -26.0177  -38.2860   24.1396 H   0  0  0  0  0  0
  -30.4468  -21.0843   18.0640 H   0  0  0  0  0  0
  -29.5307  -19.5797   18.0526 H   0  0  0  0  0  0
  -31.2377  -19.5919   18.5028 H   0  0  0  0  0  0
  -30.7104  -19.5373   25.6117 H   0  0  0  0  0  0
  -29.4095  -20.5855   25.1351 H   0  0  0  0  0  0
  -31.0562  -20.9335   24.6011 H   0  0  0  0  0  0
  -25.5345  -21.8202   24.9046 H   0  0  0  0  0  0
  -26.0815  -23.2032   23.9619 H   0  0  0  0  0  0
  -27.0299  -22.6441   25.3384 H   0  0  0  0  0  0
  -27.6514  -22.6232   20.0471 H   0  0  0  0  0  0
  -28.8235  -22.5407   18.7863 H   0  0  0  0  0  0
  -28.1176  -22.9508   22.4924 H   0  0  0  0  0  0
  -29.1409  -22.3702   23.7623 H   0  0  0  0  0  0
  -31.0595  -18.7010   23.4215 H   0  0  0  0  0  0
  -29.3483  -18.5353   23.7682 H   0  0  0  0  0  0
  -26.5438  -21.0503   22.7632 H   0  0  0  0  0  0
  -27.4582  -20.4651   24.1188 H   0  0  0  0  0  0
  -30.1838  -24.3163   19.7449 H   0  0  0  0  0  0
  -29.4027  -24.2207   21.2935 H   0  0  0  0  0  0
  -30.1832  -17.7162   19.6937 H   0  0  0  0  0  0
  -31.6602  -18.0045   20.5689 H   0  0  0  0  0  0
  -29.2249  -17.1052   22.1266 H   0  0  0  0  0  0
  -30.9022  -16.7253   22.4538 H   0  0  0  0  0  0
  -27.2427  -24.8523   20.2854 H   0  0  0  0  0  0
  -28.0126  -25.0934   18.7234 H   0  0  0  0  0  0
  -28.9455  -15.1508   21.3186 H   0  0  0  0  0  0
  1 25  1  0  0  0
  1 30  2  0  0  0
  1 87  1  0  0  0
  2  3  1  0  0  0
  2 25  1  0  0  0
  2 88  1  0  0  0
  2 89  1  0  0  0
  3  4  1  0  0  0
  3 90  1  0  0  0
  3 91  1  0  0  0
  4  5  1  0  0  0
  4 92  1  0  0  0
  4 93  1  0  0  0
  5  6  1  0  0  0
  5 26  1  0  0  0
  5 94  1  0  0  0
  6 25  1  0  0  0
  6 95  1  0  0  0
  6 96  1  0  0  0
  7  8  2  0  0  0
  7 26  1  0  0  0
  7 29  1  0  0  0
  8  9  1  0  0  0
  8 22  1  0  0  0
  9 10  1  0  0  0
  9 27  2  0  0  0
 10 11  2  0  0  0
 10 15  1  0  0  0
 11 12  1  0  0  0
 11 97  1  0  0  0
 12 13  2  0  0  0
 12 98  1  0  0  0
 13 14  1  0  0  0
 13 31  1  0  0  0
 14 15  2  0  0  0
 14 99  1  0  0  0
 15100  1  0  0  0
 16 17  2  0  0  0
 16 21  1  0  0  0
 16 31  1  0  0  0
 17 18  1  0  0  0
 17101  1  0  0  0
 18 19  2  0  0  0
 18102  1  0  0  0
 19 20  1  0  0  0
 19 24  1  0  0  0
 20 21  2  0  0  0
 20103  1  0  0  0
 21 23  1  0  0  0
 22 28  1  0  0  0
 22 32  2  0  0  0
 26 27  1  0  0  0
 28104  1  0  0  0
 28105  1  0  0  0
 29106  1  0  0  0
 29107  1  0  0  0
 33 34  1  0  0  0
 33 66  1  0  0  0
 33 70  2  0  0  0
 34 36  1  0  0  0
 34 59  1  0  0  0
 34108  1  0  0  0
 35 44  2  0  0  0
 35 45  1  0  0  0
 35 68  1  0  0  0
 36 56  1  0  0  0
 36109  1  0  0  0
 37 39  1  0  0  0
 37 47  1  0  0  0
 37 66  1  0  0  0
 37110  1  0  0  0
 38 43  2  0  0  0
 38 46  1  0  0  0
 38 47  1  0  0  0
 39 64  1  0  0  0
 39 67  2  0  0  0
 40 52  1  0  0  0
 40 53  2  0  0  0
 40 58  1  0  0  0
 41111  1  0  0  0
 41112  1  0  0  0
 41113  1  0  0  0
 41 48  1  0  0  0
 42 43  1  0  0  0
 42 66  1  0  0  0
 42114  1  0  0  0
 42115  1  0  0  0
 43 44  1  0  0  0
 44116  1  0  0  0
 45 46  2  0  0  0
 45117  1  0  0  0
 46118  1  0  0  0
 47119  1  0  0  0
 47120  1  0  0  0
 48 56  1  0  0  0
 48 65  1  0  0  0
 48121  1  0  0  0
 49 50  1  0  0  0
 49 53  1  0  0  0
 49 64  1  0  0  0
 49122  1  0  0  0
 50 51  1  0  0  0
 50123  1  0  0  0
 50124  1  0  0  0
 51 52  1  0  0  0
 51125  1  0  0  0
 51126  1  0  0  0
 52127  1  0  0  0
 52128  1  0  0  0
 53 54  1  0  0  0
 54 55  2  0  0  0
 54129  1  0  0  0
 55 57  1  0  0  0
 55130  1  0  0  0
 56 69  2  0  0  0
 57 58  2  0  0  0
 57131  1  0  0  0
 58132  1  0  0  0
 59 60  1  0  0  0
 59 61  1  0  0  0
 59 62  1  0  0  0
 60133  1  0  0  0
 60134  1  0  0  0
 60135  1  0  0  0
 61136  1  0  0  0
 61137  1  0  0  0
 61138  1  0  0  0
 62139  1  0  0  0
 62140  1  0  0  0
 62141  1  0  0  0
 63 65  1  0  0  0
 63142  1  0  0  0
 63143  1  0  0  0
 63144  1  0  0  0
 64145  1  0  0  0
 65146  1  0  0  0
 68 85  1  0  0  0
 71 72  1  0  0  0
 71 73  2  0  0  0
 71 78  1  0  0  0
 72 74  2  0  0  0
 72 79  1  0  0  0
 73 75  1  0  0  0
 73 86  1  0  0  0
 74 80  1  0  0  0
 74 86  1  0  0  0
 75147  1  0  0  0
 75148  1  0  0  0
 75149  1  0  0  0
 76 80  1  0  0  0
 76150  1  0  0  0
 76151  1  0  0  0
 76152  1  0  0  0
 77 81  1  0  0  0
 77153  1  0  0  0
 77154  1  0  0  0
 77155  1  0  0  0
 78 82  1  0  0  0
 78156  1  0  0  0
 78157  1  0  0  0
 79 81  1  0  0  0
 79158  1  0  0  0
 79159  1  0  0  0
 80160  1  0  0  0
 80161  1  0  0  0
 81162  1  0  0  0
 81163  1  0  0  0
 82 85  1  0  0  0
 82164  1  0  0  0
 82165  1  0  0  0
 83 84  1  0  0  0
 83 86  1  0  0  0
 83166  1  0  0  0
 83167  1  0  0  0
 84 87  1  0  0  0
 84168  1  0  0  0
 84169  1  0  0  0
 85170  1  0  0  0
 85171  1  0  0  0
 87172  1  0  0  0
M  ISO  4   1 100  68 101  85 101  87 100
M  END
> <chiral flag>
0

> <version>
0

> <s_m_source_file>
/data/baiqing/PycharmProjects/Reinvent-master-3.2/result/LINK_invent/BTK/process_docking_weight1_custom_sum_contain_oxygen_bond_distance_aromatic_linkinvent_7_9_3/rearranged_h_0097.sdf

> <i_m_source_file_index>
57

> <r_mmod_Potential_Energy-OPLS-2005>
-64.5380935668945

> <r_mmod_Stretch_Energy-OPLS-2005>
51.9637718200684

> <r_mmod_Bend_Energy-OPLS-2005>
138.724166870117

> <r_mmod_Torsional_Energy-OPLS-2005>
226.065948486328

> <r_mmod_Improper_Torsional_Energy-OPLS-2005>
3.98123359680176

> <r_mmod_Van_der_Waal_Energy-OPLS-2005>
139.091354370117

> <r_mmod_Electrostatic_Energy-OPLS-2005>
-439.003753662109

> <r_mmod_Solvation_Energy-OPLS-2005>
-207.543716430664

> <b_mmod_Minimization_Converged-OPLS-2005>
0

> <r_mmod_RMS_Derivative-OPLS-2005>
2.41861844062805

$$$$
57
                    3D
 Structure written by MMmdl.
168175  0  0  1  0            999 V2000
  -30.6327  -14.4397   20.6434 C   0  0  0  0  0  0
  -30.4314  -12.3109   19.3852 C   0  0  0  0  0  0
  -29.4830  -12.4968   18.1811 C   0  0  0  0  0  0
  -28.0039  -12.3455   18.6002 C   0  0  0  0  0  0
  -27.6557  -13.1792   19.8646 C   0  0  2  0  0  0
  -28.6881  -12.8931   20.9702 C   0  0  0  0  0  0
  -25.2574  -13.8093   20.5600 C   0  0  0  0  0  0
  -24.1800  -13.0411   20.9162 C   0  0  0  0  0  0
  -24.6303  -11.6875   20.8722 C   0  0  0  0  0  0
  -23.8979  -10.4268   21.0424 C   0  0  0  0  0  0
  -24.3575   -9.4199   21.9181 C   0  0  0  0  0  0
  -23.6271   -8.2238   22.0757 C   0  0  0  0  0  0
  -22.4254   -8.0264   21.3553 C   0  0  0  0  0  0
  -21.9872   -9.0224   20.4654 C   0  0  0  0  0  0
  -22.7180  -10.2110   20.3055 C   0  0  0  0  0  0
  -21.6838   -6.0718   22.5281 C   0  0  0  0  0  0
  -21.4016   -6.5637   23.8204 C   0  0  0  0  0  0
  -21.3660   -5.6794   24.9175 C   0  0  0  0  0  0
  -21.6045   -4.3059   24.7232 C   0  0  0  0  0  0
  -21.8820   -3.8142   23.4351 C   0  0  0  0  0  0
  -21.9199   -4.6949   22.3407 C   0  0  0  0  0  0
  -22.7839  -13.5258   21.1864 C   0  0  0  0  0  0
  -22.1664   -4.2145   21.0977 F   0  0  0  0  0  0
  -21.5630   -3.4536   25.7736 F   0  0  0  0  0  0
  -30.0138  -13.2509   20.4337 N   0  0  0  0  0  0
  -26.2949  -12.9202   20.3253 N   0  0  0  0  0  0
  -25.9203  -11.6406   20.5684 N   0  0  0  0  0  0
  -22.0479  -12.8232   22.0420 N   0  0  0  0  0  0
  -25.4327  -15.1804   20.4024 N   0  0  0  0  0  0
  -31.7603  -14.7058   20.2046 O   0  0  0  0  0  0
  -21.6641   -6.8852   21.4241 O   0  0  0  0  0  0
  -22.3537  -14.5570   20.6721 O   0  0  0  0  0  0
  -24.6135  -31.8689   23.2121 C   0  0  0  0  0  0
  -25.9039  -32.4841   23.8437 C   0  0  1  0  0  0
  -27.2429  -27.4472   20.0971 C   0  0  0  0  0  0
  -25.5905  -33.8632   24.2368 N   0  0  0  0  0  0
  -23.4046  -30.4924   21.5515 C   0  0  2  0  0  0
  -24.8561  -28.9624   20.1145 C   0  0  0  0  0  0
  -22.7429  -29.4646   22.4973 C   0  0  0  0  0  0
  -18.0266  -28.1383   22.8491 C   0  0  0  0  0  0
  -24.1480  -36.7305   23.2646 C   0  0  0  0  0  0
  -25.9351  -30.8367   21.3667 C   0  0  0  0  0  0
  -26.0155  -29.4728   20.7148 C   0  0  0  0  0  0
  -27.2153  -28.7252   20.7001 C   0  0  0  0  0  0
  -26.0708  -26.9603   19.4784 C   0  0  0  0  0  0
  -24.8791  -27.7046   19.4926 C   0  0  0  0  0  0
  -23.6184  -29.8283   20.1665 C   0  0  0  0  0  0
  -25.4095  -36.3135   24.0355 C   0  0  1  0  0  0
  -20.5871  -28.3666   23.1318 C   0  0  2  0  0  0
  -20.6756  -26.9406   22.5409 C   0  0  0  0  0  0
  -19.5736  -26.6383   21.5211 C   0  0  0  0  0  0
  -18.1916  -26.7918   22.1626 C   0  0  0  0  0  0
  -19.1522  -28.8841   23.2903 C   0  0  0  0  0  0
  -18.9462  -30.1430   23.8929 C   0  0  0  0  0  0
  -17.6450  -30.6596   24.0562 C   0  0  0  0  0  0
  -25.9018  -34.9494   23.5159 C   0  0  0  0  0  0
  -16.5350  -29.9095   23.6325 C   0  0  0  0  0  0
  -16.7263  -28.6502   23.0357 C   0  0  0  0  0  0
  -26.4464  -31.6609   25.0751 C   0  0  0  0  0  0
  -25.3731  -31.3698   26.1500 C   0  0  0  0  0  0
  -27.0296  -30.3071   24.6099 C   0  0  0  0  0  0
  -27.6061  -32.4316   25.7494 C   0  0  0  0  0  0
  -27.5574  -37.1817   24.8471 C   0  0  0  0  0  0
  -21.4154  -29.3036   22.3736 N   0  0  0  0  0  0
  -26.4293  -37.3805   23.9430 N   0  0  0  0  0  0
  -24.6698  -31.0817   22.1015 N   0  0  0  0  0  0
  -23.4204  -28.8168   23.3015 O   0  0  0  0  0  0
  -28.3933  -26.6869   20.1136 O   0  0  0  0  0  0
  -26.5588  -34.8948   22.4728 O   0  0  0  0  0  0
  -23.5338  -32.1440   23.7517 O   0  0  0  0  0  0
  -29.3389  -20.8423   24.0946 C   0  0  0  0  0  0
  -31.0975  -22.7705   17.7027 C   0  0  0  0  0  0
  -30.4633  -22.4937   21.9129 C   0  0  0  0  0  0
  -29.1879  -23.1094   21.3010 C   0  0  0  0  0  0
  -29.8059  -17.8322   21.7452 C   0  0  0  0  0  0
  -30.3353  -16.4394   22.1563 C   0  0  0  0  0  0
  -30.5671  -20.9471   21.9344 C   0  0  0  0  0  0
  -29.9578  -18.7819   22.9581 C   0  0  0  0  0  0
  -28.1952  -25.3649   20.6417 C   0  0  0  0  0  0
  -29.7949  -24.1774   19.0767 C   0  0  0  0  0  0
  -29.4421  -24.4534   20.5559 C   0  0  2  0  0  0
  -29.8842  -15.3192   21.3328 N   0  0  0  0  0  0
  -29.5731  -20.2134   22.7675 N   0  3  1  0  0  0
  -30.9792  -23.3979   18.9706 O   0  0  0  0  0  0
  -31.4658  -12.4733   19.0764 H   0  0  0  0  0  0
  -30.3802  -11.2841   19.7560 H   0  0  0  0  0  0
  -29.7235  -11.7790   17.3955 H   0  0  0  0  0  0
  -29.6398  -13.4870   17.7479 H   0  0  0  0  0  0
  -27.8182  -11.2900   18.7883 H   0  0  0  0  0  0
  -27.3477  -12.6234   17.7722 H   0  0  0  0  0  0
  -27.7150  -14.2340   19.5953 H   0  0  0  0  0  0
  -28.6731  -11.8284   21.2220 H   0  0  0  0  0  0
  -28.4271  -13.4026   21.8975 H   0  0  0  0  0  0
  -25.2715   -9.5704   22.4749 H   0  0  0  0  0  0
  -24.0000   -7.4629   22.7460 H   0  0  0  0  0  0
  -21.0808   -8.8722   19.8945 H   0  0  0  0  0  0
  -22.3623  -10.9651   19.6169 H   0  0  0  0  0  0
  -21.2001   -7.6140   23.9711 H   0  0  0  0  0  0
  -21.1486   -6.0519   25.9074 H   0  0  0  0  0  0
  -22.0599   -2.7602   23.2845 H   0  0  0  0  0  0
  -22.4095  -11.9883   22.4801 H   0  0  0  0  0  0
  -21.1100  -13.1269   22.2645 H   0  0  0  0  0  0
  -24.6644  -15.8325   20.5158 H   0  0  0  0  0  0
  -26.2745  -15.6218   20.0581 H   0  0  0  0  0  0
  -26.7120  -32.5568   23.1208 H   0  0  0  0  0  0
  -25.0093  -33.9804   25.0556 H   0  0  0  0  0  0
  -22.6933  -31.3089   21.4112 H   0  0  0  0  0  0
  -23.3757  -35.9627   23.3328 H   0  0  0  0  0  0
  -24.3569  -36.8882   22.2053 H   0  0  0  0  0  0
  -23.7204  -37.6513   23.6618 H   0  0  0  0  0  0
  -26.0510  -31.6011   20.5970 H   0  0  0  0  0  0
  -26.8223  -30.8927   21.9866 H   0  0  0  0  0  0
  -28.1086  -29.1163   21.1680 H   0  0  0  0  0  0
  -26.0685  -26.0079   18.9696 H   0  0  0  0  0  0
  -23.9940  -27.3061   19.0148 H   0  0  0  0  0  0
  -23.7399  -30.6049   19.4116 H   0  0  0  0  0  0
  -22.7447  -29.2524   19.8572 H   0  0  0  0  0  0
  -25.1269  -36.2025   25.0845 H   0  0  0  0  0  0
  -20.9952  -28.3230   24.1446 H   0  0  0  0  0  0
  -20.5657  -26.2293   23.3597 H   0  0  0  0  0  0
  -21.6624  -26.7439   22.1215 H   0  0  0  0  0  0
  -19.6897  -25.6297   21.1231 H   0  0  0  0  0  0
  -19.6670  -27.3206   20.6749 H   0  0  0  0  0  0
  -17.4181  -26.6678   21.4021 H   0  0  0  0  0  0
  -18.0311  -26.0050   22.9018 H   0  0  0  0  0  0
  -19.7929  -30.7221   24.2337 H   0  0  0  0  0  0
  -17.5023  -31.6267   24.5159 H   0  0  0  0  0  0
  -15.5354  -30.3020   23.7607 H   0  0  0  0  0  0
  -15.8649  -28.0812   22.7093 H   0  0  0  0  0  0
  -24.5912  -30.7035   25.7828 H   0  0  0  0  0  0
  -24.8905  -32.2839   26.4964 H   0  0  0  0  0  0
  -25.8090  -30.8856   27.0250 H   0  0  0  0  0  0
  -26.2837  -29.6835   24.1151 H   0  0  0  0  0  0
  -27.4100  -29.7290   25.4525 H   0  0  0  0  0  0
  -27.8651  -30.4413   23.9229 H   0  0  0  0  0  0
  -27.2710  -33.3607   26.2106 H   0  0  0  0  0  0
  -28.3837  -32.6880   25.0293 H   0  0  0  0  0  0
  -28.0760  -31.8417   26.5366 H   0  0  0  0  0  0
  -28.2626  -38.0084   24.7533 H   0  0  0  0  0  0
  -28.1055  -36.2637   24.6301 H   0  0  0  0  0  0
  -27.2310  -37.1458   25.8877 H   0  0  0  0  0  0
  -20.9333  -29.8840   21.7014 H   0  0  0  0  0  0
  -26.0200  -38.2907   24.1415 H   0  0  0  0  0  0
  -30.2702  -20.9257   24.6577 H   0  0  0  0  0  0
  -28.6395  -20.2610   24.7001 H   0  0  0  0  0  0
  -28.9046  -21.8378   24.0086 H   0  0  0  0  0  0
  -32.0221  -22.1949   17.6486 H   0  0  0  0  0  0
  -31.1044  -23.5055   16.8976 H   0  0  0  0  0  0
  -30.2709  -22.0778   17.5374 H   0  0  0  0  0  0
  -30.6354  -22.9071   22.9061 H   0  0  0  0  0  0
  -31.3237  -22.8302   21.3430 H   0  0  0  0  0  0
  -28.7036  -22.4025   20.6257 H   0  0  0  0  0  0
  -28.4705  -23.2628   22.1083 H   0  0  0  0  0  0
  -28.7588  -17.7772   21.4413 H   0  0  0  0  0  0
  -30.3580  -18.1837   20.8726 H   0  0  0  0  0  0
  -31.4205  -16.4588   22.2362 H   0  0  0  0  0  0
  -29.9515  -16.2193   23.1556 H   0  0  0  0  0  0
  -31.5604  -20.7134   22.3168 H   0  0  0  0  0  0
  -30.5417  -20.5511   20.9224 H   0  0  0  0  0  0
  -30.9833  -18.7362   23.3275 H   0  0  0  0  0  0
  -29.3441  -18.3654   23.7549 H   0  0  0  0  0  0
  -27.8928  -25.4762   21.6850 H   0  0  0  0  0  0
  -27.3825  -24.8394   20.1425 H   0  0  0  0  0  0
  -29.9263  -25.1107   18.5290 H   0  0  0  0  0  0
  -28.9579  -23.6549   18.6101 H   0  0  0  0  0  0
  -30.2667  -24.9796   21.0404 H   0  0  0  0  0  0
  -28.9305  -15.0261   21.4886 H   0  0  0  0  0  0
  -28.6866  -20.2283   22.2921 H   0  0  0  0  0  0
  1 25  1  0  0  0
  1 30  2  0  0  0
  1 82  1  0  0  0
  2  3  1  0  0  0
  2 25  1  0  0  0
  2 85  1  0  0  0
  2 86  1  0  0  0
  3  4  1  0  0  0
  3 87  1  0  0  0
  3 88  1  0  0  0
  4  5  1  0  0  0
  4 89  1  0  0  0
  4 90  1  0  0  0
  5  6  1  0  0  0
  5 26  1  0  0  0
  5 91  1  0  0  0
  6 25  1  0  0  0
  6 92  1  0  0  0
  6 93  1  0  0  0
  7  8  2  0  0  0
  7 26  1  0  0  0
  7 29  1  0  0  0
  8  9  1  0  0  0
  8 22  1  0  0  0
  9 10  1  0  0  0
  9 27  2  0  0  0
 10 11  2  0  0  0
 10 15  1  0  0  0
 11 12  1  0  0  0
 11 94  1  0  0  0
 12 13  2  0  0  0
 12 95  1  0  0  0
 13 14  1  0  0  0
 13 31  1  0  0  0
 14 15  2  0  0  0
 14 96  1  0  0  0
 15 97  1  0  0  0
 16 17  2  0  0  0
 16 21  1  0  0  0
 16 31  1  0  0  0
 17 18  1  0  0  0
 17 98  1  0  0  0
 18 19  2  0  0  0
 18 99  1  0  0  0
 19 20  1  0  0  0
 19 24  1  0  0  0
 20 21  2  0  0  0
 20100  1  0  0  0
 21 23  1  0  0  0
 22 28  1  0  0  0
 22 32  2  0  0  0
 26 27  1  0  0  0
 28101  1  0  0  0
 28102  1  0  0  0
 29103  1  0  0  0
 29104  1  0  0  0
 33 34  1  0  0  0
 33 66  1  0  0  0
 33 70  2  0  0  0
 34 36  1  0  0  0
 34 59  1  0  0  0
 34105  1  0  0  0
 35 44  2  0  0  0
 35 45  1  0  0  0
 35 68  1  0  0  0
 36 56  1  0  0  0
 36106  1  0  0  0
 37 39  1  0  0  0
 37 47  1  0  0  0
 37 66  1  0  0  0
 37107  1  0  0  0
 38 43  2  0  0  0
 38 46  1  0  0  0
 38 47  1  0  0  0
 39 64  1  0  0  0
 39 67  2  0  0  0
 40 52  1  0  0  0
 40 53  2  0  0  0
 40 58  1  0  0  0
 41108  1  0  0  0
 41109  1  0  0  0
 41110  1  0  0  0
 41 48  1  0  0  0
 42 43  1  0  0  0
 42 66  1  0  0  0
 42111  1  0  0  0
 42112  1  0  0  0
 43 44  1  0  0  0
 44113  1  0  0  0
 45 46  2  0  0  0
 45114  1  0  0  0
 46115  1  0  0  0
 47116  1  0  0  0
 47117  1  0  0  0
 48 56  1  0  0  0
 48 65  1  0  0  0
 48118  1  0  0  0
 49 50  1  0  0  0
 49 53  1  0  0  0
 49 64  1  0  0  0
 49119  1  0  0  0
 50 51  1  0  0  0
 50120  1  0  0  0
 50121  1  0  0  0
 51 52  1  0  0  0
 51122  1  0  0  0
 51123  1  0  0  0
 52124  1  0  0  0
 52125  1  0  0  0
 53 54  1  0  0  0
 54 55  2  0  0  0
 54126  1  0  0  0
 55 57  1  0  0  0
 55127  1  0  0  0
 56 69  2  0  0  0
 57 58  2  0  0  0
 57128  1  0  0  0
 58129  1  0  0  0
 59 60  1  0  0  0
 59 61  1  0  0  0
 59 62  1  0  0  0
 60130  1  0  0  0
 60131  1  0  0  0
 60132  1  0  0  0
 61133  1  0  0  0
 61134  1  0  0  0
 61135  1  0  0  0
 62136  1  0  0  0
 62137  1  0  0  0
 62138  1  0  0  0
 63 65  1  0  0  0
 63139  1  0  0  0
 63140  1  0  0  0
 63141  1  0  0  0
 64142  1  0  0  0
 65143  1  0  0  0
 68 79  1  0  0  0
 71144  1  0  0  0
 71145  1  0  0  0
 71146  1  0  0  0
 71 83  1  0  0  0
 72 84  1  0  0  0
 72147  1  0  0  0
 72148  1  0  0  0
 72149  1  0  0  0
 73 74  1  0  0  0
 73 77  1  0  0  0
 73150  1  0  0  0
 73151  1  0  0  0
 74152  1  0  0  0
 74153  1  0  0  0
 74 81  1  0  0  0
 75 76  1  0  0  0
 75 78  1  0  0  0
 75154  1  0  0  0
 75155  1  0  0  0
 76 82  1  0  0  0
 76156  1  0  0  0
 76157  1  0  0  0
 77 83  1  0  0  0
 77158  1  0  0  0
 77159  1  0  0  0
 78 83  1  0  0  0
 78160  1  0  0  0
 78161  1  0  0  0
 79 81  1  0  0  0
 79162  1  0  0  0
 79163  1  0  0  0
 80 81  1  0  0  0
 80 84  1  0  0  0
 80164  1  0  0  0
 80165  1  0  0  0
 81166  1  0  0  0
 82167  1  0  0  0
 83168  1  0  0  0
M  CHG  1  83   1
M  ISO  4   1 100  68 101  79 101  82 100
M  END
> <chiral flag>
0

> <version>
0

> <s_m_source_file>
/data/baiqing/PycharmProjects/Reinvent-master-3.2/result/LINK_invent/BTK/process_docking_weight1_custom_sum_contain_oxygen_bond_distance_aromatic_linkinvent_7_9_3/rearranged_h_0097.sdf

> <i_m_source_file_index>
58

> <r_mmod_Potential_Energy-OPLS-2005>
-105.994903564453

> <r_mmod_Stretch_Energy-OPLS-2005>
35.5744743347168

> <r_mmod_Bend_Energy-OPLS-2005>
110.212829589844

> <r_mmod_Torsional_Energy-OPLS-2005>
250.509719848633

> <r_mmod_Improper_Torsional_Energy-OPLS-2005>
2.66390061378479

> <r_mmod_Van_der_Waal_Energy-OPLS-2005>
147.027954101562

> <r_mmod_Electrostatic_Energy-OPLS-2005>
-219.359176635742

> <r_mmod_Solvation_Energy-OPLS-2005>
-447.329956054688

> <b_mmod_Minimization_Converged-OPLS-2005>
0

> <r_mmod_RMS_Derivative-OPLS-2005>
6.8248462677002

$$$$
59
                    3D
 Structure written by MMmdl.
176183  0  0  1  0            999 V2000
  -30.7293  -14.4494   20.5680 C   0  0  0  0  0  0
  -30.4161  -12.3018   19.4017 C   0  0  0  0  0  0
  -29.4803  -12.5224   18.1946 C   0  0  0  0  0  0
  -28.0077  -12.3749   18.6192 C   0  0  0  0  0  0
  -27.6641  -13.2034   19.8849 C   0  0  2  0  0  0
  -28.7126  -12.9865   21.0009 C   0  0  0  0  0  0
  -25.2599  -13.8145   20.5669 C   0  0  0  0  0  0
  -24.1845  -13.0428   20.9143 C   0  0  0  0  0  0
  -24.6390  -11.6906   20.8742 C   0  0  0  0  0  0
  -23.9055  -10.4309   21.0449 C   0  0  0  0  0  0
  -24.3616   -9.4230   21.9235 C   0  0  0  0  0  0
  -23.6290   -8.2257   22.0791 C   0  0  0  0  0  0
  -22.4282   -8.0293   21.3560 C   0  0  0  0  0  0
  -21.9898   -9.0272   20.4662 C   0  0  0  0  0  0
  -22.7214  -10.2166   20.3108 C   0  0  0  0  0  0
  -21.6865   -6.0751   22.5284 C   0  0  0  0  0  0
  -21.4013   -6.5660   23.8208 C   0  0  0  0  0  0
  -21.3655   -5.6805   24.9171 C   0  0  0  0  0  0
  -21.6052   -4.3068   24.7229 C   0  0  0  0  0  0
  -21.8812   -3.8165   23.4343 C   0  0  0  0  0  0
  -21.9202   -4.6987   22.3410 C   0  0  0  0  0  0
  -22.7879  -13.5257   21.1816 C   0  0  0  0  0  0
  -22.1665   -4.2188   21.0976 F   0  0  0  0  0  0
  -21.5654   -3.4553   25.7728 F   0  0  0  0  0  0
  -30.0419  -13.2805   20.4358 N   0  0  0  0  0  0
  -26.3045  -12.9308   20.3419 N   0  0  0  0  0  0
  -25.9314  -11.6479   20.5771 N   0  0  0  0  0  0
  -22.0534  -12.8267   22.0367 N   0  0  0  0  0  0
  -25.4349  -15.1836   20.4036 N   0  0  0  0  0  0
  -31.8462  -14.6243   20.0737 O   0  0  0  0  0  0
  -21.6637   -6.8893   21.4251 O   0  0  0  0  0  0
  -22.3592  -14.5594   20.6684 O   0  0  0  0  0  0
  -24.6134  -31.8682   23.2125 C   0  0  0  0  0  0
  -25.9034  -32.4822   23.8409 C   0  0  1  0  0  0
  -27.2419  -27.4464   20.0906 C   0  0  0  0  0  0
  -25.5888  -33.8621   24.2337 N   0  0  0  0  0  0
  -23.4013  -30.4916   21.5501 C   0  0  2  0  0  0
  -24.8544  -28.9581   20.1200 C   0  0  0  0  0  0
  -22.7393  -29.4661   22.4979 C   0  0  0  0  0  0
  -18.0277  -28.1368   22.8493 C   0  0  0  0  0  0
  -24.1485  -36.7324   23.2634 C   0  0  0  0  0  0
  -25.9309  -30.8347   21.3690 C   0  0  0  0  0  0
  -26.0123  -29.4656   20.7274 C   0  0  0  0  0  0
  -27.2101  -28.7131   20.7235 C   0  0  0  0  0  0
  -26.0710  -26.9545   19.4821 C   0  0  0  0  0  0
  -24.8758  -27.6961   19.5011 C   0  0  0  0  0  0
  -23.6141  -29.8230   20.1654 C   0  0  0  0  0  0
  -25.4106  -36.3113   24.0334 C   0  0  1  0  0  0
  -20.5861  -28.3658   23.1313 C   0  0  2  0  0  0
  -20.6761  -26.9394   22.5415 C   0  0  0  0  0  0
  -19.5741  -26.6383   21.5209 C   0  0  0  0  0  0
  -18.1924  -26.7923   22.1615 C   0  0  0  0  0  0
  -19.1525  -28.8828   23.2900 C   0  0  0  0  0  0
  -18.9452  -30.1437   23.8913 C   0  0  0  0  0  0
  -17.6455  -30.6575   24.0572 C   0  0  0  0  0  0
  -25.9026  -34.9479   23.5129 C   0  0  0  0  0  0
  -16.5348  -29.9086   23.6321 C   0  0  0  0  0  0
  -16.7267  -28.6498   23.0348 C   0  0  0  0  0  0
  -26.4485  -31.6598   25.0728 C   0  0  0  0  0  0
  -25.3763  -31.3705   26.1484 C   0  0  0  0  0  0
  -27.0315  -30.3040   24.6102 C   0  0  0  0  0  0
  -27.6049  -32.4324   25.7500 C   0  0  0  0  0  0
  -27.5587  -37.1811   24.8458 C   0  0  0  0  0  0
  -21.4123  -29.3037   22.3728 N   0  0  0  0  0  0
  -26.4295  -37.3797   23.9409 N   0  0  0  0  0  0
  -24.6660  -31.0788   22.1028 N   0  0  0  0  0  0
  -23.4174  -28.8195   23.3011 O   0  0  0  0  0  0
  -28.3666  -26.6624   19.9688 O   0  0  0  0  0  0
  -26.5583  -34.8925   22.4697 O   0  0  0  0  0  0
  -23.5326  -32.1434   23.7522 O   0  0  0  0  0  0
  -31.2874  -19.8098   25.5244 C   0  0  0  0  0  0
  -27.3942  -22.0337   22.5329 C   0  0  0  0  0  0
  -27.8758  -20.1643   19.6370 C   0  0  0  0  0  0
  -31.1866  -21.1618   24.8103 C   0  0  0  0  0  0
  -29.9007  -21.2742   23.9833 C   0  0  0  0  0  0
  -29.6162  -24.9963   21.1981 C   0  0  0  0  0  0
  -29.7856  -22.5935   23.1960 C   0  0  0  0  0  0
  -28.4465  -24.0837   21.6361 C   0  0  0  0  0  0
  -29.4823  -17.8780   20.7523 C   0  0  0  0  0  0
  -30.5499  -16.8632   21.2150 C   0  0  0  0  0  0
  -29.9766  -19.3569   20.6904 C   0  0  0  0  0  0
  -29.3124  -21.7920   20.8026 C   0  0  0  0  0  0
  -29.2098  -26.4882   21.0994 C   0  0  0  0  0  0
  -28.7527  -22.5981   22.0313 C   0  0  2  0  0  0
  -30.0698  -15.4697   21.1456 N   0  0  0  0  0  0
  -28.8649  -20.3627   20.7279 N   0  3  1  0  0  0
  -31.4560  -12.3998   19.0860 H   0  0  0  0  0  0
  -30.3199  -11.2859   19.7903 H   0  0  0  0  0  0
  -29.7058  -11.8167   17.3923 H   0  0  0  0  0  0
  -29.6430  -13.5185   17.7765 H   0  0  0  0  0  0
  -27.8165  -11.3181   18.8028 H   0  0  0  0  0  0
  -27.3529  -12.6661   17.7995 H   0  0  0  0  0  0
  -27.7063  -14.2513   19.5860 H   0  0  0  0  0  0
  -28.6841  -11.9536   21.3548 H   0  0  0  0  0  0
  -28.4826  -13.5995   21.8737 H   0  0  0  0  0  0
  -25.2807   -9.5717   22.4757 H   0  0  0  0  0  0
  -24.0067   -7.4643   22.7473 H   0  0  0  0  0  0
  -21.0874   -8.8736   19.8903 H   0  0  0  0  0  0
  -22.3695  -10.9705   19.6180 H   0  0  0  0  0  0
  -21.1985   -7.6163   23.9708 H   0  0  0  0  0  0
  -21.1476   -6.0555   25.9074 H   0  0  0  0  0  0
  -22.0602   -2.7635   23.2813 H   0  0  0  0  0  0
  -22.4181  -11.9915   22.4720 H   0  0  0  0  0  0
  -21.1135  -13.1272   22.2551 H   0  0  0  0  0  0
  -24.6688  -15.8414   20.4922 H   0  0  0  0  0  0
  -26.2939  -15.6164   20.0879 H   0  0  0  0  0  0
  -26.7111  -32.5556   23.1181 H   0  0  0  0  0  0
  -25.0072  -33.9800   25.0502 H   0  0  0  0  0  0
  -22.6901  -31.3081   21.4078 H   0  0  0  0  0  0
  -23.3730  -35.9671   23.3303 H   0  0  0  0  0  0
  -24.3577  -36.8937   22.2042 H   0  0  0  0  0  0
  -23.7250  -37.6543   23.6644 H   0  0  0  0  0  0
  -26.0390  -31.5961   20.5950 H   0  0  0  0  0  0
  -26.8198  -30.8948   21.9852 H   0  0  0  0  0  0
  -28.1064  -29.1117   21.1771 H   0  0  0  0  0  0
  -26.0904  -25.9905   18.9918 H   0  0  0  0  0  0
  -23.9891  -27.2995   19.0244 H   0  0  0  0  0  0
  -23.7211  -30.5978   19.4045 H   0  0  0  0  0  0
  -22.7405  -29.2397   19.8687 H   0  0  0  0  0  0
  -25.1283  -36.1978   25.0822 H   0  0  0  0  0  0
  -20.9960  -28.3225   24.1430 H   0  0  0  0  0  0
  -20.5667  -26.2266   23.3602 H   0  0  0  0  0  0
  -21.6635  -26.7432   22.1204 H   0  0  0  0  0  0
  -19.6907  -25.6299   21.1227 H   0  0  0  0  0  0
  -19.6694  -27.3204   20.6748 H   0  0  0  0  0  0
  -17.4197  -26.6688   21.4016 H   0  0  0  0  0  0
  -18.0315  -26.0051   22.8995 H   0  0  0  0  0  0
  -19.7925  -30.7249   24.2294 H   0  0  0  0  0  0
  -17.5009  -31.6264   24.5159 H   0  0  0  0  0  0
  -15.5348  -30.2994   23.7631 H   0  0  0  0  0  0
  -15.8667  -28.0826   22.7049 H   0  0  0  0  0  0
  -24.5920  -30.7069   25.7837 H   0  0  0  0  0  0
  -24.8983  -32.2864   26.4960 H   0  0  0  0  0  0
  -25.8131  -30.8860   27.0220 H   0  0  0  0  0  0
  -26.2866  -29.6791   24.1161 H   0  0  0  0  0  0
  -27.4094  -29.7284   25.4559 H   0  0  0  0  0  0
  -27.8695  -30.4354   23.9249 H   0  0  0  0  0  0
  -27.2649  -33.3600   26.2114 H   0  0  0  0  0  0
  -28.3851  -32.6915   25.0333 H   0  0  0  0  0  0
  -28.0721  -31.8422   26.5394 H   0  0  0  0  0  0
  -28.2580  -38.0129   24.7512 H   0  0  0  0  0  0
  -28.1094  -36.2653   24.6252 H   0  0  0  0  0  0
  -27.2304  -37.1434   25.8861 H   0  0  0  0  0  0
  -20.9274  -29.8774   21.6969 H   0  0  0  0  0  0
  -26.0173  -38.2872   24.1419 H   0  0  0  0  0  0
  -32.2162  -19.7385   26.0907 H   0  0  0  0  0  0
  -31.2768  -18.9836   24.8131 H   0  0  0  0  0  0
  -30.4601  -19.6639   26.2196 H   0  0  0  0  0  0
  -27.0153  -22.6161   23.3736 H   0  0  0  0  0  0
  -27.4508  -21.0023   22.8807 H   0  0  0  0  0  0
  -26.6272  -22.0723   21.7587 H   0  0  0  0  0  0
  -27.3532  -19.2100   19.7220 H   0  0  0  0  0  0
  -28.3518  -20.2004   18.6563 H   0  0  0  0  0  0
  -27.1094  -20.9384   19.6610 H   0  0  0  0  0  0
  -32.0470  -21.2778   24.1511 H   0  0  0  0  0  0
  -31.2427  -21.9704   25.5417 H   0  0  0  0  0  0
  -29.0343  -21.1563   24.6356 H   0  0  0  0  0  0
  -29.8719  -20.4325   23.3043 H   0  0  0  0  0  0
  -30.0234  -24.6574   20.2446 H   0  0  0  0  0  0
  -30.4273  -24.9265   21.9214 H   0  0  0  0  0  0
  -30.7687  -22.8560   22.8048 H   0  0  0  0  0  0
  -29.5451  -23.3864   23.9045 H   0  0  0  0  0  0
  -27.6862  -24.0964   20.8514 H   0  0  0  0  0  0
  -27.9685  -24.5711   22.4876 H   0  0  0  0  0  0
  -28.6288  -17.7948   21.4249 H   0  0  0  0  0  0
  -29.1274  -17.5870   19.7619 H   0  0  0  0  0  0
  -30.8400  -17.0778   22.2426 H   0  0  0  0  0  0
  -31.4476  -17.0014   20.6101 H   0  0  0  0  0  0
  -30.5749  -19.5078   19.7896 H   0  0  0  0  0  0
  -30.6675  -19.5376   21.5144 H   0  0  0  0  0  0
  -30.4012  -21.8457   20.7822 H   0  0  0  0  0  0
  -29.0215  -22.2960   19.8799 H   0  0  0  0  0  0
  -30.0989  -27.1034   20.9590 H   0  0  0  0  0  0
  -28.7364  -26.8104   22.0283 H   0  0  0  0  0  0
  -29.1599  -15.2712   21.5376 H   0  0  0  0  0  0
  -28.3645  -20.2080   21.5903 H   0  0  0  0  0  0
  1 25  1  0  0  0
  1 30  2  0  0  0
  1 85  1  0  0  0
  2  3  1  0  0  0
  2 25  1  0  0  0
  2 87  1  0  0  0
  2 88  1  0  0  0
  3  4  1  0  0  0
  3 89  1  0  0  0
  3 90  1  0  0  0
  4  5  1  0  0  0
  4 91  1  0  0  0
  4 92  1  0  0  0
  5  6  1  0  0  0
  5 26  1  0  0  0
  5 93  1  0  0  0
  6 25  1  0  0  0
  6 94  1  0  0  0
  6 95  1  0  0  0
  7  8  2  0  0  0
  7 26  1  0  0  0
  7 29  1  0  0  0
  8  9  1  0  0  0
  8 22  1  0  0  0
  9 10  1  0  0  0
  9 27  2  0  0  0
 10 11  2  0  0  0
 10 15  1  0  0  0
 11 12  1  0  0  0
 11 96  1  0  0  0
 12 13  2  0  0  0
 12 97  1  0  0  0
 13 14  1  0  0  0
 13 31  1  0  0  0
 14 15  2  0  0  0
 14 98  1  0  0  0
 15 99  1  0  0  0
 16 17  2  0  0  0
 16 21  1  0  0  0
 16 31  1  0  0  0
 17 18  1  0  0  0
 17100  1  0  0  0
 18 19  2  0  0  0
 18101  1  0  0  0
 19 20  1  0  0  0
 19 24  1  0  0  0
 20 21  2  0  0  0
 20102  1  0  0  0
 21 23  1  0  0  0
 22 28  1  0  0  0
 22 32  2  0  0  0
 26 27  1  0  0  0
 28103  1  0  0  0
 28104  1  0  0  0
 29105  1  0  0  0
 29106  1  0  0  0
 33 34  1  0  0  0
 33 66  1  0  0  0
 33 70  2  0  0  0
 34 36  1  0  0  0
 34 59  1  0  0  0
 34107  1  0  0  0
 35 44  2  0  0  0
 35 45  1  0  0  0
 35 68  1  0  0  0
 36 56  1  0  0  0
 36108  1  0  0  0
 37 39  1  0  0  0
 37 47  1  0  0  0
 37 66  1  0  0  0
 37109  1  0  0  0
 38 43  2  0  0  0
 38 46  1  0  0  0
 38 47  1  0  0  0
 39 64  1  0  0  0
 39 67  2  0  0  0
 40 52  1  0  0  0
 40 53  2  0  0  0
 40 58  1  0  0  0
 41110  1  0  0  0
 41111  1  0  0  0
 41112  1  0  0  0
 41 48  1  0  0  0
 42 43  1  0  0  0
 42 66  1  0  0  0
 42113  1  0  0  0
 42114  1  0  0  0
 43 44  1  0  0  0
 44115  1  0  0  0
 45 46  2  0  0  0
 45116  1  0  0  0
 46117  1  0  0  0
 47118  1  0  0  0
 47119  1  0  0  0
 48 56  1  0  0  0
 48 65  1  0  0  0
 48120  1  0  0  0
 49 50  1  0  0  0
 49 53  1  0  0  0
 49 64  1  0  0  0
 49121  1  0  0  0
 50 51  1  0  0  0
 50122  1  0  0  0
 50123  1  0  0  0
 51 52  1  0  0  0
 51124  1  0  0  0
 51125  1  0  0  0
 52126  1  0  0  0
 52127  1  0  0  0
 53 54  1  0  0  0
 54 55  2  0  0  0
 54128  1  0  0  0
 55 57  1  0  0  0
 55129  1  0  0  0
 56 69  2  0  0  0
 57 58  2  0  0  0
 57130  1  0  0  0
 58131  1  0  0  0
 59 60  1  0  0  0
 59 61  1  0  0  0
 59 62  1  0  0  0
 60132  1  0  0  0
 60133  1  0  0  0
 60134  1  0  0  0
 61135  1  0  0  0
 61136  1  0  0  0
 61137  1  0  0  0
 62138  1  0  0  0
 62139  1  0  0  0
 62140  1  0  0  0
 63 65  1  0  0  0
 63141  1  0  0  0
 63142  1  0  0  0
 63143  1  0  0  0
 64144  1  0  0  0
 65145  1  0  0  0
 68 83  1  0  0  0
 71 74  1  0  0  0
 71146  1  0  0  0
 71147  1  0  0  0
 71148  1  0  0  0
 72149  1  0  0  0
 72150  1  0  0  0
 72151  1  0  0  0
 72 84  1  0  0  0
 73152  1  0  0  0
 73153  1  0  0  0
 73154  1  0  0  0
 73 86  1  0  0  0
 74 75  1  0  0  0
 74155  1  0  0  0
 74156  1  0  0  0
 75 77  1  0  0  0
 75157  1  0  0  0
 75158  1  0  0  0
 76 78  1  0  0  0
 76 83  1  0  0  0
 76159  1  0  0  0
 76160  1  0  0  0
 77 84  1  0  0  0
 77161  1  0  0  0
 77162  1  0  0  0
 78 84  1  0  0  0
 78163  1  0  0  0
 78164  1  0  0  0
 79 80  1  0  0  0
 79 81  1  0  0  0
 79165  1  0  0  0
 79166  1  0  0  0
 80 85  1  0  0  0
 80167  1  0  0  0
 80168  1  0  0  0
 81 86  1  0  0  0
 81169  1  0  0  0
 81170  1  0  0  0
 82 84  1  0  0  0
 82 86  1  0  0  0
 82171  1  0  0  0
 82172  1  0  0  0
 83173  1  0  0  0
 83174  1  0  0  0
 85175  1  0  0  0
 86176  1  0  0  0
M  CHG  1  86   1
M  ISO  4   1 100  68 101  83 101  85 100
M  END
> <chiral flag>
0

> <version>
0

> <s_m_source_file>
/data/baiqing/PycharmProjects/Reinvent-master-3.2/result/LINK_invent/BTK/process_docking_weight1_custom_sum_contain_oxygen_bond_distance_aromatic_linkinvent_7_9_3/rearranged_h_0097.sdf

> <i_m_source_file_index>
59

> <r_mmod_Potential_Energy-OPLS-2005>
-101.228225708008

> <r_mmod_Stretch_Energy-OPLS-2005>
41.7220573425293

> <r_mmod_Bend_Energy-OPLS-2005>
112.995330810547

> <r_mmod_Torsional_Energy-OPLS-2005>
262.498870849609

> <r_mmod_Improper_Torsional_Energy-OPLS-2005>
3.23214602470398

> <r_mmod_Van_der_Waal_Energy-OPLS-2005>
135.666320800781

> <r_mmod_Electrostatic_Energy-OPLS-2005>
-239.222610473633

> <r_mmod_Solvation_Energy-OPLS-2005>
-428.918548583984

> <b_mmod_Minimization_Converged-OPLS-2005>
0

> <r_mmod_RMS_Derivative-OPLS-2005>
4.3554253578186

$$$$
60
                    3D
 Structure written by MMmdl.
156164  0  0  1  0            999 V2000
  -30.5220  -14.9903   20.4134 C   0  0  0  0  0  0
  -30.4451  -12.6152   19.5078 C   0  0  0  0  0  0
  -29.5299  -12.5366   18.2636 C   0  0  0  0  0  0
  -28.0647  -12.3111   18.6823 C   0  0  0  0  0  0
  -27.6300  -13.2516   19.8367 C   0  0  2  0  0  0
  -28.6688  -13.2994   20.9772 C   0  0  0  0  0  0
  -25.2460  -13.8220   20.5713 C   0  0  0  0  0  0
  -24.1781  -13.0439   20.9224 C   0  0  0  0  0  0
  -24.6394  -11.6924   20.8741 C   0  0  0  0  0  0
  -23.9074  -10.4297   21.0410 C   0  0  0  0  0  0
  -24.3631   -9.4213   21.9184 C   0  0  0  0  0  0
  -23.6305   -8.2248   22.0758 C   0  0  0  0  0  0
  -22.4285   -8.0286   21.3548 C   0  0  0  0  0  0
  -21.9916   -9.0262   20.4653 C   0  0  0  0  0  0
  -22.7249  -10.2135   20.3056 C   0  0  0  0  0  0
  -21.6849   -6.0734   22.5278 C   0  0  0  0  0  0
  -21.4016   -6.5636   23.8209 C   0  0  0  0  0  0
  -21.3663   -5.6787   24.9170 C   0  0  0  0  0  0
  -21.6042   -4.3048   24.7219 C   0  0  0  0  0  0
  -21.8820   -3.8140   23.4339 C   0  0  0  0  0  0
  -21.9191   -4.6964   22.3393 C   0  0  0  0  0  0
  -22.7795  -13.5209   21.1867 C   0  0  0  0  0  0
  -22.1665   -4.2148   21.0971 F   0  0  0  0  0  0
  -21.5633   -3.4528   25.7729 F   0  0  0  0  0  0
  -29.9422  -13.7206   20.3783 N   0  0  0  0  0  0
  -26.2890  -12.9456   20.3231 N   0  0  0  0  0  0
  -25.9330  -11.6577   20.5730 N   0  0  0  0  0  0
  -22.0436  -12.8213   22.0428 N   0  0  0  0  0  0
  -25.4108  -15.1955   20.4150 N   0  0  0  0  0  0
  -31.7268  -15.0564   20.1423 O   0  0  0  0  0  0
  -21.6644   -6.8890   21.4240 O   0  0  0  0  0  0
  -22.3478  -14.5513   20.6710 O   0  0  0  0  0  0
  -24.6466  -31.8426   23.1871 C   0  0  0  0  0  0
  -25.9227  -32.4685   23.8277 C   0  0  1  0  0  0
  -27.2171  -27.1123   20.1623 C   0  0  0  0  0  0
  -25.5965  -33.8491   24.2197 N   0  0  0  0  0  0
  -23.4510  -30.4629   21.5312 C   0  0  2  0  0  0
  -24.9017  -28.8837   20.1088 C   0  0  0  0  0  0
  -22.7583  -29.4558   22.4841 C   0  0  0  0  0  0
  -18.0313  -28.1392   22.8474 C   0  0  0  0  0  0
  -24.1495  -36.7251   23.2642 C   0  0  0  0  0  0
  -26.0091  -30.7101   21.3881 C   0  0  0  0  0  0
  -26.0789  -29.3182   20.7307 C   0  0  0  0  0  0
  -27.2372  -28.4503   20.7364 C   0  0  0  0  0  0
  -26.0165  -26.7866   19.4939 C   0  0  0  0  0  0
  -24.8855  -27.6335   19.4710 C   0  0  0  0  0  0
  -23.6792  -29.7894   20.1512 C   0  0  0  0  0  0
  -25.4125  -36.3031   24.0318 C   0  0  1  0  0  0
  -20.5927  -28.3734   23.1212 C   0  0  2  0  0  0
  -20.6792  -26.9434   22.5390 C   0  0  0  0  0  0
  -19.5762  -26.6380   21.5204 C   0  0  0  0  0  0
  -18.1947  -26.7928   22.1620 C   0  0  0  0  0  0
  -19.1569  -28.8880   23.2837 C   0  0  0  0  0  0
  -18.9479  -30.1475   23.8870 C   0  0  0  0  0  0
  -17.6474  -30.6584   24.0560 C   0  0  0  0  0  0
  -25.9075  -34.9401   23.5069 C   0  0  0  0  0  0
  -16.5367  -29.9082   23.6328 C   0  0  0  0  0  0
  -16.7296  -28.6495   23.0355 C   0  0  0  0  0  0
  -26.4542  -31.6551   25.0719 C   0  0  0  0  0  0
  -25.3728  -31.3726   26.1413 C   0  0  0  0  0  0
  -27.0405  -30.2947   24.6306 C   0  0  0  0  0  0
  -27.6087  -32.4315   25.7495 C   0  0  0  0  0  0
  -27.5579  -37.1780   24.8465 C   0  0  0  0  0  0
  -21.4274  -29.3058   22.3577 N   0  0  0  0  0  0
  -26.4290  -37.3745   23.9409 N   0  0  0  0  0  0
  -24.7222  -31.0273   22.0906 N   0  0  0  0  0  0
  -23.4214  -28.8103   23.2997 O   0  0  0  0  0  0
  -28.2615  -26.1129   20.2538 O   0  0  0  0  0  0
  -26.5664  -34.8903   22.4649 O   0  0  0  0  0  0
  -23.5582  -32.1307   23.7081 O   0  0  0  0  0  0
  -28.8445  -19.5001   18.5934 C   0  0  0  0  0  0
  -29.1831  -21.0191   18.9088 C   0  0  0  0  0  0
  -29.4492  -20.4744   21.2945 C   0  0  0  0  0  0
  -29.8534  -18.3142   18.9307 C   0  0  0  0  0  0
  -29.1485  -18.8402   21.3016 C   0  0  0  0  0  0
  -28.7515  -21.5807   20.3042 C   0  0  1  0  0  0
  -29.9637  -17.7490   20.3968 C   0  0  1  0  0  0
  -28.9879  -23.2632   20.5334 C   0  0  0  0  0  0
  -27.9956  -24.5739   20.0923 C   0  0  0  0  0  0
  -29.7263  -16.1726   20.5494 N   0  0  0  0  0  0
  -31.4779  -12.7813   19.1976 H   0  0  0  0  0  0
  -30.4465  -11.6684   20.0501 H   0  0  0  0  0  0
  -29.8607  -11.7383   17.5993 H   0  0  0  0  0  0
  -29.6094  -13.4633   17.6930 H   0  0  0  0  0  0
  -27.9721  -11.2731   19.0029 H   0  0  0  0  0  0
  -27.4006  -12.4240   17.8252 H   0  0  0  0  0  0
  -27.5886  -14.2498   19.3982 H   0  0  0  0  0  0
  -28.7630  -12.3307   21.4703 H   0  0  0  0  0  0
  -28.3606  -14.0098   21.7470 H   0  0  0  0  0  0
  -25.2775   -9.5687   22.4760 H   0  0  0  0  0  0
  -24.0003   -7.4639   22.7478 H   0  0  0  0  0  0
  -21.0847   -8.8789   19.8962 H   0  0  0  0  0  0
  -22.3715  -10.9679   19.6168 H   0  0  0  0  0  0
  -21.2014   -7.6146   23.9713 H   0  0  0  0  0  0
  -21.1487   -6.0514   25.9073 H   0  0  0  0  0  0
  -22.0595   -2.7604   23.2821 H   0  0  0  0  0  0
  -22.4039  -11.9896   22.4859 H   0  0  0  0  0  0
  -21.1061  -13.1263   22.2626 H   0  0  0  0  0  0
  -24.6371  -15.8418   20.5296 H   0  0  0  0  0  0
  -26.2475  -15.6390   20.0594 H   0  0  0  0  0  0
  -26.7287  -32.5290   23.1004 H   0  0  0  0  0  0
  -25.0102  -33.9605   25.0338 H   0  0  0  0  0  0
  -22.7550  -31.2902   21.3752 H   0  0  0  0  0  0
  -23.3769  -35.9571   23.3285 H   0  0  0  0  0  0
  -24.3581  -36.8904   22.2060 H   0  0  0  0  0  0
  -23.7236  -37.6435   23.6688 H   0  0  0  0  0  0
  -26.1679  -31.4623   20.6138 H   0  0  0  0  0  0
  -26.8790  -30.7619   22.0318 H   0  0  0  0  0  0
  -28.1339  -28.7802   21.2417 H   0  0  0  0  0  0
  -25.9210  -25.8303   19.0021 H   0  0  0  0  0  0
  -23.9889  -27.2992   18.9684 H   0  0  0  0  0  0
  -23.8196  -30.5637   19.3961 H   0  0  0  0  0  0
  -22.7924  -29.2338   19.8388 H   0  0  0  0  0  0
  -25.1310  -36.1863   25.0809 H   0  0  0  0  0  0
  -21.0035  -28.3340   24.1329 H   0  0  0  0  0  0
  -20.5680  -26.2363   23.3623 H   0  0  0  0  0  0
  -21.6655  -26.7427   22.1196 H   0  0  0  0  0  0
  -19.6921  -25.6284   21.1258 H   0  0  0  0  0  0
  -19.6684  -27.3174   20.6719 H   0  0  0  0  0  0
  -17.4213  -26.6685   21.4027 H   0  0  0  0  0  0
  -18.0348  -26.0073   22.9021 H   0  0  0  0  0  0
  -19.7955  -30.7298   24.2234 H   0  0  0  0  0  0
  -17.5024  -31.6258   24.5176 H   0  0  0  0  0  0
  -15.5367  -30.2972   23.7650 H   0  0  0  0  0  0
  -15.8705  -28.0799   22.7084 H   0  0  0  0  0  0
  -24.5908  -30.7086   25.7709 H   0  0  0  0  0  0
  -24.8917  -32.2894   26.4822 H   0  0  0  0  0  0
  -25.8010  -30.8889   27.0202 H   0  0  0  0  0  0
  -26.3008  -29.6664   24.1334 H   0  0  0  0  0  0
  -27.4027  -29.7259   25.4876 H   0  0  0  0  0  0
  -27.8919  -30.4174   23.9617 H   0  0  0  0  0  0
  -27.2700  -33.3643   26.2018 H   0  0  0  0  0  0
  -28.3921  -32.6831   25.0330 H   0  0  0  0  0  0
  -28.0737  -31.8474   26.5450 H   0  0  0  0  0  0
  -28.2586  -38.0088   24.7520 H   0  0  0  0  0  0
  -28.1087  -36.2614   24.6281 H   0  0  0  0  0  0
  -27.2295  -37.1418   25.8869 H   0  0  0  0  0  0
  -20.9497  -29.8767   21.6745 H   0  0  0  0  0  0
  -26.0159  -38.2816   24.1408 H   0  0  0  0  0  0
  -28.7337  -19.4620   17.5087 H   0  0  0  0  0  0
  -27.8427  -19.2618   18.9532 H   0  0  0  0  0  0
  -28.6934  -21.6354   18.1538 H   0  0  0  0  0  0
  -30.2517  -21.1805   18.7568 H   0  0  0  0  0  0
  -30.5318  -20.6001   21.2363 H   0  0  0  0  0  0
  -29.2049  -20.8128   22.3017 H   0  0  0  0  0  0
  -30.8474  -18.6270   18.6064 H   0  0  0  0  0  0
  -29.6047  -17.4779   18.2760 H   0  0  0  0  0  0
  -28.0782  -18.6964   21.1485 H   0  0  0  0  0  0
  -29.3033  -18.5207   22.3331 H   0  0  0  0  0  0
  -27.6756  -21.4289   20.4010 H   0  0  0  0  0  0
  -31.0078  -17.8711   20.6893 H   0  0  0  0  0  0
  -29.9780  -23.4847   20.1350 H   0  0  0  0  0  0
  -29.1134  -23.3754   21.6104 H   0  0  0  0  0  0
  -27.0503  -24.3936   20.6054 H   0  0  0  0  0  0
  -27.7748  -24.4316   19.0346 H   0  0  0  0  0  0
  -28.7635  -15.9450   20.7487 H   0  0  0  0  0  0
  1 25  1  0  0  0
  1 30  2  0  0  0
  1 80  1  0  0  0
  2  3  1  0  0  0
  2 25  1  0  0  0
  2 81  1  0  0  0
  2 82  1  0  0  0
  3  4  1  0  0  0
  3 83  1  0  0  0
  3 84  1  0  0  0
  4  5  1  0  0  0
  4 85  1  0  0  0
  4 86  1  0  0  0
  5  6  1  0  0  0
  5 26  1  0  0  0
  5 87  1  0  0  0
  6 25  1  0  0  0
  6 88  1  0  0  0
  6 89  1  0  0  0
  7  8  2  0  0  0
  7 26  1  0  0  0
  7 29  1  0  0  0
  8  9  1  0  0  0
  8 22  1  0  0  0
  9 10  1  0  0  0
  9 27  2  0  0  0
 10 11  2  0  0  0
 10 15  1  0  0  0
 11 12  1  0  0  0
 11 90  1  0  0  0
 12 13  2  0  0  0
 12 91  1  0  0  0
 13 14  1  0  0  0
 13 31  1  0  0  0
 14 15  2  0  0  0
 14 92  1  0  0  0
 15 93  1  0  0  0
 16 17  2  0  0  0
 16 21  1  0  0  0
 16 31  1  0  0  0
 17 18  1  0  0  0
 17 94  1  0  0  0
 18 19  2  0  0  0
 18 95  1  0  0  0
 19 20  1  0  0  0
 19 24  1  0  0  0
 20 21  2  0  0  0
 20 96  1  0  0  0
 21 23  1  0  0  0
 22 28  1  0  0  0
 22 32  2  0  0  0
 26 27  1  0  0  0
 28 97  1  0  0  0
 28 98  1  0  0  0
 29 99  1  0  0  0
 29100  1  0  0  0
 33 34  1  0  0  0
 33 66  1  0  0  0
 33 70  2  0  0  0
 34 36  1  0  0  0
 34 59  1  0  0  0
 34101  1  0  0  0
 35 44  2  0  0  0
 35 45  1  0  0  0
 35 68  1  0  0  0
 36 56  1  0  0  0
 36102  1  0  0  0
 37 39  1  0  0  0
 37 47  1  0  0  0
 37 66  1  0  0  0
 37103  1  0  0  0
 38 43  2  0  0  0
 38 46  1  0  0  0
 38 47  1  0  0  0
 39 64  1  0  0  0
 39 67  2  0  0  0
 40 52  1  0  0  0
 40 53  2  0  0  0
 40 58  1  0  0  0
 41104  1  0  0  0
 41105  1  0  0  0
 41106  1  0  0  0
 41 48  1  0  0  0
 42 43  1  0  0  0
 42 66  1  0  0  0
 42107  1  0  0  0
 42108  1  0  0  0
 43 44  1  0  0  0
 44109  1  0  0  0
 45 46  2  0  0  0
 45110  1  0  0  0
 46111  1  0  0  0
 47112  1  0  0  0
 47113  1  0  0  0
 48 56  1  0  0  0
 48 65  1  0  0  0
 48114  1  0  0  0
 49 50  1  0  0  0
 49 53  1  0  0  0
 49 64  1  0  0  0
 49115  1  0  0  0
 50 51  1  0  0  0
 50116  1  0  0  0
 50117  1  0  0  0
 51 52  1  0  0  0
 51118  1  0  0  0
 51119  1  0  0  0
 52120  1  0  0  0
 52121  1  0  0  0
 53 54  1  0  0  0
 54 55  2  0  0  0
 54122  1  0  0  0
 55 57  1  0  0  0
 55123  1  0  0  0
 56 69  2  0  0  0
 57 58  2  0  0  0
 57124  1  0  0  0
 58125  1  0  0  0
 59 60  1  0  0  0
 59 61  1  0  0  0
 59 62  1  0  0  0
 60126  1  0  0  0
 60127  1  0  0  0
 60128  1  0  0  0
 61129  1  0  0  0
 61130  1  0  0  0
 61131  1  0  0  0
 62132  1  0  0  0
 62133  1  0  0  0
 62134  1  0  0  0
 63 65  1  0  0  0
 63135  1  0  0  0
 63136  1  0  0  0
 63137  1  0  0  0
 64138  1  0  0  0
 65139  1  0  0  0
 68 79  1  0  0  0
 71 72  1  0  0  0
 71 74  1  0  0  0
 71140  1  0  0  0
 71141  1  0  0  0
 72 76  1  0  0  0
 72142  1  0  0  0
 72143  1  0  0  0
 73 75  1  0  0  0
 73 76  1  0  0  0
 73144  1  0  0  0
 73145  1  0  0  0
 74 77  1  0  0  0
 74146  1  0  0  0
 74147  1  0  0  0
 75 77  1  0  0  0
 75148  1  0  0  0
 75149  1  0  0  0
 76 78  1  0  0  0
 76150  1  0  0  0
 77 80  1  0  0  0
 77151  1  0  0  0
 78 79  1  0  0  0
 78152  1  0  0  0
 78153  1  0  0  0
 79154  1  0  0  0
 79155  1  0  0  0
 80156  1  0  0  0
M  ISO  4   1 100  68 101  79 101  80 100
M  END
> <chiral flag>
0

> <version>
0

> <s_m_source_file>
/data/baiqing/PycharmProjects/Reinvent-master-3.2/result/LINK_invent/BTK/process_docking_weight1_custom_sum_contain_oxygen_bond_distance_aromatic_linkinvent_7_9_3/rearranged_h_0097.sdf

> <i_m_source_file_index>
60

> <r_mmod_Potential_Energy-OPLS-2005>
609.204467773438

> <r_mmod_Stretch_Energy-OPLS-2005>
282.985382080078

> <r_mmod_Bend_Energy-OPLS-2005>
294.193450927734

> <r_mmod_Torsional_Energy-OPLS-2005>
250.964782714844

> <r_mmod_Improper_Torsional_Energy-OPLS-2005>
4.30613994598389

> <r_mmod_Van_der_Waal_Energy-OPLS-2005>
116.896873474121

> <r_mmod_Electrostatic_Energy-OPLS-2005>
-360.069213867188

> <r_mmod_Solvation_Energy-OPLS-2005>
-201.136306762695

> <b_mmod_Minimization_Converged-OPLS-2005>
0

> <r_mmod_RMS_Derivative-OPLS-2005>
2.04486989974976

$$$$
61
                    3D
 Structure written by MMmdl.
178186  0  0  1  0            999 V2000
  -30.7234  -14.3823   20.6577 C   0  0  0  0  0  0
  -30.4136  -12.2833   19.3915 C   0  0  0  0  0  0
  -29.4828  -12.5223   18.1875 C   0  0  0  0  0  0
  -28.0029  -12.3882   18.6019 C   0  0  0  0  0  0
  -27.6621  -13.2015   19.8792 C   0  0  2  0  0  0
  -28.6981  -12.9176   20.9865 C   0  0  0  0  0  0
  -25.2564  -13.8143   20.5685 C   0  0  0  0  0  0
  -24.1808  -13.0446   20.9166 C   0  0  0  0  0  0
  -24.6345  -11.6885   20.8686 C   0  0  0  0  0  0
  -23.9015  -10.4282   21.0361 C   0  0  0  0  0  0
  -24.3571   -9.4216   21.9163 C   0  0  0  0  0  0
  -23.6271   -8.2248   22.0744 C   0  0  0  0  0  0
  -22.4260   -8.0252   21.3534 C   0  0  0  0  0  0
  -21.9865   -9.0217   20.4648 C   0  0  0  0  0  0
  -22.7164  -10.2108   20.3041 C   0  0  0  0  0  0
  -21.6854   -6.0696   22.5259 C   0  0  0  0  0  0
  -21.4016   -6.5621   23.8191 C   0  0  0  0  0  0
  -21.3665   -5.6784   24.9155 C   0  0  0  0  0  0
  -21.6056   -4.3047   24.7218 C   0  0  0  0  0  0
  -21.8813   -3.8126   23.4342 C   0  0  0  0  0  0
  -21.9192   -4.6931   22.3397 C   0  0  0  0  0  0
  -22.7830  -13.5241   21.1821 C   0  0  0  0  0  0
  -22.1655   -4.2114   21.0969 F   0  0  0  0  0  0
  -21.5629   -3.4531   25.7744 F   0  0  0  0  0  0
  -30.0361  -13.2296   20.4501 N   0  0  0  0  0  0
  -26.3005  -12.9315   20.3381 N   0  0  0  0  0  0
  -25.9278  -11.6466   20.5724 N   0  0  0  0  0  0
  -22.0442  -12.8284   22.0384 N   0  0  0  0  0  0
  -25.4352  -15.1845   20.4103 N   0  0  0  0  0  0
  -31.7958  -14.6433   20.1030 O   0  0  0  0  0  0
  -21.6635   -6.8833   21.4229 O   0  0  0  0  0  0
  -22.3537  -14.5557   20.6643 O   0  0  0  0  0  0
  -24.6140  -31.8725   23.2129 C   0  0  0  0  0  0
  -25.9048  -32.4845   23.8409 C   0  0  1  0  0  0
  -27.2361  -27.4568   20.1120 C   0  0  0  0  0  0
  -25.5912  -33.8643   24.2344 N   0  0  0  0  0  0
  -23.3984  -30.4955   21.5523 C   0  0  2  0  0  0
  -24.8435  -28.9594   20.1178 C   0  0  0  0  0  0
  -22.7410  -29.4697   22.5030 C   0  0  0  0  0  0
  -18.0297  -28.1337   22.8498 C   0  0  0  0  0  0
  -24.1482  -36.7320   23.2646 C   0  0  0  0  0  0
  -25.9241  -30.8472   21.3552 C   0  0  0  0  0  0
  -26.0023  -29.4810   20.7079 C   0  0  0  0  0  0
  -27.2008  -28.7389   20.6991 C   0  0  0  0  0  0
  -26.0668  -26.9490   19.5016 C   0  0  0  0  0  0
  -24.8693  -27.6910   19.5127 C   0  0  0  0  0  0
  -23.6044  -29.8240   20.1670 C   0  0  0  0  0  0
  -25.4113  -36.3131   24.0353 C   0  0  1  0  0  0
  -20.5884  -28.3646   23.1321 C   0  0  2  0  0  0
  -20.6747  -26.9383   22.5407 C   0  0  0  0  0  0
  -19.5721  -26.6368   21.5188 C   0  0  0  0  0  0
  -18.1914  -26.7888   22.1618 C   0  0  0  0  0  0
  -19.1539  -28.8814   23.2896 C   0  0  0  0  0  0
  -18.9458  -30.1414   23.8900 C   0  0  0  0  0  0
  -17.6456  -30.6554   24.0552 C   0  0  0  0  0  0
  -25.9036  -34.9499   23.5146 C   0  0  0  0  0  0
  -16.5354  -29.9042   23.6301 C   0  0  0  0  0  0
  -16.7281  -28.6453   23.0350 C   0  0  0  0  0  0
  -26.4495  -31.6612   25.0734 C   0  0  0  0  0  0
  -25.3786  -31.3677   26.1497 C   0  0  0  0  0  0
  -27.0298  -30.3064   24.6059 C   0  0  0  0  0  0
  -27.6080  -32.4294   25.7510 C   0  0  0  0  0  0
  -27.5589  -37.1825   24.8475 C   0  0  0  0  0  0
  -21.4153  -29.3027   22.3746 N   0  0  0  0  0  0
  -26.4311  -37.3810   23.9411 N   0  0  0  0  0  0
  -24.6638  -31.0863   22.0992 N   0  0  0  0  0  0
  -23.4204  -28.8277   23.3084 O   0  0  0  0  0  0
  -28.4097  -26.7399   20.1360 O   0  0  0  0  0  0
  -26.5583  -34.8937   22.4699 O   0  0  0  0  0  0
  -23.5345  -32.1477   23.7536 O   0  0  0  0  0  0
  -30.0540  -17.7560   19.8185 C   0  0  0  0  0  0
  -30.6873  -19.8047   20.4204 C   0  0  0  0  0  0
  -30.1138  -19.1139   19.3881 C   0  0  0  0  0  0
  -30.5372  -17.6669   21.0989 C   0  0  0  0  0  0
  -30.6944  -19.1769   15.4771 C   0  0  0  0  0  0
  -29.9597  -21.1651   17.8853 C   0  0  0  0  0  0
  -28.7320  -26.0320   23.0204 C   0  0  0  0  0  0
  -30.7109  -16.4787   22.0122 C   0  0  0  0  0  0
  -30.0926  -18.7810   16.8564 C   0  0  0  0  0  0
  -31.4781  -20.8405   23.1274 C   0  0  0  0  0  0
  -30.1290  -21.5998   23.0732 C   0  0  0  0  0  0
  -31.3989  -19.3243   22.8280 C   0  0  0  0  0  0
  -30.2960  -23.1072   22.7873 C   0  0  0  0  0  0
  -28.3006  -25.3793   20.5784 C   0  0  0  0  0  0
  -29.6229  -19.6662   18.0549 C   0  0  1  0  0  0
  -29.1547  -25.1292   21.8454 C   0  0  2  0  0  0
  -30.8841  -18.9547   21.5006 N   0  0  0  0  0  0
  -30.1410  -15.2350   21.5089 N   0  0  0  0  0  0
  -29.0491  -23.7061   22.2594 N   0  3  0  0  0  0
  -31.4568  -12.3884   19.0932 H   0  0  0  0  0  0
  -30.3139  -11.2576   19.7511 H   0  0  0  0  0  0
  -29.7126  -11.8172   17.3869 H   0  0  0  0  0  0
  -29.6656  -13.5154   17.7784 H   0  0  0  0  0  0
  -27.7996  -11.3317   18.7774 H   0  0  0  0  0  0
  -27.3545  -12.6852   17.7757 H   0  0  0  0  0  0
  -27.7271  -14.2584   19.6204 H   0  0  0  0  0  0
  -28.6630  -11.8650   21.2700 H   0  0  0  0  0  0
  -28.4504  -13.4559   21.8998 H   0  0  0  0  0  0
  -25.2686   -9.5712   22.4757 H   0  0  0  0  0  0
  -23.9958   -7.4653   22.7482 H   0  0  0  0  0  0
  -21.0791   -8.8725   19.8984 H   0  0  0  0  0  0
  -22.3584  -10.9641   19.6167 H   0  0  0  0  0  0
  -21.2014   -7.6129   23.9688 H   0  0  0  0  0  0
  -21.1497   -6.0509   25.9065 H   0  0  0  0  0  0
  -22.0594   -2.7587   23.2848 H   0  0  0  0  0  0
  -22.4016  -11.9980   22.4870 H   0  0  0  0  0  0
  -21.1059  -13.1346   22.2518 H   0  0  0  0  0  0
  -24.6834  -15.8525   20.5373 H   0  0  0  0  0  0
  -26.3031  -15.6176   20.1182 H   0  0  0  0  0  0
  -26.7148  -32.5575   23.1205 H   0  0  0  0  0  0
  -25.0052  -33.9805   25.0484 H   0  0  0  0  0  0
  -22.6868  -31.3108   21.4138 H   0  0  0  0  0  0
  -23.3758  -35.9644   23.3328 H   0  0  0  0  0  0
  -24.3579  -36.8903   22.2054 H   0  0  0  0  0  0
  -23.7202  -37.6524   23.6620 H   0  0  0  0  0  0
  -26.0242  -31.6073   20.5797 H   0  0  0  0  0  0
  -26.8163  -30.9077   21.9662 H   0  0  0  0  0  0
  -28.0948  -29.1399   21.1577 H   0  0  0  0  0  0
  -26.0708  -25.9837   19.0150 H   0  0  0  0  0  0
  -23.9815  -27.2833   19.0493 H   0  0  0  0  0  0
  -23.7132  -30.5934   19.4016 H   0  0  0  0  0  0
  -22.7261  -29.2443   19.8760 H   0  0  0  0  0  0
  -25.1277  -36.2027   25.0847 H   0  0  0  0  0  0
  -20.9981  -28.3174   24.1435 H   0  0  0  0  0  0
  -20.5564  -26.2279   23.3608 H   0  0  0  0  0  0
  -21.6636  -26.7365   22.1246 H   0  0  0  0  0  0
  -19.6843  -25.6273   21.1209 H   0  0  0  0  0  0
  -19.6612  -27.3190   20.6721 H   0  0  0  0  0  0
  -17.4175  -26.6695   21.4014 H   0  0  0  0  0  0
  -18.0286  -25.9996   22.8982 H   0  0  0  0  0  0
  -19.7942  -30.7226   24.2275 H   0  0  0  0  0  0
  -17.5011  -31.6241   24.5154 H   0  0  0  0  0  0
  -15.5342  -30.2943   23.7586 H   0  0  0  0  0  0
  -15.8699  -28.0750   22.7056 H   0  0  0  0  0  0
  -24.6022  -30.6930   25.7858 H   0  0  0  0  0  0
  -24.8914  -32.2805   26.4928 H   0  0  0  0  0  0
  -25.8207  -30.8912   27.0262 H   0  0  0  0  0  0
  -26.2798  -29.6863   24.1150 H   0  0  0  0  0  0
  -27.4128  -29.7268   25.4469 H   0  0  0  0  0  0
  -27.8622  -30.4396   23.9141 H   0  0  0  0  0  0
  -27.2712  -33.3611   26.2087 H   0  0  0  0  0  0
  -28.3922  -32.6830   25.0359 H   0  0  0  0  0  0
  -28.0702  -31.8405   26.5442 H   0  0  0  0  0  0
  -28.2633  -38.0101   24.7532 H   0  0  0  0  0  0
  -28.1059  -36.2642   24.6295 H   0  0  0  0  0  0
  -27.2308  -37.1469   25.8880 H   0  0  0  0  0  0
  -20.9307  -29.8806   21.7026 H   0  0  0  0  0  0
  -26.0220  -38.2897   24.1407 H   0  0  0  0  0  0
  -29.6950  -16.9200   19.2328 H   0  0  0  0  0  0
  -30.9368  -20.8541   20.4866 H   0  0  0  0  0  0
  -31.0078  -20.2232   15.4355 H   0  0  0  0  0  0
  -30.0088  -19.0122   14.6378 H   0  0  0  0  0  0
  -31.5775  -18.5783   15.2420 H   0  0  0  0  0  0
  -29.5331  -21.7618   18.6939 H   0  0  0  0  0  0
  -29.5584  -21.5566   16.9496 H   0  0  0  0  0  0
  -31.0379  -21.3310   17.8784 H   0  0  0  0  0  0
  -28.9301  -27.0817   22.8113 H   0  0  0  0  0  0
  -29.2667  -25.7795   23.9379 H   0  0  0  0  0  0
  -27.6648  -25.9350   23.2270 H   0  0  0  0  0  0
  -30.2287  -16.6726   22.9700 H   0  0  0  0  0  0
  -31.7706  -16.3285   22.2328 H   0  0  0  0  0  0
  -29.2415  -19.2682   16.3825 H   0  0  0  0  0  0
  -31.0928  -19.0813   17.1810 H   0  0  0  0  0  0
  -31.9166  -20.9725   24.1173 H   0  0  0  0  0  0
  -32.1976  -21.2933   22.4462 H   0  0  0  0  0  0
  -29.5839  -21.4464   24.0062 H   0  0  0  0  0  0
  -29.4855  -21.1671   22.3092 H   0  0  0  0  0  0
  -30.7692  -18.8505   23.5825 H   0  0  0  0  0  0
  -32.3892  -18.8847   22.9386 H   0  0  0  0  0  0
  -31.0774  -23.2530   22.0413 H   0  0  0  0  0  0
  -30.6195  -23.6335   23.6857 H   0  0  0  0  0  0
  -27.2735  -25.0861   20.7970 H   0  0  0  0  0  0
  -28.6358  -24.7328   19.7648 H   0  0  0  0  0  0
  -28.5324  -19.6046   18.1476 H   0  0  0  0  0  0
  -30.1918  -25.3520   21.5873 H   0  0  0  0  0  0
  -29.2576  -14.9510   21.9079 H   0  0  0  0  0  0
  -28.3155  -23.6196   22.9472 H   0  0  0  0  0  0
  -28.7756  -23.1545   21.4599 H   0  0  0  0  0  0
  1 25  1  0  0  0
  1 30  2  0  0  0
  1 88  1  0  0  0
  2  3  1  0  0  0
  2 25  1  0  0  0
  2 90  1  0  0  0
  2 91  1  0  0  0
  3  4  1  0  0  0
  3 92  1  0  0  0
  3 93  1  0  0  0
  4  5  1  0  0  0
  4 94  1  0  0  0
  4 95  1  0  0  0
  5  6  1  0  0  0
  5 26  1  0  0  0
  5 96  1  0  0  0
  6 25  1  0  0  0
  6 97  1  0  0  0
  6 98  1  0  0  0
  7  8  2  0  0  0
  7 26  1  0  0  0
  7 29  1  0  0  0
  8  9  1  0  0  0
  8 22  1  0  0  0
  9 10  1  0  0  0
  9 27  2  0  0  0
 10 11  2  0  0  0
 10 15  1  0  0  0
 11 12  1  0  0  0
 11 99  1  0  0  0
 12 13  2  0  0  0
 12100  1  0  0  0
 13 14  1  0  0  0
 13 31  1  0  0  0
 14 15  2  0  0  0
 14101  1  0  0  0
 15102  1  0  0  0
 16 17  2  0  0  0
 16 21  1  0  0  0
 16 31  1  0  0  0
 17 18  1  0  0  0
 17103  1  0  0  0
 18 19  2  0  0  0
 18104  1  0  0  0
 19 20  1  0  0  0
 19 24  1  0  0  0
 20 21  2  0  0  0
 20105  1  0  0  0
 21 23  1  0  0  0
 22 28  1  0  0  0
 22 32  2  0  0  0
 26 27  1  0  0  0
 28106  1  0  0  0
 28107  1  0  0  0
 29108  1  0  0  0
 29109  1  0  0  0
 33 34  1  0  0  0
 33 66  1  0  0  0
 33 70  2  0  0  0
 34 36  1  0  0  0
 34 59  1  0  0  0
 34110  1  0  0  0
 35 44  2  0  0  0
 35 45  1  0  0  0
 35 68  1  0  0  0
 36 56  1  0  0  0
 36111  1  0  0  0
 37 39  1  0  0  0
 37 47  1  0  0  0
 37 66  1  0  0  0
 37112  1  0  0  0
 38 43  2  0  0  0
 38 46  1  0  0  0
 38 47  1  0  0  0
 39 64  1  0  0  0
 39 67  2  0  0  0
 40 52  1  0  0  0
 40 53  2  0  0  0
 40 58  1  0  0  0
 41113  1  0  0  0
 41114  1  0  0  0
 41115  1  0  0  0
 41 48  1  0  0  0
 42 43  1  0  0  0
 42 66  1  0  0  0
 42116  1  0  0  0
 42117  1  0  0  0
 43 44  1  0  0  0
 44118  1  0  0  0
 45 46  2  0  0  0
 45119  1  0  0  0
 46120  1  0  0  0
 47121  1  0  0  0
 47122  1  0  0  0
 48 56  1  0  0  0
 48 65  1  0  0  0
 48123  1  0  0  0
 49 50  1  0  0  0
 49 53  1  0  0  0
 49 64  1  0  0  0
 49124  1  0  0  0
 50 51  1  0  0  0
 50125  1  0  0  0
 50126  1  0  0  0
 51 52  1  0  0  0
 51127  1  0  0  0
 51128  1  0  0  0
 52129  1  0  0  0
 52130  1  0  0  0
 53 54  1  0  0  0
 54 55  2  0  0  0
 54131  1  0  0  0
 55 57  1  0  0  0
 55132  1  0  0  0
 56 69  2  0  0  0
 57 58  2  0  0  0
 57133  1  0  0  0
 58134  1  0  0  0
 59 60  1  0  0  0
 59 61  1  0  0  0
 59 62  1  0  0  0
 60135  1  0  0  0
 60136  1  0  0  0
 60137  1  0  0  0
 61138  1  0  0  0
 61139  1  0  0  0
 61140  1  0  0  0
 62141  1  0  0  0
 62142  1  0  0  0
 62143  1  0  0  0
 63 65  1  0  0  0
 63144  1  0  0  0
 63145  1  0  0  0
 63146  1  0  0  0
 64147  1  0  0  0
 65148  1  0  0  0
 68 84  1  0  0  0
 71 73  1  0  0  0
 71 74  2  0  0  0
 71149  1  0  0  0
 72 73  2  0  0  0
 72 87  1  0  0  0
 72150  1  0  0  0
 73 85  1  0  0  0
 74 78  1  0  0  0
 74 87  1  0  0  0
 75 79  1  0  0  0
 75151  1  0  0  0
 75152  1  0  0  0
 75153  1  0  0  0
 76154  1  0  0  0
 76155  1  0  0  0
 76156  1  0  0  0
 76 85  1  0  0  0
 77157  1  0  0  0
 77158  1  0  0  0
 77159  1  0  0  0
 77 86  1  0  0  0
 78 88  1  0  0  0
 78160  1  0  0  0
 78161  1  0  0  0
 79 85  1  0  0  0
 79162  1  0  0  0
 79163  1  0  0  0
 80 81  1  0  0  0
 80 82  1  0  0  0
 80164  1  0  0  0
 80165  1  0  0  0
 81 83  1  0  0  0
 81166  1  0  0  0
 81167  1  0  0  0
 82 87  1  0  0  0
 82168  1  0  0  0
 82169  1  0  0  0
 83 89  1  0  0  0
 83170  1  0  0  0
 83171  1  0  0  0
 84 86  1  0  0  0
 84172  1  0  0  0
 84173  1  0  0  0
 85174  1  0  0  0
 86 89  1  0  0  0
 86175  1  0  0  0
 88176  1  0  0  0
 89177  1  0  0  0
 89178  1  0  0  0
M  CHG  1  89   1
M  ISO  4   1 100  68 101  84 101  88 100
M  END
> <chiral flag>
0

> <version>
0

> <s_m_source_file>
/data/baiqing/PycharmProjects/Reinvent-master-3.2/result/LINK_invent/BTK/process_docking_weight1_custom_sum_contain_oxygen_bond_distance_aromatic_linkinvent_7_9_3/rearranged_h_0097.sdf

> <i_m_source_file_index>
61

> <r_mmod_Potential_Energy-OPLS-2005>
12.4721574783325

> <r_mmod_Stretch_Energy-OPLS-2005>
37.1728591918945

> <r_mmod_Bend_Energy-OPLS-2005>
325.402557373047

> <r_mmod_Torsional_Energy-OPLS-2005>
238.748031616211

> <r_mmod_Improper_Torsional_Energy-OPLS-2005>
1.89201140403748

> <r_mmod_Van_der_Waal_Energy-OPLS-2005>
146.966461181641

> <r_mmod_Electrostatic_Energy-OPLS-2005>
-294.628845214844

> <r_mmod_Solvation_Energy-OPLS-2005>
-451.554229736328

> <b_mmod_Minimization_Converged-OPLS-2005>
0

> <r_mmod_RMS_Derivative-OPLS-2005>
3.90879011154175

$$$$
62
                    3D
 Structure written by MMmdl.
172180  0  0  1  0            999 V2000
  -30.7082  -14.4816   20.5496 C   0  0  0  0  0  0
  -30.4203  -12.3038   19.4253 C   0  0  0  0  0  0
  -29.4960  -12.4999   18.2066 C   0  0  0  0  0  0
  -28.0151  -12.3655   18.6164 C   0  0  0  0  0  0
  -27.6613  -13.2120   19.8696 C   0  0  2  0  0  0
  -28.7066  -13.0050   20.9916 C   0  0  0  0  0  0
  -25.2593  -13.8179   20.5685 C   0  0  0  0  0  0
  -24.1840  -13.0447   20.9186 C   0  0  0  0  0  0
  -24.6398  -11.6920   20.8733 C   0  0  0  0  0  0
  -23.9060  -10.4300   21.0391 C   0  0  0  0  0  0
  -24.3604   -9.4216   21.9168 C   0  0  0  0  0  0
  -23.6305   -8.2239   22.0732 C   0  0  0  0  0  0
  -22.4288   -8.0264   21.3518 C   0  0  0  0  0  0
  -21.9903   -9.0250   20.4633 C   0  0  0  0  0  0
  -22.7219  -10.2143   20.3053 C   0  0  0  0  0  0
  -21.6859   -6.0730   22.5275 C   0  0  0  0  0  0
  -21.4020   -6.5634   23.8211 C   0  0  0  0  0  0
  -21.3663   -5.6787   24.9169 C   0  0  0  0  0  0
  -21.6059   -4.3047   24.7217 C   0  0  0  0  0  0
  -21.8818   -3.8136   23.4338 C   0  0  0  0  0  0
  -21.9190   -4.6955   22.3396 C   0  0  0  0  0  0
  -22.7861  -13.5251   21.1853 C   0  0  0  0  0  0
  -22.1655   -4.2135   21.0975 F   0  0  0  0  0  0
  -21.5630   -3.4536   25.7729 F   0  0  0  0  0  0
  -30.0373  -13.3032   20.4336 N   0  0  0  0  0  0
  -26.3029  -12.9355   20.3341 N   0  0  0  0  0  0
  -25.9329  -11.6506   20.5755 N   0  0  0  0  0  0
  -22.0498  -12.8250   22.0413 N   0  0  0  0  0  0
  -25.4324  -15.1900   20.4107 N   0  0  0  0  0  0
  -31.8401  -14.6573   20.0975 O   0  0  0  0  0  0
  -21.6646   -6.8873   21.4234 O   0  0  0  0  0  0
  -22.3535  -14.5537   20.6670 O   0  0  0  0  0  0
  -24.6174  -31.8688   23.2101 C   0  0  0  0  0  0
  -25.9052  -32.4832   23.8392 C   0  0  1  0  0  0
  -27.2109  -27.3823   20.0656 C   0  0  0  0  0  0
  -25.5877  -33.8628   24.2291 N   0  0  0  0  0  0
  -23.4062  -30.5023   21.5548 C   0  0  2  0  0  0
  -24.8447  -28.9712   20.1231 C   0  0  0  0  0  0
  -22.7445  -29.4696   22.4970 C   0  0  0  0  0  0
  -18.0272  -28.1378   22.8482 C   0  0  0  0  0  0
  -24.1474  -36.7305   23.2639 C   0  0  0  0  0  0
  -25.9523  -30.8140   21.3804 C   0  0  0  0  0  0
  -26.0216  -29.4522   20.7098 C   0  0  0  0  0  0
  -27.2105  -28.6691   20.6766 C   0  0  0  0  0  0
  -25.9942  -26.9464   19.4777 C   0  0  0  0  0  0
  -24.8260  -27.7133   19.5156 C   0  0  0  0  0  0
  -23.6174  -29.8489   20.1691 C   0  0  0  0  0  0
  -25.4104  -36.3110   24.0325 C   0  0  1  0  0  0
  -20.5873  -28.3667   23.1285 C   0  0  2  0  0  0
  -20.6755  -26.9397   22.5406 C   0  0  0  0  0  0
  -19.5737  -26.6375   21.5194 C   0  0  0  0  0  0
  -18.1921  -26.7914   22.1620 C   0  0  0  0  0  0
  -19.1537  -28.8832   23.2885 C   0  0  0  0  0  0
  -18.9477  -30.1430   23.8898 C   0  0  0  0  0  0
  -17.6496  -30.6589   24.0567 C   0  0  0  0  0  0
  -25.9044  -34.9481   23.5104 C   0  0  0  0  0  0
  -16.5366  -29.9109   23.6319 C   0  0  0  0  0  0
  -16.7271  -28.6523   23.0339 C   0  0  0  0  0  0
  -26.4426  -31.6660   25.0770 C   0  0  0  0  0  0
  -25.3674  -31.3844   26.1530 C   0  0  0  0  0  0
  -27.0238  -30.3064   24.6243 C   0  0  0  0  0  0
  -27.5970  -32.4418   25.7534 C   0  0  0  0  0  0
  -27.5586  -37.1822   24.8463 C   0  0  0  0  0  0
  -21.4164  -29.3054   22.3710 N   0  0  0  0  0  0
  -26.4293  -37.3801   23.9412 N   0  0  0  0  0  0
  -24.6774  -31.0775   22.1041 N   0  0  0  0  0  0
  -23.4211  -28.8199   23.2980 O   0  0  0  0  0  0
  -28.3443  -26.5623   20.0645 O   0  0  0  0  0  0
  -26.5642  -34.8940   22.4692 O   0  0  0  0  0  0
  -23.5355  -32.1464   23.7473 O   0  0  0  0  0  0
  -30.8588  -21.3411   20.1412 C   0  0  0  0  0  0
  -29.0139  -20.1212   19.9554 C   0  0  0  0  0  0
  -29.4567  -21.4221   19.9127 C   0  0  0  0  0  0
  -31.2347  -20.0202   20.1789 C   0  0  0  0  0  0
  -33.9730  -20.6998   16.7739 C   0  0  0  0  0  0
  -28.1470  -22.4750   18.1066 C   0  0  0  0  0  0
  -33.1996  -19.5820   21.6663 C   0  0  0  0  0  0
  -33.0490  -19.9744   17.7581 C   0  0  0  0  0  0
  -33.5703  -20.0482   19.2065 C   0  0  0  0  0  0
  -29.1801  -24.0661   19.8592 C   0  0  0  0  0  0
  -29.9624  -17.7757   19.9245 C   0  0  0  0  0  0
  -30.4259  -16.9227   21.1390 C   0  0  0  0  0  0
  -28.1283  -25.1920   19.6105 C   0  0  0  0  0  0
  -28.5888  -22.6350   19.5723 C   0  0  2  0  0  0
  -32.6182  -19.4364   20.2526 C   0  0  2  0  0  0
  -30.0840  -19.2436   20.0631 N   0  0  0  0  0  0
  -29.9998  -15.5109   21.0520 N   0  0  0  0  0  0
  -31.4669  -12.3896   19.1266 H   0  0  0  0  0  0
  -30.3079  -11.2954   19.8279 H   0  0  0  0  0  0
  -29.7408  -11.7746   17.4289 H   0  0  0  0  0  0
  -29.6655  -13.4859   17.7733 H   0  0  0  0  0  0
  -27.8252  -11.3115   18.8174 H   0  0  0  0  0  0
  -27.3654  -12.6327   17.7824 H   0  0  0  0  0  0
  -27.7005  -14.2588   19.5633 H   0  0  0  0  0  0
  -28.6798  -11.9749   21.3513 H   0  0  0  0  0  0
  -28.4723  -13.6224   21.8599 H   0  0  0  0  0  0
  -25.2751   -9.5711   22.4733 H   0  0  0  0  0  0
  -24.0022   -7.4640   22.7454 H   0  0  0  0  0  0
  -21.0821   -8.8771   19.8967 H   0  0  0  0  0  0
  -22.3661  -10.9673   19.6159 H   0  0  0  0  0  0
  -21.2019   -7.6139   23.9717 H   0  0  0  0  0  0
  -21.1493   -6.0504   25.9076 H   0  0  0  0  0  0
  -22.0598   -2.7594   23.2838 H   0  0  0  0  0  0
  -22.4111  -11.9933   22.4838 H   0  0  0  0  0  0
  -21.1108  -13.1278   22.2614 H   0  0  0  0  0  0
  -24.6696  -15.8474   20.5332 H   0  0  0  0  0  0
  -26.2856  -15.6268   20.0865 H   0  0  0  0  0  0
  -26.7128  -32.5517   23.1162 H   0  0  0  0  0  0
  -24.9955  -33.9750   25.0373 H   0  0  0  0  0  0
  -22.6993  -31.3233   21.4171 H   0  0  0  0  0  0
  -23.3736  -35.9640   23.3318 H   0  0  0  0  0  0
  -24.3566  -36.8910   22.2053 H   0  0  0  0  0  0
  -23.7225  -37.6507   23.6656 H   0  0  0  0  0  0
  -26.0990  -31.5883   20.6264 H   0  0  0  0  0  0
  -26.8264  -30.8387   22.0206 H   0  0  0  0  0  0
  -28.1172  -29.0448   21.1313 H   0  0  0  0  0  0
  -25.8829  -25.9968   18.9797 H   0  0  0  0  0  0
  -23.9187  -27.3191   19.0797 H   0  0  0  0  0  0
  -23.7521  -30.6287   19.4191 H   0  0  0  0  0  0
  -22.7335  -29.2901   19.8537 H   0  0  0  0  0  0
  -25.1294  -36.1959   25.0820 H   0  0  0  0  0  0
  -20.9963  -28.3229   24.1402 H   0  0  0  0  0  0
  -20.5583  -26.2300   23.3614 H   0  0  0  0  0  0
  -21.6642  -26.7395   22.1253 H   0  0  0  0  0  0
  -19.6892  -25.6282   21.1227 H   0  0  0  0  0  0
  -19.6654  -27.3179   20.6720 H   0  0  0  0  0  0
  -17.4184  -26.6630   21.4035 H   0  0  0  0  0  0
  -18.0352  -26.0052   22.9022 H   0  0  0  0  0  0
  -19.7971  -30.7234   24.2268 H   0  0  0  0  0  0
  -17.5064  -31.6259   24.5200 H   0  0  0  0  0  0
  -15.5376  -30.3038   23.7618 H   0  0  0  0  0  0
  -15.8668  -28.0855   22.7039 H   0  0  0  0  0  0
  -24.5770  -30.7258   25.7926 H   0  0  0  0  0  0
  -24.8946  -32.3035   26.5010 H   0  0  0  0  0  0
  -25.8012  -30.9011   27.0290 H   0  0  0  0  0  0
  -26.2817  -29.6908   24.1152 H   0  0  0  0  0  0
  -27.3766  -29.7264   25.4781 H   0  0  0  0  0  0
  -27.8764  -30.4325   23.9567 H   0  0  0  0  0  0
  -27.2509  -33.3671   26.2163 H   0  0  0  0  0  0
  -28.3741  -32.7097   25.0362 H   0  0  0  0  0  0
  -28.0678  -31.8546   26.5433 H   0  0  0  0  0  0
  -28.2638  -38.0095   24.7517 H   0  0  0  0  0  0
  -28.1062  -36.2644   24.6280 H   0  0  0  0  0  0
  -27.2324  -37.1457   25.8873 H   0  0  0  0  0  0
  -20.9317  -29.8869   21.7022 H   0  0  0  0  0  0
  -26.0180  -38.2879   24.1418 H   0  0  0  0  0  0
  -31.5441  -22.1770   20.1757 H   0  0  0  0  0  0
  -28.0136  -19.7303   19.8220 H   0  0  0  0  0  0
  -33.5220  -20.7518   15.7823 H   0  0  0  0  0  0
  -34.9330  -20.1925   16.6814 H   0  0  0  0  0  0
  -34.1649  -21.7230   17.0990 H   0  0  0  0  0  0
  -27.7129  -21.4889   17.9384 H   0  0  0  0  0  0
  -28.9952  -22.5705   17.4271 H   0  0  0  0  0  0
  -27.3877  -23.1987   17.8153 H   0  0  0  0  0  0
  -32.5626  -19.0971   22.4069 H   0  0  0  0  0  0
  -33.2913  -20.6321   21.9492 H   0  0  0  0  0  0
  -34.1898  -19.1320   21.7365 H   0  0  0  0  0  0
  -32.9311  -18.9314   17.4608 H   0  0  0  0  0  0
  -32.0573  -20.4220   17.6883 H   0  0  0  0  0  0
  -33.7590  -21.0900   19.4653 H   0  0  0  0  0  0
  -34.5334  -19.5411   19.2645 H   0  0  0  0  0  0
  -29.4929  -24.1130   20.9002 H   0  0  0  0  0  0
  -30.0693  -24.2370   19.2524 H   0  0  0  0  0  0
  -28.9142  -17.5506   19.7262 H   0  0  0  0  0  0
  -30.4979  -17.4749   19.0216 H   0  0  0  0  0  0
  -30.0102  -17.3460   22.0521 H   0  0  0  0  0  0
  -31.5088  -16.9620   21.2587 H   0  0  0  0  0  0
  -27.2305  -24.8100   20.0968 H   0  0  0  0  0  0
  -27.9286  -25.2433   18.5379 H   0  0  0  0  0  0
  -27.6987  -22.5254   20.1912 H   0  0  0  0  0  0
  -32.5808  -18.3749   20.0176 H   0  0  0  0  0  0
  -29.0611  -15.2992   21.3590 H   0  0  0  0  0  0
  1 25  1  0  0  0
  1 30  2  0  0  0
  1 87  1  0  0  0
  2  3  1  0  0  0
  2 25  1  0  0  0
  2 88  1  0  0  0
  2 89  1  0  0  0
  3  4  1  0  0  0
  3 90  1  0  0  0
  3 91  1  0  0  0
  4  5  1  0  0  0
  4 92  1  0  0  0
  4 93  1  0  0  0
  5  6  1  0  0  0
  5 26  1  0  0  0
  5 94  1  0  0  0
  6 25  1  0  0  0
  6 95  1  0  0  0
  6 96  1  0  0  0
  7  8  2  0  0  0
  7 26  1  0  0  0
  7 29  1  0  0  0
  8  9  1  0  0  0
  8 22  1  0  0  0
  9 10  1  0  0  0
  9 27  2  0  0  0
 10 11  2  0  0  0
 10 15  1  0  0  0
 11 12  1  0  0  0
 11 97  1  0  0  0
 12 13  2  0  0  0
 12 98  1  0  0  0
 13 14  1  0  0  0
 13 31  1  0  0  0
 14 15  2  0  0  0
 14 99  1  0  0  0
 15100  1  0  0  0
 16 17  2  0  0  0
 16 21  1  0  0  0
 16 31  1  0  0  0
 17 18  1  0  0  0
 17101  1  0  0  0
 18 19  2  0  0  0
 18102  1  0  0  0
 19 20  1  0  0  0
 19 24  1  0  0  0
 20 21  2  0  0  0
 20103  1  0  0  0
 21 23  1  0  0  0
 22 28  1  0  0  0
 22 32  2  0  0  0
 26 27  1  0  0  0
 28104  1  0  0  0
 28105  1  0  0  0
 29106  1  0  0  0
 29107  1  0  0  0
 33 34  1  0  0  0
 33 66  1  0  0  0
 33 70  2  0  0  0
 34 36  1  0  0  0
 34 59  1  0  0  0
 34108  1  0  0  0
 35 44  2  0  0  0
 35 45  1  0  0  0
 35 68  1  0  0  0
 36 56  1  0  0  0
 36109  1  0  0  0
 37 39  1  0  0  0
 37 47  1  0  0  0
 37 66  1  0  0  0
 37110  1  0  0  0
 38 43  2  0  0  0
 38 46  1  0  0  0
 38 47  1  0  0  0
 39 64  1  0  0  0
 39 67  2  0  0  0
 40 52  1  0  0  0
 40 53  2  0  0  0
 40 58  1  0  0  0
 41111  1  0  0  0
 41112  1  0  0  0
 41113  1  0  0  0
 41 48  1  0  0  0
 42 43  1  0  0  0
 42 66  1  0  0  0
 42114  1  0  0  0
 42115  1  0  0  0
 43 44  1  0  0  0
 44116  1  0  0  0
 45 46  2  0  0  0
 45117  1  0  0  0
 46118  1  0  0  0
 47119  1  0  0  0
 47120  1  0  0  0
 48 56  1  0  0  0
 48 65  1  0  0  0
 48121  1  0  0  0
 49 50  1  0  0  0
 49 53  1  0  0  0
 49 64  1  0  0  0
 49122  1  0  0  0
 50 51  1  0  0  0
 50123  1  0  0  0
 50124  1  0  0  0
 51 52  1  0  0  0
 51125  1  0  0  0
 51126  1  0  0  0
 52127  1  0  0  0
 52128  1  0  0  0
 53 54  1  0  0  0
 54 55  2  0  0  0
 54129  1  0  0  0
 55 57  1  0  0  0
 55130  1  0  0  0
 56 69  2  0  0  0
 57 58  2  0  0  0
 57131  1  0  0  0
 58132  1  0  0  0
 59 60  1  0  0  0
 59 61  1  0  0  0
 59 62  1  0  0  0
 60133  1  0  0  0
 60134  1  0  0  0
 60135  1  0  0  0
 61136  1  0  0  0
 61137  1  0  0  0
 61138  1  0  0  0
 62139  1  0  0  0
 62140  1  0  0  0
 62141  1  0  0  0
 63 65  1  0  0  0
 63142  1  0  0  0
 63143  1  0  0  0
 63144  1  0  0  0
 64145  1  0  0  0
 65146  1  0  0  0
 68 83  1  0  0  0
 71 73  1  0  0  0
 71 74  2  0  0  0
 71147  1  0  0  0
 72 73  2  0  0  0
 72 86  1  0  0  0
 72148  1  0  0  0
 73 84  1  0  0  0
 74 85  1  0  0  0
 74 86  1  0  0  0
 75 78  1  0  0  0
 75149  1  0  0  0
 75150  1  0  0  0
 75151  1  0  0  0
 76152  1  0  0  0
 76153  1  0  0  0
 76154  1  0  0  0
 76 84  1  0  0  0
 77155  1  0  0  0
 77156  1  0  0  0
 77157  1  0  0  0
 77 85  1  0  0  0
 78 79  1  0  0  0
 78158  1  0  0  0
 78159  1  0  0  0
 79 85  1  0  0  0
 79160  1  0  0  0
 79161  1  0  0  0
 80 83  1  0  0  0
 80 84  1  0  0  0
 80162  1  0  0  0
 80163  1  0  0  0
 81 82  1  0  0  0
 81 86  1  0  0  0
 81164  1  0  0  0
 81165  1  0  0  0
 82 87  1  0  0  0
 82166  1  0  0  0
 82167  1  0  0  0
 83168  1  0  0  0
 83169  1  0  0  0
 84170  1  0  0  0
 85171  1  0  0  0
 87172  1  0  0  0
M  ISO  4   1 100  68 101  83 101  87 100
M  END
> <chiral flag>
0

> <version>
0

> <s_m_source_file>
/data/baiqing/PycharmProjects/Reinvent-master-3.2/result/LINK_invent/BTK/process_docking_weight1_custom_sum_contain_oxygen_bond_distance_aromatic_linkinvent_7_9_3/rearranged_h_0097.sdf

> <i_m_source_file_index>
62

> <r_mmod_Potential_Energy-OPLS-2005>
-62.0991134643555

> <r_mmod_Stretch_Energy-OPLS-2005>
46.9192199707031

> <r_mmod_Bend_Energy-OPLS-2005>
121.88419342041

> <r_mmod_Torsional_Energy-OPLS-2005>
218.779190063477

> <r_mmod_Improper_Torsional_Energy-OPLS-2005>
4.58107328414917

> <r_mmod_Van_der_Waal_Energy-OPLS-2005>
136.599349975586

> <r_mmod_Electrostatic_Energy-OPLS-2005>
-409.652648925781

> <r_mmod_Solvation_Energy-OPLS-2005>
-202.455841064453

> <b_mmod_Minimization_Converged-OPLS-2005>
0

> <r_mmod_RMS_Derivative-OPLS-2005>
3.69394969940186

$$$$
63
                    3D
 Structure written by MMmdl.
180188  0  0  1  0            999 V2000
  -30.7428  -14.3878   20.6439 C   0  0  0  0  0  0
  -30.4227  -12.2887   19.3997 C   0  0  0  0  0  0
  -29.4873  -12.5100   18.1925 C   0  0  0  0  0  0
  -28.0067  -12.3916   18.6094 C   0  0  0  0  0  0
  -27.6685  -13.2054   19.8873 C   0  0  2  0  0  0
  -28.7083  -12.9204   20.9919 C   0  0  0  0  0  0
  -25.2613  -13.8169   20.5687 C   0  0  0  0  0  0
  -24.1853  -13.0441   20.9204 C   0  0  0  0  0  0
  -24.6417  -11.6934   20.8769 C   0  0  0  0  0  0
  -23.9074  -10.4307   21.0412 C   0  0  0  0  0  0
  -24.3636   -9.4207   21.9178 C   0  0  0  0  0  0
  -23.6317   -8.2239   22.0751 C   0  0  0  0  0  0
  -22.4290   -8.0284   21.3545 C   0  0  0  0  0  0
  -21.9931   -9.0256   20.4637 C   0  0  0  0  0  0
  -22.7262  -10.2137   20.3047 C   0  0  0  0  0  0
  -21.6863   -6.0751   22.5293 C   0  0  0  0  0  0
  -21.4012   -6.5651   23.8225 C   0  0  0  0  0  0
  -21.3650   -5.6797   24.9185 C   0  0  0  0  0  0
  -21.6034   -4.3063   24.7230 C   0  0  0  0  0  0
  -21.8820   -3.8160   23.4354 C   0  0  0  0  0  0
  -21.9199   -4.6978   22.3412 C   0  0  0  0  0  0
  -22.7869  -13.5241   21.1850 C   0  0  0  0  0  0
  -22.1688   -4.2176   21.0994 F   0  0  0  0  0  0
  -21.5613   -3.4535   25.7733 F   0  0  0  0  0  0
  -30.0425  -13.2377   20.4561 N   0  0  0  0  0  0
  -26.3069  -12.9342   20.3465 N   0  0  0  0  0  0
  -25.9333  -11.6497   20.5813 N   0  0  0  0  0  0
  -22.0501  -12.8205   22.0389 N   0  0  0  0  0  0
  -25.4263  -15.1869   20.4014 N   0  0  0  0  0  0
  -31.8279  -14.6150   20.1062 O   0  0  0  0  0  0
  -21.6638   -6.8896   21.4260 O   0  0  0  0  0  0
  -22.3541  -14.5553   20.6714 O   0  0  0  0  0  0
  -24.6079  -31.8723   23.2111 C   0  0  0  0  0  0
  -25.9006  -32.4842   23.8411 C   0  0  1  0  0  0
  -27.2435  -27.4767   20.0770 C   0  0  0  0  0  0
  -25.5885  -33.8632   24.2326 N   0  0  0  0  0  0
  -23.3930  -30.4917   21.5553 C   0  0  2  0  0  0
  -24.8398  -28.9577   20.1234 C   0  0  0  0  0  0
  -22.7360  -29.4654   22.5055 C   0  0  0  0  0  0
  -18.0249  -28.1374   22.8495 C   0  0  0  0  0  0
  -24.1488  -36.7335   23.2632 C   0  0  0  0  0  0
  -25.9162  -30.8454   21.3605 C   0  0  0  0  0  0
  -25.9975  -29.4791   20.7160 C   0  0  0  0  0  0
  -27.1989  -28.7421   20.6961 C   0  0  0  0  0  0
  -26.0682  -26.9594   19.4863 C   0  0  0  0  0  0
  -24.8673  -27.6911   19.5149 C   0  0  0  0  0  0
  -23.5999  -29.8196   20.1706 C   0  0  0  0  0  0
  -25.4102  -36.3121   24.0323 C   0  0  1  0  0  0
  -20.5820  -28.3631   23.1372 C   0  0  2  0  0  0
  -20.6744  -26.9389   22.5433 C   0  0  0  0  0  0
  -19.5728  -26.6383   21.5224 C   0  0  0  0  0  0
  -18.1899  -26.7915   22.1629 C   0  0  0  0  0  0
  -19.1497  -28.8813   23.2930 C   0  0  0  0  0  0
  -18.9436  -30.1423   23.8932 C   0  0  0  0  0  0
  -17.6443  -30.6592   24.0561 C   0  0  0  0  0  0
  -25.9027  -34.9492   23.5120 C   0  0  0  0  0  0
  -16.5334  -29.9092   23.6321 C   0  0  0  0  0  0
  -16.7238  -28.6506   23.0348 C   0  0  0  0  0  0
  -26.4460  -31.6610   25.0721 C   0  0  0  0  0  0
  -25.3716  -31.3724   26.1461 C   0  0  0  0  0  0
  -27.0278  -30.3060   24.6056 C   0  0  0  0  0  0
  -27.6040  -32.4324   25.7489 C   0  0  0  0  0  0
  -27.5580  -37.1812   24.8456 C   0  0  0  0  0  0
  -21.4091  -29.3014   22.3789 N   0  0  0  0  0  0
  -26.4292  -37.3805   23.9398 N   0  0  0  0  0  0
  -24.6574  -31.0816   22.1029 N   0  0  0  0  0  0
  -23.4152  -28.8184   23.3074 O   0  0  0  0  0  0
  -28.4570  -26.8335   20.0146 O   0  0  0  0  0  0
  -26.5605  -34.8931   22.4684 O   0  0  0  0  0  0
  -23.5291  -32.1486   23.7510 O   0  0  0  0  0  0
  -27.3900  -21.2667   23.7602 C   0  0  0  0  0  0
  -27.4385  -19.8971   23.7798 C   0  0  0  0  0  0
  -28.1322  -20.5905   21.7735 C   0  0  0  0  0  0
  -26.3973  -19.9061   19.3841 C   0  0  0  0  0  0
  -30.1799  -20.1893   20.3842 C   0  0  0  0  0  0
  -30.7377  -25.5627   21.3362 C   0  0  0  0  0  0
  -27.0810  -18.8844   24.8210 C   0  0  0  0  0  0
  -27.8852  -19.5394   19.4799 C   0  0  0  0  0  0
  -29.2499  -23.5752   21.7305 C   0  0  0  0  0  0
  -28.4412  -16.1751   22.8573 C   0  0  0  0  0  0
  -27.8311  -23.0471   22.0152 C   0  0  0  0  0  0
  -29.8499  -15.6001   22.6223 C   0  0  0  0  0  0
  -28.3032  -16.8815   24.2122 C   0  0  0  0  0  0
  -28.4995  -25.4159   20.1095 C   0  0  0  0  0  0
  -28.6758  -20.5152   20.3718 C   0  0  1  0  0  0
  -29.2805  -25.0762   21.3966 C   0  0  2  0  0  0
  -27.8045  -21.6672   22.5113 N   0  0  0  0  0  0
  -27.9031  -19.5320   22.5478 N   0  3  0  0  0  0
  -30.0771  -15.4082   21.1915 N   0  0  0  0  0  0
  -27.0022  -17.5395   24.2574 N   0  0  0  0  0  0
  -31.4635  -12.4026   19.0889 H   0  0  0  0  0  0
  -30.3319  -11.2654   19.7646 H   0  0  0  0  0  0
  -29.7091  -11.7852   17.4085 H   0  0  0  0  0  0
  -29.6700  -13.4954   17.7580 H   0  0  0  0  0  0
  -27.8031  -11.3353   18.7884 H   0  0  0  0  0  0
  -27.3549  -12.6936   17.7882 H   0  0  0  0  0  0
  -27.7310  -14.2641   19.6365 H   0  0  0  0  0  0
  -28.6715  -11.8698   21.2847 H   0  0  0  0  0  0
  -28.4674  -13.4708   21.8952 H   0  0  0  0  0  0
  -25.2799   -9.5679   22.4717 H   0  0  0  0  0  0
  -24.0041   -7.4633   22.7486 H   0  0  0  0  0  0
  -21.0858   -8.8785   19.8932 H   0  0  0  0  0  0
  -22.3760  -10.9667   19.6134 H   0  0  0  0  0  0
  -21.2016   -7.6161   23.9743 H   0  0  0  0  0  0
  -21.1465   -6.0525   25.9090 H   0  0  0  0  0  0
  -22.0600   -2.7617   23.2852 H   0  0  0  0  0  0
  -22.4097  -11.9903   22.4873 H   0  0  0  0  0  0
  -21.1060  -13.1175   22.2446 H   0  0  0  0  0  0
  -24.6541  -15.8379   20.4890 H   0  0  0  0  0  0
  -26.2940  -15.6305   20.1306 H   0  0  0  0  0  0
  -26.7064  -32.5586   23.1180 H   0  0  0  0  0  0
  -25.0041  -33.9819   25.0474 H   0  0  0  0  0  0
  -22.6814  -31.3077   21.4154 H   0  0  0  0  0  0
  -23.3753  -35.9680   23.3308 H   0  0  0  0  0  0
  -24.3585  -36.8938   22.2053 H   0  0  0  0  0  0
  -23.7242  -37.6529   23.6652 H   0  0  0  0  0  0
  -26.0037  -31.6044   20.5822 H   0  0  0  0  0  0
  -26.8135  -30.9156   21.9629 H   0  0  0  0  0  0
  -28.0979  -29.1384   21.1502 H   0  0  0  0  0  0
  -26.0744  -26.0123   18.9684 H   0  0  0  0  0  0
  -23.9803  -27.2825   19.0508 H   0  0  0  0  0  0
  -23.6976  -30.5959   19.4094 H   0  0  0  0  0  0
  -22.7284  -29.2301   19.8764 H   0  0  0  0  0  0
  -25.1281  -36.2010   25.0821 H   0  0  0  0  0  0
  -20.9894  -28.3187   24.1499 H   0  0  0  0  0  0
  -20.5658  -26.2237   23.3598 H   0  0  0  0  0  0
  -21.6620  -26.7463   22.1222 H   0  0  0  0  0  0
  -19.6899  -25.6295   21.1242 H   0  0  0  0  0  0
  -19.6676  -27.3208   20.6763 H   0  0  0  0  0  0
  -17.4167  -26.6670   21.4038 H   0  0  0  0  0  0
  -18.0306  -26.0063   22.9029 H   0  0  0  0  0  0
  -19.7926  -30.7225   24.2347 H   0  0  0  0  0  0
  -17.5010  -31.6285   24.5149 H   0  0  0  0  0  0
  -15.5338  -30.3015   23.7627 H   0  0  0  0  0  0
  -15.8639  -28.0837   22.7059 H   0  0  0  0  0  0
  -24.5893  -30.7071   25.7782 H   0  0  0  0  0  0
  -24.8910  -32.2893   26.4895 H   0  0  0  0  0  0
  -25.8057  -30.8896   27.0225 H   0  0  0  0  0  0
  -26.2809  -29.6846   24.1094 H   0  0  0  0  0  0
  -27.4045  -29.7267   25.4494 H   0  0  0  0  0  0
  -27.8651  -30.4382   23.9190 H   0  0  0  0  0  0
  -27.2661  -33.3612   26.2105 H   0  0  0  0  0  0
  -28.3853  -32.6897   25.0321 H   0  0  0  0  0  0
  -28.0716  -31.8424   26.5383 H   0  0  0  0  0  0
  -28.2587  -38.0118   24.7525 H   0  0  0  0  0  0
  -28.1080  -36.2649   24.6262 H   0  0  0  0  0  0
  -27.2303  -37.1440   25.8857 H   0  0  0  0  0  0
  -20.9229  -29.8753   21.7037 H   0  0  0  0  0  0
  -26.0196  -38.2885   24.1412 H   0  0  0  0  0  0
  -27.0765  -21.9627   24.5266 H   0  0  0  0  0  0
  -25.8830  -19.2716   18.6622 H   0  0  0  0  0  0
  -26.2687  -20.9422   19.0660 H   0  0  0  0  0  0
  -25.8946  -19.7928   20.3452 H   0  0  0  0  0  0
  -30.7323  -20.9052   20.9947 H   0  0  0  0  0  0
  -30.6007  -20.2313   19.3794 H   0  0  0  0  0  0
  -30.3795  -19.1962   20.7878 H   0  0  0  0  0  0
  -31.3159  -24.9910   20.6089 H   0  0  0  0  0  0
  -31.2203  -25.4492   22.3078 H   0  0  0  0  0  0
  -30.8066  -26.6170   21.0650 H   0  0  0  0  0  0
  -26.1102  -19.1587   25.2353 H   0  0  0  0  0  0
  -27.7971  -18.9222   25.6429 H   0  0  0  0  0  0
  -28.3135  -19.5508   18.4766 H   0  0  0  0  0  0
  -27.9911  -18.5144   19.8385 H   0  0  0  0  0  0
  -29.7154  -23.0306   20.9119 H   0  0  0  0  0  0
  -29.8761  -23.3819   22.6028 H   0  0  0  0  0  0
  -27.6918  -15.3888   22.7706 H   0  0  0  0  0  0
  -28.2074  -16.8782   22.0566 H   0  0  0  0  0  0
  -27.1949  -23.0839   21.1295 H   0  0  0  0  0  0
  -27.3550  -23.6734   22.7701 H   0  0  0  0  0  0
  -30.0075  -14.6850   23.1997 H   0  0  0  0  0  0
  -30.5994  -16.3135   22.9737 H   0  0  0  0  0  0
  -29.1136  -17.6082   24.3186 H   0  0  0  0  0  0
  -28.3957  -16.1831   25.0447 H   0  0  0  0  0  0
  -27.5086  -24.9733   20.1576 H   0  0  0  0  0  0
  -28.9820  -25.0016   19.2231 H   0  0  0  0  0  0
  -28.5413  -21.5011   19.9336 H   0  0  0  0  0  0
  -28.7904  -25.6075   22.2135 H   0  0  0  0  0  0
  -28.0119  -18.5648   22.2709 H   0  0  0  0  0  0
  -30.3936  -16.2679   20.7673 H   0  0  0  0  0  0
  -26.3234  -16.9909   24.7819 H   0  0  0  0  0  0
  1 25  1  0  0  0
  1 30  2  0  0  0
  1 89  1  0  0  0
  2  3  1  0  0  0
  2 25  1  0  0  0
  2 91  1  0  0  0
  2 92  1  0  0  0
  3  4  1  0  0  0
  3 93  1  0  0  0
  3 94  1  0  0  0
  4  5  1  0  0  0
  4 95  1  0  0  0
  4 96  1  0  0  0
  5  6  1  0  0  0
  5 26  1  0  0  0
  5 97  1  0  0  0
  6 25  1  0  0  0
  6 98  1  0  0  0
  6 99  1  0  0  0
  7  8  2  0  0  0
  7 26  1  0  0  0
  7 29  1  0  0  0
  8  9  1  0  0  0
  8 22  1  0  0  0
  9 10  1  0  0  0
  9 27  2  0  0  0
 10 11  2  0  0  0
 10 15  1  0  0  0
 11 12  1  0  0  0
 11100  1  0  0  0
 12 13  2  0  0  0
 12101  1  0  0  0
 13 14  1  0  0  0
 13 31  1  0  0  0
 14 15  2  0  0  0
 14102  1  0  0  0
 15103  1  0  0  0
 16 17  2  0  0  0
 16 21  1  0  0  0
 16 31  1  0  0  0
 17 18  1  0  0  0
 17104  1  0  0  0
 18 19  2  0  0  0
 18105  1  0  0  0
 19 20  1  0  0  0
 19 24  1  0  0  0
 20 21  2  0  0  0
 20106  1  0  0  0
 21 23  1  0  0  0
 22 28  1  0  0  0
 22 32  2  0  0  0
 26 27  1  0  0  0
 28107  1  0  0  0
 28108  1  0  0  0
 29109  1  0  0  0
 29110  1  0  0  0
 33 34  1  0  0  0
 33 66  1  0  0  0
 33 70  2  0  0  0
 34 36  1  0  0  0
 34 59  1  0  0  0
 34111  1  0  0  0
 35 44  2  0  0  0
 35 45  1  0  0  0
 35 68  1  0  0  0
 36 56  1  0  0  0
 36112  1  0  0  0
 37 39  1  0  0  0
 37 47  1  0  0  0
 37 66  1  0  0  0
 37113  1  0  0  0
 38 43  2  0  0  0
 38 46  1  0  0  0
 38 47  1  0  0  0
 39 64  1  0  0  0
 39 67  2  0  0  0
 40 52  1  0  0  0
 40 53  2  0  0  0
 40 58  1  0  0  0
 41114  1  0  0  0
 41115  1  0  0  0
 41116  1  0  0  0
 41 48  1  0  0  0
 42 43  1  0  0  0
 42 66  1  0  0  0
 42117  1  0  0  0
 42118  1  0  0  0
 43 44  1  0  0  0
 44119  1  0  0  0
 45 46  2  0  0  0
 45120  1  0  0  0
 46121  1  0  0  0
 47122  1  0  0  0
 47123  1  0  0  0
 48 56  1  0  0  0
 48 65  1  0  0  0
 48124  1  0  0  0
 49 50  1  0  0  0
 49 53  1  0  0  0
 49 64  1  0  0  0
 49125  1  0  0  0
 50 51  1  0  0  0
 50126  1  0  0  0
 50127  1  0  0  0
 51 52  1  0  0  0
 51128  1  0  0  0
 51129  1  0  0  0
 52130  1  0  0  0
 52131  1  0  0  0
 53 54  1  0  0  0
 54 55  2  0  0  0
 54132  1  0  0  0
 55 57  1  0  0  0
 55133  1  0  0  0
 56 69  2  0  0  0
 57 58  2  0  0  0
 57134  1  0  0  0
 58135  1  0  0  0
 59 60  1  0  0  0
 59 61  1  0  0  0
 59 62  1  0  0  0
 60136  1  0  0  0
 60137  1  0  0  0
 60138  1  0  0  0
 61139  1  0  0  0
 61140  1  0  0  0
 61141  1  0  0  0
 62142  1  0  0  0
 62143  1  0  0  0
 62144  1  0  0  0
 63 65  1  0  0  0
 63145  1  0  0  0
 63146  1  0  0  0
 63147  1  0  0  0
 64148  1  0  0  0
 65149  1  0  0  0
 68 84  1  0  0  0
 71 72  2  0  0  0
 71 87  1  0  0  0
 71150  1  0  0  0
 72 77  1  0  0  0
 72 88  1  0  0  0
 73 85  1  0  0  0
 73 87  1  0  0  0
 73 88  2  0  0  0
 74 78  1  0  0  0
 74151  1  0  0  0
 74152  1  0  0  0
 74153  1  0  0  0
 75154  1  0  0  0
 75155  1  0  0  0
 75156  1  0  0  0
 75 85  1  0  0  0
 76157  1  0  0  0
 76158  1  0  0  0
 76159  1  0  0  0
 76 86  1  0  0  0
 77 90  1  0  0  0
 77160  1  0  0  0
 77161  1  0  0  0
 78 85  1  0  0  0
 78162  1  0  0  0
 78163  1  0  0  0
 79 81  1  0  0  0
 79 86  1  0  0  0
 79164  1  0  0  0
 79165  1  0  0  0
 80 82  1  0  0  0
 80 83  1  0  0  0
 80166  1  0  0  0
 80167  1  0  0  0
 81 87  1  0  0  0
 81168  1  0  0  0
 81169  1  0  0  0
 82 89  1  0  0  0
 82170  1  0  0  0
 82171  1  0  0  0
 83 90  1  0  0  0
 83172  1  0  0  0
 83173  1  0  0  0
 84 86  1  0  0  0
 84174  1  0  0  0
 84175  1  0  0  0
 85176  1  0  0  0
 86177  1  0  0  0
 88178  1  0  0  0
 89179  1  0  0  0
 90180  1  0  0  0
M  CHG  1  88   1
M  ISO  4   1 100  68 101  84 101  89 100
M  END
> <chiral flag>
0

> <version>
0

> <s_m_source_file>
/data/baiqing/PycharmProjects/Reinvent-master-3.2/result/LINK_invent/BTK/process_docking_weight1_custom_sum_contain_oxygen_bond_distance_aromatic_linkinvent_7_9_3/rearranged_h_0097.sdf

> <i_m_source_file_index>
63

> <r_mmod_Potential_Energy-OPLS-2005>
-31.1539630889893

> <r_mmod_Stretch_Energy-OPLS-2005>
31.3671474456787

> <r_mmod_Bend_Energy-OPLS-2005>
111.912712097168

> <r_mmod_Torsional_Energy-OPLS-2005>
305.791381835938

> <r_mmod_Improper_Torsional_Energy-OPLS-2005>
11.7880601882935

> <r_mmod_Van_der_Waal_Energy-OPLS-2005>
126.737831115723

> <r_mmod_Electrostatic_Energy-OPLS-2005>
-233.342224121094

> <r_mmod_Solvation_Energy-OPLS-2005>
-393.883239746094

> <b_mmod_Minimization_Converged-OPLS-2005>
0

> <r_mmod_RMS_Derivative-OPLS-2005>
3.95463943481445

$$$$
64
                    3D
 Structure written by MMmdl.
173181  0  0  1  0            999 V2000
  -30.6687  -14.6152   20.5653 C   0  0  0  0  0  0
  -30.4212  -12.3867   19.4717 C   0  0  0  0  0  0
  -29.5071  -12.5224   18.2355 C   0  0  0  0  0  0
  -28.0286  -12.3667   18.6332 C   0  0  0  0  0  0
  -27.6519  -13.2225   19.8718 C   0  0  2  0  0  0
  -28.6922  -13.0796   21.0080 C   0  0  0  0  0  0
  -25.2468  -13.8050   20.5635 C   0  0  0  0  0  0
  -24.1781  -13.0345   20.9172 C   0  0  0  0  0  0
  -24.6395  -11.6840   20.8727 C   0  0  0  0  0  0
  -23.9075  -10.4253   21.0408 C   0  0  0  0  0  0
  -24.3623   -9.4169   21.9185 C   0  0  0  0  0  0
  -23.6288   -8.2218   22.0767 C   0  0  0  0  0  0
  -22.4279   -8.0266   21.3541 C   0  0  0  0  0  0
  -21.9920   -9.0242   20.4635 C   0  0  0  0  0  0
  -22.7255  -10.2111   20.3048 C   0  0  0  0  0  0
  -21.6841   -6.0726   22.5275 C   0  0  0  0  0  0
  -21.4006   -6.5628   23.8198 C   0  0  0  0  0  0
  -21.3659   -5.6795   24.9170 C   0  0  0  0  0  0
  -21.6052   -4.3059   24.7220 C   0  0  0  0  0  0
  -21.8824   -3.8139   23.4345 C   0  0  0  0  0  0
  -21.9194   -4.6958   22.3403 C   0  0  0  0  0  0
  -22.7820  -13.5166   21.1836 C   0  0  0  0  0  0
  -22.1672   -4.2140   21.0989 F   0  0  0  0  0  0
  -21.5638   -3.4556   25.7741 F   0  0  0  0  0  0
  -30.0127  -13.4126   20.4562 N   0  0  0  0  0  0
  -26.2967  -12.9324   20.3330 N   0  0  0  0  0  0
  -25.9337  -11.6470   20.5757 N   0  0  0  0  0  0
  -22.0478  -12.8167   22.0398 N   0  0  0  0  0  0
  -25.4042  -15.1719   20.3957 N   0  0  0  0  0  0
  -31.7605  -14.7664   20.0109 O   0  0  0  0  0  0
  -21.6626   -6.8881   21.4247 O   0  0  0  0  0  0
  -22.3508  -14.5506   20.6738 O   0  0  0  0  0  0
  -24.6246  -31.8633   23.2063 C   0  0  0  0  0  0
  -25.9113  -32.4805   23.8394 C   0  0  1  0  0  0
  -27.2276  -27.3526   20.1020 C   0  0  0  0  0  0
  -25.5969  -33.8601   24.2342 N   0  0  0  0  0  0
  -23.4147  -30.4883   21.5492 C   0  0  2  0  0  0
  -24.8558  -28.9405   20.1171 C   0  0  0  0  0  0
  -22.7452  -29.4647   22.4957 C   0  0  0  0  0  0
  -18.0291  -28.1393   22.8470 C   0  0  0  0  0  0
  -24.1500  -36.7291   23.2631 C   0  0  0  0  0  0
  -25.9505  -30.8034   21.3672 C   0  0  0  0  0  0
  -26.0224  -29.4305   20.7145 C   0  0  0  0  0  0
  -27.2055  -28.6438   20.7037 C   0  0  0  0  0  0
  -26.0265  -26.8871   19.5184 C   0  0  0  0  0  0
  -24.8546  -27.6683   19.5222 C   0  0  0  0  0  0
  -23.6271  -29.8234   20.1632 C   0  0  0  0  0  0
  -25.4123  -36.3101   24.0332 C   0  0  1  0  0  0
  -20.5877  -28.3707   23.1284 C   0  0  2  0  0  0
  -20.6803  -26.9442   22.5400 C   0  0  0  0  0  0
  -19.5798  -26.6385   21.5196 C   0  0  0  0  0  0
  -18.1956  -26.7945   22.1588 C   0  0  0  0  0  0
  -19.1534  -28.8861   23.2879 C   0  0  0  0  0  0
  -18.9457  -30.1455   23.8914 C   0  0  0  0  0  0
  -17.6459  -30.6599   24.0558 C   0  0  0  0  0  0
  -25.9051  -34.9462   23.5120 C   0  0  0  0  0  0
  -16.5353  -29.9098   23.6316 C   0  0  0  0  0  0
  -16.7272  -28.6500   23.0362 C   0  0  0  0  0  0
  -26.4526  -31.6605   25.0740 C   0  0  0  0  0  0
  -25.3770  -31.3648   26.1451 C   0  0  0  0  0  0
  -27.0378  -30.3082   24.6090 C   0  0  0  0  0  0
  -27.6125  -32.4300   25.7514 C   0  0  0  0  0  0
  -27.5587  -37.1806   24.8467 C   0  0  0  0  0  0
  -21.4173  -29.3066   22.3685 N   0  0  0  0  0  0
  -26.4321  -37.3784   23.9397 N   0  0  0  0  0  0
  -24.6822  -31.0664   22.1002 N   0  0  0  0  0  0
  -23.4180  -28.8182   23.3020 O   0  0  0  0  0  0
  -28.3914  -26.5810   20.1515 O   0  0  0  0  0  0
  -26.5579  -34.8914   22.4658 O   0  0  0  0  0  0
  -23.5424  -32.1413   23.7420 O   0  0  0  0  0  0
  -29.4320  -23.0258   17.7684 C   0  0  0  0  0  0
  -29.1854  -22.7636   19.1347 C   0  0  0  0  0  0
  -29.9544  -20.8187   17.3715 C   0  0  0  0  0  0
  -29.6978  -20.4709   18.7368 C   0  0  0  0  0  0
  -29.0107  -19.2041   15.6409 C   0  0  0  0  0  0
  -26.2587  -18.2417   19.8919 C   0  0  0  0  0  0
  -26.0442  -18.7142   22.3545 C   0  0  0  0  0  0
  -28.7581  -23.9608   20.0505 C   0  0  0  0  0  0
  -30.2739  -19.8240   16.2580 C   0  0  0  0  0  0
  -29.6370  -18.9385   19.0914 C   0  0  0  0  0  0
  -30.1377  -15.8555   21.3883 C   0  0  0  0  0  0
  -27.9933  -17.2570   21.5851 C   0  0  0  0  0  0
  -28.5786  -25.3771   19.3413 C   0  0  0  0  0  0
  -27.0341  -18.4280   21.2123 C   0  0  0  0  0  0
  -29.2587  -17.0134   20.7029 C   0  0  1  0  0  0
  -29.8188  -22.0757   16.9032 N   0  0  0  0  0  0
  -29.3178  -21.4671   19.6248 N   0  0  0  0  0  0
  -29.9234  -18.3616   20.4465 N   0  3  0  0  0  0
  -31.4695  -12.4738   19.1819 H   0  0  0  0  0  0
  -30.3256  -11.3926   19.9121 H   0  0  0  0  0  0
  -29.7734  -11.7797   17.4823 H   0  0  0  0  0  0
  -29.6611  -13.4983   17.7715 H   0  0  0  0  0  0
  -27.8463  -11.3122   18.8422 H   0  0  0  0  0  0
  -27.3894  -12.6240   17.7887 H   0  0  0  0  0  0
  -27.6701  -14.2616   19.5435 H   0  0  0  0  0  0
  -28.6968  -12.0594   21.3966 H   0  0  0  0  0  0
  -28.4180  -13.7128   21.8516 H   0  0  0  0  0  0
  -25.2777   -9.5663   22.4744 H   0  0  0  0  0  0
  -23.9994   -7.4626   22.7513 H   0  0  0  0  0  0
  -21.0861   -8.8776   19.8924 H   0  0  0  0  0  0
  -22.3737  -10.9664   19.6156 H   0  0  0  0  0  0
  -21.1984   -7.6125   23.9703 H   0  0  0  0  0  0
  -21.1486   -6.0515   25.9070 H   0  0  0  0  0  0
  -22.0606   -2.7595   23.2848 H   0  0  0  0  0  0
  -22.4120  -11.9799   22.4712 H   0  0  0  0  0  0
  -21.1093  -13.1180   22.2634 H   0  0  0  0  0  0
  -24.6314  -15.8135   20.5280 H   0  0  0  0  0  0
  -26.2374  -15.6236   20.0526 H   0  0  0  0  0  0
  -26.7171  -32.5489   23.1142 H   0  0  0  0  0  0
  -25.0252  -33.9776   25.0582 H   0  0  0  0  0  0
  -22.7072  -31.3074   21.4089 H   0  0  0  0  0  0
  -23.3787  -35.9600   23.3290 H   0  0  0  0  0  0
  -24.3586  -36.8910   22.2044 H   0  0  0  0  0  0
  -23.7227  -37.6482   23.6650 H   0  0  0  0  0  0
  -26.0637  -31.5613   20.5904 H   0  0  0  0  0  0
  -26.8385  -30.8615   21.9848 H   0  0  0  0  0  0
  -28.1041  -29.0181   21.1742 H   0  0  0  0  0  0
  -25.9473  -25.9022   19.0846 H   0  0  0  0  0  0
  -23.9481  -27.2740   19.0838 H   0  0  0  0  0  0
  -23.7579  -30.6030   19.4116 H   0  0  0  0  0  0
  -22.7447  -29.2601   19.8558 H   0  0  0  0  0  0
  -25.1298  -36.1972   25.0833 H   0  0  0  0  0  0
  -20.9955  -28.3287   24.1410 H   0  0  0  0  0  0
  -20.5728  -26.2309   23.3581 H   0  0  0  0  0  0
  -21.6672  -26.7503   22.1185 H   0  0  0  0  0  0
  -19.6970  -25.6278   21.1270 H   0  0  0  0  0  0
  -19.6772  -27.3151   20.6687 H   0  0  0  0  0  0
  -17.4237  -26.6689   21.3976 H   0  0  0  0  0  0
  -18.0369  -26.0075   22.8980 H   0  0  0  0  0  0
  -19.7925  -30.7258   24.2320 H   0  0  0  0  0  0
  -17.5013  -31.6286   24.5155 H   0  0  0  0  0  0
  -15.5354  -30.3020   23.7618 H   0  0  0  0  0  0
  -15.8669  -28.0812   22.7113 H   0  0  0  0  0  0
  -24.6014  -30.6938   25.7735 H   0  0  0  0  0  0
  -24.8873  -32.2755   26.4909 H   0  0  0  0  0  0
  -25.8112  -30.8811   27.0208 H   0  0  0  0  0  0
  -26.2909  -29.6814   24.1201 H   0  0  0  0  0  0
  -27.4259  -29.7340   25.4510 H   0  0  0  0  0  0
  -27.8698  -30.4466   23.9178 H   0  0  0  0  0  0
  -27.2825  -33.3629   26.2092 H   0  0  0  0  0  0
  -28.3961  -32.6783   25.0344 H   0  0  0  0  0  0
  -28.0769  -31.8398   26.5424 H   0  0  0  0  0  0
  -28.2595  -38.0116   24.7539 H   0  0  0  0  0  0
  -28.1104  -36.2637   24.6301 H   0  0  0  0  0  0
  -27.2283  -37.1454   25.8868 H   0  0  0  0  0  0
  -20.9343  -29.8805   21.6914 H   0  0  0  0  0  0
  -26.0202  -38.2862   24.1424 H   0  0  0  0  0  0
  -29.3140  -24.0016   17.3264 H   0  0  0  0  0  0
  -29.2652  -18.5686   14.7939 H   0  0  0  0  0  0
  -28.3314  -19.9774   15.2784 H   0  0  0  0  0  0
  -28.4657  -18.5925   16.3588 H   0  0  0  0  0  0
  -26.0897  -19.2034   19.4038 H   0  0  0  0  0  0
  -25.2728  -17.8125   20.0631 H   0  0  0  0  0  0
  -26.7716  -17.5989   19.1773 H   0  0  0  0  0  0
  -25.4456  -19.5994   22.1348 H   0  0  0  0  0  0
  -26.5587  -18.8941   23.2990 H   0  0  0  0  0  0
  -25.3574  -17.8808   22.5085 H   0  0  0  0  0  0
  -29.5183  -24.0580   20.8243 H   0  0  0  0  0  0
  -27.8332  -23.6936   20.5613 H   0  0  0  0  0  0
  -30.9791  -19.0585   16.5760 H   0  0  0  0  0  0
  -30.8035  -20.3539   15.4622 H   0  0  0  0  0  0
  -30.3168  -18.3860   18.4480 H   0  0  0  0  0  0
  -28.6463  -18.6338   18.7712 H   0  0  0  0  0  0
  -29.6115  -15.4608   22.2558 H   0  0  0  0  0  0
  -31.0151  -16.3231   21.8404 H   0  0  0  0  0  0
  -27.4256  -16.3306   21.6663 H   0  0  0  0  0  0
  -28.3466  -17.4492   22.5994 H   0  0  0  0  0  0
  -27.8473  -25.3016   18.5397 H   0  0  0  0  0  0
  -29.5111  -25.6000   18.8225 H   0  0  0  0  0  0
  -27.6268  -19.3370   21.1159 H   0  0  0  0  0  0
  -28.9316  -16.6126   19.7436 H   0  0  0  0  0  0
  -29.5853  -19.0226   21.1288 H   0  0  0  0  0  0
  -30.9225  -18.3055   20.5563 H   0  0  0  0  0  0
  1 25  1  0  0  0
  1 30  2  0  0  0
  1 81  1  0  0  0
  2  3  1  0  0  0
  2 25  1  0  0  0
  2 89  1  0  0  0
  2 90  1  0  0  0
  3  4  1  0  0  0
  3 91  1  0  0  0
  3 92  1  0  0  0
  4  5  1  0  0  0
  4 93  1  0  0  0
  4 94  1  0  0  0
  5  6  1  0  0  0
  5 26  1  0  0  0
  5 95  1  0  0  0
  6 25  1  0  0  0
  6 96  1  0  0  0
  6 97  1  0  0  0
  7  8  2  0  0  0
  7 26  1  0  0  0
  7 29  1  0  0  0
  8  9  1  0  0  0
  8 22  1  0  0  0
  9 10  1  0  0  0
  9 27  2  0  0  0
 10 11  2  0  0  0
 10 15  1  0  0  0
 11 12  1  0  0  0
 11 98  1  0  0  0
 12 13  2  0  0  0
 12 99  1  0  0  0
 13 14  1  0  0  0
 13 31  1  0  0  0
 14 15  2  0  0  0
 14100  1  0  0  0
 15101  1  0  0  0
 16 17  2  0  0  0
 16 21  1  0  0  0
 16 31  1  0  0  0
 17 18  1  0  0  0
 17102  1  0  0  0
 18 19  2  0  0  0
 18103  1  0  0  0
 19 20  1  0  0  0
 19 24  1  0  0  0
 20 21  2  0  0  0
 20104  1  0  0  0
 21 23  1  0  0  0
 22 28  1  0  0  0
 22 32  2  0  0  0
 26 27  1  0  0  0
 28105  1  0  0  0
 28106  1  0  0  0
 29107  1  0  0  0
 29108  1  0  0  0
 33 34  1  0  0  0
 33 66  1  0  0  0
 33 70  2  0  0  0
 34 36  1  0  0  0
 34 59  1  0  0  0
 34109  1  0  0  0
 35 44  2  0  0  0
 35 45  1  0  0  0
 35 68  1  0  0  0
 36 56  1  0  0  0
 36110  1  0  0  0
 37 39  1  0  0  0
 37 47  1  0  0  0
 37 66  1  0  0  0
 37111  1  0  0  0
 38 43  2  0  0  0
 38 46  1  0  0  0
 38 47  1  0  0  0
 39 64  1  0  0  0
 39 67  2  0  0  0
 40 52  1  0  0  0
 40 53  2  0  0  0
 40 58  1  0  0  0
 41112  1  0  0  0
 41113  1  0  0  0
 41114  1  0  0  0
 41 48  1  0  0  0
 42 43  1  0  0  0
 42 66  1  0  0  0
 42115  1  0  0  0
 42116  1  0  0  0
 43 44  1  0  0  0
 44117  1  0  0  0
 45 46  2  0  0  0
 45118  1  0  0  0
 46119  1  0  0  0
 47120  1  0  0  0
 47121  1  0  0  0
 48 56  1  0  0  0
 48 65  1  0  0  0
 48122  1  0  0  0
 49 50  1  0  0  0
 49 53  1  0  0  0
 49 64  1  0  0  0
 49123  1  0  0  0
 50 51  1  0  0  0
 50124  1  0  0  0
 50125  1  0  0  0
 51 52  1  0  0  0
 51126  1  0  0  0
 51127  1  0  0  0
 52128  1  0  0  0
 52129  1  0  0  0
 53 54  1  0  0  0
 54 55  2  0  0  0
 54130  1  0  0  0
 55 57  1  0  0  0
 55131  1  0  0  0
 56 69  2  0  0  0
 57 58  2  0  0  0
 57132  1  0  0  0
 58133  1  0  0  0
 59 60  1  0  0  0
 59 61  1  0  0  0
 59 62  1  0  0  0
 60134  1  0  0  0
 60135  1  0  0  0
 60136  1  0  0  0
 61137  1  0  0  0
 61138  1  0  0  0
 61139  1  0  0  0
 62140  1  0  0  0
 62141  1  0  0  0
 62142  1  0  0  0
 63 65  1  0  0  0
 63143  1  0  0  0
 63144  1  0  0  0
 63145  1  0  0  0
 64146  1  0  0  0
 65147  1  0  0  0
 68 83  1  0  0  0
 71 72  2  0  0  0
 71 86  1  0  0  0
 71148  1  0  0  0
 72 78  1  0  0  0
 72 87  1  0  0  0
 73 74  1  0  0  0
 73 79  1  0  0  0
 73 86  2  0  0  0
 74 80  1  0  0  0
 74 87  2  0  0  0
 75 79  1  0  0  0
 75149  1  0  0  0
 75150  1  0  0  0
 75151  1  0  0  0
 76152  1  0  0  0
 76153  1  0  0  0
 76154  1  0  0  0
 76 84  1  0  0  0
 77 84  1  0  0  0
 77155  1  0  0  0
 77156  1  0  0  0
 77157  1  0  0  0
 78 83  1  0  0  0
 78158  1  0  0  0
 78159  1  0  0  0
 79160  1  0  0  0
 79161  1  0  0  0
 80 88  1  0  0  0
 80162  1  0  0  0
 80163  1  0  0  0
 81164  1  0  0  0
 81165  1  0  0  0
 81 85  1  0  0  0
 82 84  1  0  0  0
 82 85  1  0  0  0
 82166  1  0  0  0
 82167  1  0  0  0
 83168  1  0  0  0
 83169  1  0  0  0
 84170  1  0  0  0
 85 88  1  0  0  0
 85171  1  0  0  0
 88172  1  0  0  0
 88173  1  0  0  0
M  CHG  1  88   1
M  ISO  4   1 100  68 101  81 100  83 101
M  END
> <chiral flag>
0

> <version>
0

> <s_m_source_file>
/data/baiqing/PycharmProjects/Reinvent-master-3.2/result/LINK_invent/BTK/process_docking_weight1_custom_sum_contain_oxygen_bond_distance_aromatic_linkinvent_7_9_3/rearranged_h_0097.sdf

> <i_m_source_file_index>
64

> <r_mmod_Potential_Energy-OPLS-2005>
-27.3314762115479

> <r_mmod_Stretch_Energy-OPLS-2005>
86.8679351806641

> <r_mmod_Bend_Energy-OPLS-2005>
186.72297668457

> <r_mmod_Torsional_Energy-OPLS-2005>
195.212692260742

> <r_mmod_Improper_Torsional_Energy-OPLS-2005>
3.2917959690094

> <r_mmod_Van_der_Waal_Energy-OPLS-2005>
149.49201965332

> <r_mmod_Electrostatic_Energy-OPLS-2005>
-238.472229003906

> <r_mmod_Solvation_Energy-OPLS-2005>
-446.018524169922

> <b_mmod_Minimization_Converged-OPLS-2005>
0

> <r_mmod_RMS_Derivative-OPLS-2005>
2.80458378791809

$$$$
65
                    3D
 Structure written by MMmdl.
159167  0  0  1  0            999 V2000
  -30.6657  -14.7488   20.4462 C   0  0  0  0  0  0
  -30.4451  -12.4613   19.4707 C   0  0  0  0  0  0
  -29.5281  -12.4959   18.2348 C   0  0  0  0  0  0
  -28.0586  -12.3061   18.6646 C   0  0  0  0  0  0
  -27.6492  -13.2353   19.8356 C   0  0  2  0  0  0
  -28.7009  -13.2157   20.9677 C   0  0  0  0  0  0
  -25.2585  -13.8215   20.5632 C   0  0  0  0  0  0
  -24.1844  -13.0484   20.9094 C   0  0  0  0  0  0
  -24.6453  -11.6934   20.8763 C   0  0  0  0  0  0
  -23.9126  -10.4311   21.0419 C   0  0  0  0  0  0
  -24.3655   -9.4207   21.9219 C   0  0  0  0  0  0
  -23.6278   -8.2302   22.0818 C   0  0  0  0  0  0
  -22.4271   -8.0339   21.3580 C   0  0  0  0  0  0
  -21.9904   -9.0330   20.4691 C   0  0  0  0  0  0
  -22.7277  -10.2158   20.3072 C   0  0  0  0  0  0
  -21.6856   -6.0740   22.5273 C   0  0  0  0  0  0
  -21.3982   -6.5635   23.8188 C   0  0  0  0  0  0
  -21.3655   -5.6791   24.9177 C   0  0  0  0  0  0
  -21.6017   -4.3064   24.7220 C   0  0  0  0  0  0
  -21.8797   -3.8133   23.4364 C   0  0  0  0  0  0
  -21.9163   -4.6960   22.3394 C   0  0  0  0  0  0
  -22.7863  -13.5258   21.1774 C   0  0  0  0  0  0
  -22.1623   -4.2124   21.0987 F   0  0  0  0  0  0
  -21.5651   -3.4543   25.7757 F   0  0  0  0  0  0
  -30.0065  -13.5433   20.3791 N   0  0  0  0  0  0
  -26.3019  -12.9397   20.3238 N   0  0  0  0  0  0
  -25.9378  -11.6544   20.5782 N   0  0  0  0  0  0
  -22.0453  -12.8342   22.0318 N   0  0  0  0  0  0
  -25.4327  -15.1975   20.4034 N   0  0  0  0  0  0
  -31.8512  -14.8270   20.1175 O   0  0  0  0  0  0
  -21.6658   -6.8929   21.4235 O   0  0  0  0  0  0
  -22.3585  -14.5597   20.6652 O   0  0  0  0  0  0
  -24.6332  -31.8539   23.2016 C   0  0  0  0  0  0
  -25.9118  -32.4744   23.8406 C   0  0  1  0  0  0
  -27.2237  -27.2150   20.1524 C   0  0  0  0  0  0
  -25.5909  -33.8555   24.2334 N   0  0  0  0  0  0
  -23.4305  -30.4725   21.5471 C   0  0  2  0  0  0
  -24.8836  -28.9078   20.1197 C   0  0  0  0  0  0
  -22.7509  -29.4586   22.4961 C   0  0  0  0  0  0
  -18.0278  -28.1359   22.8492 C   0  0  0  0  0  0
  -24.1480  -36.7228   23.2652 C   0  0  0  0  0  0
  -25.9853  -30.7483   21.3933 C   0  0  0  0  0  0
  -26.0548  -29.3667   20.7363 C   0  0  0  0  0  0
  -27.2283  -28.5346   20.7369 C   0  0  0  0  0  0
  -26.0362  -26.8499   19.4824 C   0  0  0  0  0  0
  -24.8828  -27.6585   19.4813 C   0  0  0  0  0  0
  -23.6517  -29.7963   20.1664 C   0  0  0  0  0  0
  -25.4112  -36.3069   24.0377 C   0  0  1  0  0  0
  -20.5880  -28.3670   23.1287 C   0  0  2  0  0  0
  -20.6743  -26.9380   22.5432 C   0  0  0  0  0  0
  -19.5726  -26.6351   21.5221 C   0  0  0  0  0  0
  -18.1897  -26.7907   22.1631 C   0  0  0  0  0  0
  -19.1516  -28.8837   23.2881 C   0  0  0  0  0  0
  -18.9444  -30.1431   23.8909 C   0  0  0  0  0  0
  -17.6430  -30.6561   24.0524 C   0  0  0  0  0  0
  -25.9047  -34.9413   23.5165 C   0  0  0  0  0  0
  -16.5325  -29.9053   23.6298 C   0  0  0  0  0  0
  -16.7264  -28.6457   23.0374 C   0  0  0  0  0  0
  -26.4487  -31.6560   25.0766 C   0  0  0  0  0  0
  -25.3702  -31.3670   26.1470 C   0  0  0  0  0  0
  -27.0365  -30.3003   24.6270 C   0  0  0  0  0  0
  -27.6105  -32.4294   25.7446 C   0  0  0  0  0  0
  -27.5589  -37.1780   24.8495 C   0  0  0  0  0  0
  -21.4215  -29.3006   22.3703 N   0  0  0  0  0  0
  -26.4297  -37.3767   23.9425 N   0  0  0  0  0  0
  -24.7024  -31.0462   22.1021 N   0  0  0  0  0  0
  -23.4223  -28.8108   23.3041 O   0  0  0  0  0  0
  -28.3287  -26.3123   20.1397 O   0  0  0  0  0  0
  -26.5606  -34.8892   22.4737 O   0  0  0  0  0  0
  -23.5468  -32.1381   23.7279 O   0  0  0  0  0  0
  -28.3920  -21.7297   18.9535 C   0  0  0  0  0  0
  -29.7085  -21.0150   20.5148 C   0  0  0  0  0  0
  -29.2131  -22.2344   20.0046 C   0  0  0  0  0  0
  -26.9479  -23.4862   22.3708 C   0  0  0  0  0  0
  -30.4175  -24.3515   19.2067 C   0  0  0  0  0  0
  -26.9714  -24.1502   20.9740 C   0  0  0  0  0  0
  -29.3295  -18.3499   19.7736 C   0  0  0  0  0  0
  -30.2628  -17.3929   20.6825 C   0  0  0  0  0  0
  -29.4933  -23.7936   20.3074 C   0  0  1  0  0  0
  -28.3159  -24.8818   20.6957 C   0  0  1  0  0  0
  -28.4071  -20.4037   18.8281 N   0  0  0  0  0  0
  -29.2264  -19.8904   19.7825 N   0  0  0  0  0  0
  -29.9192  -15.8914   20.6737 N   0  0  0  0  0  0
  -31.4926  -12.5496   19.1748 H   0  0  0  0  0  0
  -30.3525  -11.5059   19.9812 H   0  0  0  0  0  0
  -29.8314  -11.7193   17.5294 H   0  0  0  0  0  0
  -29.6364  -13.4413   17.7056 H   0  0  0  0  0  0
  -27.9496  -11.2711   18.9885 H   0  0  0  0  0  0
  -27.3893  -12.4244   17.8113 H   0  0  0  0  0  0
  -27.6199  -14.2458   19.4226 H   0  0  0  0  0  0
  -28.7550  -12.2310   21.4373 H   0  0  0  0  0  0
  -28.4446  -13.9263   21.7582 H   0  0  0  0  0  0
  -25.2796   -9.5662   22.4808 H   0  0  0  0  0  0
  -23.9923   -7.4727   22.7598 H   0  0  0  0  0  0
  -21.0803   -8.8836   19.9105 H   0  0  0  0  0  0
  -22.3710  -10.9698   19.6204 H   0  0  0  0  0  0
  -21.1942   -7.6139   23.9620 H   0  0  0  0  0  0
  -21.1527   -6.0589   25.9047 H   0  0  0  0  0  0
  -22.0589   -2.7602   23.2852 H   0  0  0  0  0  0
  -22.3958  -12.0012   22.4799 H   0  0  0  0  0  0
  -21.1130  -13.1560   22.2588 H   0  0  0  0  0  0
  -24.6861  -15.8728   20.5263 H   0  0  0  0  0  0
  -26.3059  -15.6148   20.1034 H   0  0  0  0  0  0
  -26.7170  -32.5365   23.1159 H   0  0  0  0  0  0
  -25.0089  -33.9697   25.0505 H   0  0  0  0  0  0
  -22.7273  -31.2943   21.3968 H   0  0  0  0  0  0
  -23.3769  -35.9517   23.3335 H   0  0  0  0  0  0
  -24.3591  -36.8795   22.2050 H   0  0  0  0  0  0
  -23.7155  -37.6435   23.6627 H   0  0  0  0  0  0
  -26.1307  -31.5072   20.6230 H   0  0  0  0  0  0
  -26.8674  -30.8006   22.0205 H   0  0  0  0  0  0
  -28.1259  -28.8794   21.2292 H   0  0  0  0  0  0
  -25.9790  -25.8973   18.9751 H   0  0  0  0  0  0
  -23.9887  -27.3029   18.9871 H   0  0  0  0  0  0
  -23.7705  -30.5690   19.4072 H   0  0  0  0  0  0
  -22.7700  -29.2244   19.8664 H   0  0  0  0  0  0
  -25.1278  -36.1979   25.0872 H   0  0  0  0  0  0
  -20.9955  -28.3185   24.1412 H   0  0  0  0  0  0
  -20.5578  -26.2268   23.3622 H   0  0  0  0  0  0
  -21.6626  -26.7355   22.1257 H   0  0  0  0  0  0
  -19.6882  -25.6267   21.1222 H   0  0  0  0  0  0
  -19.6648  -27.3185   20.6760 H   0  0  0  0  0  0
  -17.4178  -26.6645   21.4013 H   0  0  0  0  0  0
  -18.0297  -26.0042   22.9025 H   0  0  0  0  0  0
  -19.7912  -30.7225   24.2308 H   0  0  0  0  0  0
  -17.4982  -31.6258   24.5105 H   0  0  0  0  0  0
  -15.5334  -30.2954   23.7619 H   0  0  0  0  0  0
  -15.8656  -28.0747   22.7152 H   0  0  0  0  0  0
  -24.5933  -30.6980   25.7782 H   0  0  0  0  0  0
  -24.8782  -32.2773   26.4916 H   0  0  0  0  0  0
  -25.7981  -30.8837   27.0266 H   0  0  0  0  0  0
  -26.2998  -29.6716   24.1280 H   0  0  0  0  0  0
  -27.4062  -29.7306   25.4814 H   0  0  0  0  0  0
  -27.8854  -30.4349   23.9559 H   0  0  0  0  0  0
  -27.2861  -33.3676   26.2000 H   0  0  0  0  0  0
  -28.3867  -32.6757   25.0162 H   0  0  0  0  0  0
  -28.0857  -31.8414   26.5327 H   0  0  0  0  0  0
  -28.2664  -38.0036   24.7544 H   0  0  0  0  0  0
  -28.1038  -36.2576   24.6346 H   0  0  0  0  0  0
  -27.2304  -37.1464   25.8902 H   0  0  0  0  0  0
  -20.9429  -29.8730   21.6890 H   0  0  0  0  0  0
  -26.0190  -38.2860   24.1404 H   0  0  0  0  0  0
  -27.8129  -22.2954   18.2350 H   0  0  0  0  0  0
  -30.3780  -20.8418   21.3417 H   0  0  0  0  0  0
  -26.2326  -22.6638   22.4295 H   0  0  0  0  0  0
  -26.6584  -24.2121   23.1277 H   0  0  0  0  0  0
  -27.9186  -23.0820   22.6572 H   0  0  0  0  0  0
  -31.3419  -23.7792   19.1389 H   0  0  0  0  0  0
  -30.7013  -25.3816   19.4078 H   0  0  0  0  0  0
  -29.9581  -24.3285   18.2195 H   0  0  0  0  0  0
  -26.0994  -24.7964   20.9314 H   0  0  0  0  0  0
  -26.8033  -23.3839   20.2204 H   0  0  0  0  0  0
  -28.3069  -17.9976   19.8829 H   0  0  0  0  0  0
  -29.5715  -18.0822   18.7408 H   0  0  0  0  0  0
  -30.2160  -17.7359   21.7201 H   0  0  0  0  0  0
  -31.3065  -17.5275   20.3885 H   0  0  0  0  0  0
  -30.1203  -23.7936   21.1975 H   0  0  0  0  0  0
  -28.6129  -25.1722   21.7070 H   0  0  0  0  0  0
  -28.9508  -15.6827   20.8575 H   0  0  0  0  0  0
  1 25  1  0  0  0
  1 30  2  0  0  0
  1 83  1  0  0  0
  2  3  1  0  0  0
  2 25  1  0  0  0
  2 84  1  0  0  0
  2 85  1  0  0  0
  3  4  1  0  0  0
  3 86  1  0  0  0
  3 87  1  0  0  0
  4  5  1  0  0  0
  4 88  1  0  0  0
  4 89  1  0  0  0
  5  6  1  0  0  0
  5 26  1  0  0  0
  5 90  1  0  0  0
  6 25  1  0  0  0
  6 91  1  0  0  0
  6 92  1  0  0  0
  7  8  2  0  0  0
  7 26  1  0  0  0
  7 29  1  0  0  0
  8  9  1  0  0  0
  8 22  1  0  0  0
  9 10  1  0  0  0
  9 27  2  0  0  0
 10 11  2  0  0  0
 10 15  1  0  0  0
 11 12  1  0  0  0
 11 93  1  0  0  0
 12 13  2  0  0  0
 12 94  1  0  0  0
 13 14  1  0  0  0
 13 31  1  0  0  0
 14 15  2  0  0  0
 14 95  1  0  0  0
 15 96  1  0  0  0
 16 17  2  0  0  0
 16 21  1  0  0  0
 16 31  1  0  0  0
 17 18  1  0  0  0
 17 97  1  0  0  0
 18 19  2  0  0  0
 18 98  1  0  0  0
 19 20  1  0  0  0
 19 24  1  0  0  0
 20 21  2  0  0  0
 20 99  1  0  0  0
 21 23  1  0  0  0
 22 28  1  0  0  0
 22 32  2  0  0  0
 26 27  1  0  0  0
 28100  1  0  0  0
 28101  1  0  0  0
 29102  1  0  0  0
 29103  1  0  0  0
 33 34  1  0  0  0
 33 66  1  0  0  0
 33 70  2  0  0  0
 34 36  1  0  0  0
 34 59  1  0  0  0
 34104  1  0  0  0
 35 44  2  0  0  0
 35 45  1  0  0  0
 35 68  1  0  0  0
 36 56  1  0  0  0
 36105  1  0  0  0
 37 39  1  0  0  0
 37 47  1  0  0  0
 37 66  1  0  0  0
 37106  1  0  0  0
 38 43  2  0  0  0
 38 46  1  0  0  0
 38 47  1  0  0  0
 39 64  1  0  0  0
 39 67  2  0  0  0
 40 52  1  0  0  0
 40 53  2  0  0  0
 40 58  1  0  0  0
 41107  1  0  0  0
 41108  1  0  0  0
 41109  1  0  0  0
 41 48  1  0  0  0
 42 43  1  0  0  0
 42 66  1  0  0  0
 42110  1  0  0  0
 42111  1  0  0  0
 43 44  1  0  0  0
 44112  1  0  0  0
 45 46  2  0  0  0
 45113  1  0  0  0
 46114  1  0  0  0
 47115  1  0  0  0
 47116  1  0  0  0
 48 56  1  0  0  0
 48 65  1  0  0  0
 48117  1  0  0  0
 49 50  1  0  0  0
 49 53  1  0  0  0
 49 64  1  0  0  0
 49118  1  0  0  0
 50 51  1  0  0  0
 50119  1  0  0  0
 50120  1  0  0  0
 51 52  1  0  0  0
 51121  1  0  0  0
 51122  1  0  0  0
 52123  1  0  0  0
 52124  1  0  0  0
 53 54  1  0  0  0
 54 55  2  0  0  0
 54125  1  0  0  0
 55 57  1  0  0  0
 55126  1  0  0  0
 56 69  2  0  0  0
 57 58  2  0  0  0
 57127  1  0  0  0
 58128  1  0  0  0
 59 60  1  0  0  0
 59 61  1  0  0  0
 59 62  1  0  0  0
 60129  1  0  0  0
 60130  1  0  0  0
 60131  1  0  0  0
 61132  1  0  0  0
 61133  1  0  0  0
 61134  1  0  0  0
 62135  1  0  0  0
 62136  1  0  0  0
 62137  1  0  0  0
 63 65  1  0  0  0
 63138  1  0  0  0
 63139  1  0  0  0
 63140  1  0  0  0
 64141  1  0  0  0
 65142  1  0  0  0
 68 80  1  0  0  0
 71 73  1  0  0  0
 71 81  2  0  0  0
 71143  1  0  0  0
 72 73  2  0  0  0
 72 82  1  0  0  0
 72144  1  0  0  0
 73 79  1  0  0  0
 74 76  1  0  0  0
 74145  1  0  0  0
 74146  1  0  0  0
 74147  1  0  0  0
 75148  1  0  0  0
 75149  1  0  0  0
 75150  1  0  0  0
 75 79  1  0  0  0
 76151  1  0  0  0
 76152  1  0  0  0
 76 80  1  0  0  0
 77 78  1  0  0  0
 77 82  1  0  0  0
 77153  1  0  0  0
 77154  1  0  0  0
 78 83  1  0  0  0
 78155  1  0  0  0
 78156  1  0  0  0
 79 80  1  0  0  0
 79157  1  0  0  0
 80158  1  0  0  0
 81 82  1  0  0  0
 83159  1  0  0  0
M  ISO  4   1 100  68 101  80 101  83 100
M  END
> <chiral flag>
0

> <version>
0

> <s_m_source_file>
/data/baiqing/PycharmProjects/Reinvent-master-3.2/result/LINK_invent/BTK/process_docking_weight1_custom_sum_contain_oxygen_bond_distance_aromatic_linkinvent_7_9_3/rearranged_h_0097.sdf

> <i_m_source_file_index>
65

> <r_mmod_Potential_Energy-OPLS-2005>
284.151214599609

> <r_mmod_Stretch_Energy-OPLS-2005>
149.790130615234

> <r_mmod_Bend_Energy-OPLS-2005>
247.294860839844

> <r_mmod_Torsional_Energy-OPLS-2005>
257.222717285156

> <r_mmod_Improper_Torsional_Energy-OPLS-2005>
5.0496506690979

> <r_mmod_Van_der_Waal_Energy-OPLS-2005>
114.527191162109

> <r_mmod_Electrostatic_Energy-OPLS-2005>
-367.5478515625

> <r_mmod_Solvation_Energy-OPLS-2005>
-221.389221191406

> <b_mmod_Minimization_Converged-OPLS-2005>
0

> <r_mmod_RMS_Derivative-OPLS-2005>
9.19803047180176

$$$$
66
                    3D
 Structure written by MMmdl.
168176  0  0  1  0            999 V2000
  -30.6352  -14.7338   20.4392 C   0  0  0  0  0  0
  -30.4272  -12.4396   19.4843 C   0  0  0  0  0  0
  -29.5083  -12.4911   18.2440 C   0  0  0  0  0  0
  -28.0371  -12.3191   18.6625 C   0  0  0  0  0  0
  -27.6434  -13.2317   19.8544 C   0  0  2  0  0  0
  -28.6885  -13.1844   20.9918 C   0  0  0  0  0  0
  -25.2519  -13.8216   20.5713 C   0  0  0  0  0  0
  -24.1809  -13.0459   20.9215 C   0  0  0  0  0  0
  -24.6401  -11.6935   20.8779 C   0  0  0  0  0  0
  -23.9083  -10.4306   21.0423 C   0  0  0  0  0  0
  -24.3628   -9.4221   21.9200 C   0  0  0  0  0  0
  -23.6293   -8.2256   22.0769 C   0  0  0  0  0  0
  -22.4276   -8.0296   21.3552 C   0  0  0  0  0  0
  -21.9927   -9.0275   20.4654 C   0  0  0  0  0  0
  -22.7263  -10.2148   20.3068 C   0  0  0  0  0  0
  -21.6854   -6.0746   22.5276 C   0  0  0  0  0  0
  -21.4010   -6.5641   23.8211 C   0  0  0  0  0  0
  -21.3662   -5.6786   24.9173 C   0  0  0  0  0  0
  -21.6043   -4.3055   24.7216 C   0  0  0  0  0  0
  -21.8818   -3.8154   23.4335 C   0  0  0  0  0  0
  -21.9192   -4.6972   22.3397 C   0  0  0  0  0  0
  -22.7830  -13.5246   21.1854 C   0  0  0  0  0  0
  -22.1660   -4.2160   21.0972 F   0  0  0  0  0  0
  -21.5636   -3.4533   25.7733 F   0  0  0  0  0  0
  -29.9909  -13.5172   20.4044 N   0  0  0  0  0  0
  -26.2950  -12.9412   20.3322 N   0  0  0  0  0  0
  -25.9334  -11.6559   20.5813 N   0  0  0  0  0  0
  -22.0459  -12.8235   22.0395 N   0  0  0  0  0  0
  -25.4217  -15.1934   20.4119 N   0  0  0  0  0  0
  -31.8238  -14.7967   20.1191 O   0  0  0  0  0  0
  -21.6645   -6.8890   21.4243 O   0  0  0  0  0  0
  -22.3521  -14.5557   20.6710 O   0  0  0  0  0  0
  -24.6320  -31.8531   23.2007 C   0  0  0  0  0  0
  -25.9148  -32.4737   23.8348 C   0  0  1  0  0  0
  -27.2177  -27.2627   20.1170 C   0  0  0  0  0  0
  -25.5932  -33.8538   24.2256 N   0  0  0  0  0  0
  -23.4279  -30.4797   21.5412 C   0  0  2  0  0  0
  -24.8755  -28.9296   20.1091 C   0  0  0  0  0  0
  -22.7507  -29.4592   22.4891 C   0  0  0  0  0  0
  -18.0302  -28.1363   22.8480 C   0  0  0  0  0  0
  -24.1496  -36.7278   23.2646 C   0  0  0  0  0  0
  -25.9757  -30.7632   21.3850 C   0  0  0  0  0  0
  -26.0458  -29.3863   20.7289 C   0  0  0  0  0  0
  -27.2177  -28.5587   20.7354 C   0  0  0  0  0  0
  -26.0288  -26.8883   19.4499 C   0  0  0  0  0  0
  -24.8697  -27.6850   19.4637 C   0  0  0  0  0  0
  -23.6457  -29.8154   20.1569 C   0  0  0  0  0  0
  -25.4115  -36.3047   24.0328 C   0  0  1  0  0  0
  -20.5902  -28.3671   23.1262 C   0  0  2  0  0  0
  -20.6771  -26.9382   22.5403 C   0  0  0  0  0  0
  -19.5746  -26.6354   21.5206 C   0  0  0  0  0  0
  -18.1927  -26.7895   22.1611 C   0  0  0  0  0  0
  -19.1559  -28.8842   23.2859 C   0  0  0  0  0  0
  -18.9482  -30.1437   23.8880 C   0  0  0  0  0  0
  -17.6473  -30.6564   24.0565 C   0  0  0  0  0  0
  -25.9065  -34.9417   23.5097 C   0  0  0  0  0  0
  -16.5361  -29.9057   23.6333 C   0  0  0  0  0  0
  -16.7291  -28.6478   23.0351 C   0  0  0  0  0  0
  -26.4519  -31.6567   25.0738 C   0  0  0  0  0  0
  -25.3725  -31.3702   26.1455 C   0  0  0  0  0  0
  -27.0400  -30.2992   24.6242 C   0  0  0  0  0  0
  -27.6072  -32.4318   25.7504 C   0  0  0  0  0  0
  -27.5574  -37.1782   24.8465 C   0  0  0  0  0  0
  -21.4217  -29.3023   22.3653 N   0  0  0  0  0  0
  -26.4285  -37.3747   23.9414 N   0  0  0  0  0  0
  -24.6967  -31.0509   22.0974 N   0  0  0  0  0  0
  -23.4202  -28.8121   23.2989 O   0  0  0  0  0  0
  -28.2963  -26.3438   20.1486 O   0  0  0  0  0  0
  -26.5644  -34.8881   22.4668 O   0  0  0  0  0  0
  -23.5470  -32.1360   23.7303 O   0  0  0  0  0  0
  -29.2322  -19.7192   19.7052 C   0  0  0  0  0  0
  -29.0135  -20.9580   20.4425 C   0  0  0  0  0  0
  -29.7609  -18.6853   20.4800 C   0  0  0  0  0  0
  -29.4360  -20.6175   21.7047 C   0  0  0  0  0  0
  -29.4152  -21.4899   22.9251 C   0  0  0  0  0  0
  -32.8707  -18.9243   22.0743 C   0  0  0  0  0  0
  -27.9606  -22.2285   18.4809 C   0  0  0  0  0  0
  -29.4265  -17.6682   23.5753 C   0  0  0  0  0  0
  -30.3236  -17.2663   20.0389 C   0  0  0  0  0  0
  -31.8578  -18.0303   22.8117 C   0  0  0  0  0  0
  -28.8789  -23.8211   20.2682 C   0  0  0  0  0  0
  -28.3035  -22.3234   19.9786 C   0  0  2  0  0  0
  -30.4451  -18.6379   22.9579 C   0  0  1  0  0  0
  -29.9089  -19.2805   21.7436 N   0  0  0  0  0  0
  -29.8956  -15.9006   20.5725 N   0  0  0  0  0  0
  -27.8116  -24.8910   20.1980 N   0  0  0  0  0  0
  -31.4703  -12.5434   19.1812 H   0  0  0  0  0  0
  -30.3588  -11.4678   19.9764 H   0  0  0  0  0  0
  -29.7865  -11.7107   17.5345 H   0  0  0  0  0  0
  -29.6359  -13.4416   17.7245 H   0  0  0  0  0  0
  -27.8992  -11.2735   18.9407 H   0  0  0  0  0  0
  -27.3743  -12.4949   17.8147 H   0  0  0  0  0  0
  -27.6353  -14.2481   19.4628 H   0  0  0  0  0  0
  -28.7179  -12.1981   21.4583 H   0  0  0  0  0  0
  -28.4318  -13.8908   21.7834 H   0  0  0  0  0  0
  -25.2761   -9.5697   22.4792 H   0  0  0  0  0  0
  -23.9996   -7.4652   22.7494 H   0  0  0  0  0  0
  -21.0862   -8.8803   19.8954 H   0  0  0  0  0  0
  -22.3726  -10.9701   19.6186 H   0  0  0  0  0  0
  -21.1995   -7.6148   23.9722 H   0  0  0  0  0  0
  -21.1484   -6.0513   25.9072 H   0  0  0  0  0  0
  -22.0594   -2.7613   23.2828 H   0  0  0  0  0  0
  -22.4043  -11.9863   22.4762 H   0  0  0  0  0  0
  -21.1094  -13.1297   22.2630 H   0  0  0  0  0  0
  -24.6552  -15.8475   20.5280 H   0  0  0  0  0  0
  -26.2659  -15.6351   20.0725 H   0  0  0  0  0  0
  -26.7201  -32.5389   23.1071 H   0  0  0  0  0  0
  -25.0060  -33.9667   25.0389 H   0  0  0  0  0  0
  -22.7246  -31.3023   21.3927 H   0  0  0  0  0  0
  -23.3738  -35.9630   23.3304 H   0  0  0  0  0  0
  -24.3597  -36.8921   22.2068 H   0  0  0  0  0  0
  -23.7261  -37.6474   23.6686 H   0  0  0  0  0  0
  -26.1190  -31.5219   20.6135 H   0  0  0  0  0  0
  -26.8517  -30.8112   22.0201 H   0  0  0  0  0  0
  -28.1103  -28.8929   21.2450 H   0  0  0  0  0  0
  -25.9679  -25.9440   18.9272 H   0  0  0  0  0  0
  -23.9758  -27.3347   18.9677 H   0  0  0  0  0  0
  -23.7651  -30.5911   19.3995 H   0  0  0  0  0  0
  -22.7632  -29.2470   19.8544 H   0  0  0  0  0  0
  -25.1280  -36.1888   25.0816 H   0  0  0  0  0  0
  -21.0000  -28.3240   24.1378 H   0  0  0  0  0  0
  -20.5654  -26.2277   23.3600 H   0  0  0  0  0  0
  -21.6638  -26.7369   22.1203 H   0  0  0  0  0  0
  -19.6920  -25.6272   21.1220 H   0  0  0  0  0  0
  -19.6691  -27.3183   20.6747 H   0  0  0  0  0  0
  -17.4189  -26.6672   21.4022 H   0  0  0  0  0  0
  -18.0317  -26.0030   22.9001 H   0  0  0  0  0  0
  -19.7957  -30.7255   24.2230 H   0  0  0  0  0  0
  -17.5028  -31.6246   24.5155 H   0  0  0  0  0  0
  -15.5364  -30.2949   23.7668 H   0  0  0  0  0  0
  -15.8691  -28.0794   22.7066 H   0  0  0  0  0  0
  -24.5946  -30.6995   25.7791 H   0  0  0  0  0  0
  -24.8851  -32.2853   26.4838 H   0  0  0  0  0  0
  -25.8037  -30.8930   27.0269 H   0  0  0  0  0  0
  -26.3015  -29.6693   24.1269 H   0  0  0  0  0  0
  -27.4102  -29.7299   25.4776 H   0  0  0  0  0  0
  -27.8867  -30.4286   23.9493 H   0  0  0  0  0  0
  -27.2712  -33.3660   26.2022 H   0  0  0  0  0  0
  -28.3923  -32.6811   25.0349 H   0  0  0  0  0  0
  -28.0691  -31.8462   26.5473 H   0  0  0  0  0  0
  -28.2555  -38.0106   24.7522 H   0  0  0  0  0  0
  -28.1088  -36.2628   24.6259 H   0  0  0  0  0  0
  -27.2292  -37.1409   25.8864 H   0  0  0  0  0  0
  -20.9389  -29.8786   21.6900 H   0  0  0  0  0  0
  -26.0149  -38.2814   24.1409 H   0  0  0  0  0  0
  -29.0205  -19.5936   18.6525 H   0  0  0  0  0  0
  -28.7690  -22.3546   22.7859 H   0  0  0  0  0  0
  -30.4168  -21.8571   23.1522 H   0  0  0  0  0  0
  -29.0285  -20.9632   23.7974 H   0  0  0  0  0  0
  -33.8640  -18.4757   22.0883 H   0  0  0  0  0  0
  -32.9415  -19.9061   22.5431 H   0  0  0  0  0  0
  -32.6021  -19.0809   21.0302 H   0  0  0  0  0  0
  -27.3181  -21.3741   18.2736 H   0  0  0  0  0  0
  -28.8626  -22.1252   17.8754 H   0  0  0  0  0  0
  -27.4335  -23.1174   18.1299 H   0  0  0  0  0  0
  -29.7680  -17.3073   24.5459 H   0  0  0  0  0  0
  -29.2511  -16.8001   22.9450 H   0  0  0  0  0  0
  -28.4664  -18.1625   23.7288 H   0  0  0  0  0  0
  -31.4086  -17.3175   20.1168 H   0  0  0  0  0  0
  -30.1655  -17.1901   18.9627 H   0  0  0  0  0  0
  -32.2457  -17.8337   23.8121 H   0  0  0  0  0  0
  -31.8073  -17.0527   22.3367 H   0  0  0  0  0  0
  -29.6675  -24.0444   19.5482 H   0  0  0  0  0  0
  -29.3447  -23.8723   21.2520 H   0  0  0  0  0  0
  -27.3529  -22.2827   20.5131 H   0  0  0  0  0  0
  -30.5903  -19.4171   23.7038 H   0  0  0  0  0  0
  -28.9200  -15.7945   20.8014 H   0  0  0  0  0  0
  -27.2086  -24.8296   21.0143 H   0  0  0  0  0  0
  1 25  1  0  0  0
  1 30  2  0  0  0
  1 85  1  0  0  0
  2  3  1  0  0  0
  2 25  1  0  0  0
  2 87  1  0  0  0
  2 88  1  0  0  0
  3  4  1  0  0  0
  3 89  1  0  0  0
  3 90  1  0  0  0
  4  5  1  0  0  0
  4 91  1  0  0  0
  4 92  1  0  0  0
  5  6  1  0  0  0
  5 26  1  0  0  0
  5 93  1  0  0  0
  6 25  1  0  0  0
  6 94  1  0  0  0
  6 95  1  0  0  0
  7  8  2  0  0  0
  7 26  1  0  0  0
  7 29  1  0  0  0
  8  9  1  0  0  0
  8 22  1  0  0  0
  9 10  1  0  0  0
  9 27  2  0  0  0
 10 11  2  0  0  0
 10 15  1  0  0  0
 11 12  1  0  0  0
 11 96  1  0  0  0
 12 13  2  0  0  0
 12 97  1  0  0  0
 13 14  1  0  0  0
 13 31  1  0  0  0
 14 15  2  0  0  0
 14 98  1  0  0  0
 15 99  1  0  0  0
 16 17  2  0  0  0
 16 21  1  0  0  0
 16 31  1  0  0  0
 17 18  1  0  0  0
 17100  1  0  0  0
 18 19  2  0  0  0
 18101  1  0  0  0
 19 20  1  0  0  0
 19 24  1  0  0  0
 20 21  2  0  0  0
 20102  1  0  0  0
 21 23  1  0  0  0
 22 28  1  0  0  0
 22 32  2  0  0  0
 26 27  1  0  0  0
 28103  1  0  0  0
 28104  1  0  0  0
 29105  1  0  0  0
 29106  1  0  0  0
 33 34  1  0  0  0
 33 66  1  0  0  0
 33 70  2  0  0  0
 34 36  1  0  0  0
 34 59  1  0  0  0
 34107  1  0  0  0
 35 44  2  0  0  0
 35 45  1  0  0  0
 35 68  1  0  0  0
 36 56  1  0  0  0
 36108  1  0  0  0
 37 39  1  0  0  0
 37 47  1  0  0  0
 37 66  1  0  0  0
 37109  1  0  0  0
 38 43  2  0  0  0
 38 46  1  0  0  0
 38 47  1  0  0  0
 39 64  1  0  0  0
 39 67  2  0  0  0
 40 52  1  0  0  0
 40 53  2  0  0  0
 40 58  1  0  0  0
 41110  1  0  0  0
 41111  1  0  0  0
 41112  1  0  0  0
 41 48  1  0  0  0
 42 43  1  0  0  0
 42 66  1  0  0  0
 42113  1  0  0  0
 42114  1  0  0  0
 43 44  1  0  0  0
 44115  1  0  0  0
 45 46  2  0  0  0
 45116  1  0  0  0
 46117  1  0  0  0
 47118  1  0  0  0
 47119  1  0  0  0
 48 56  1  0  0  0
 48 65  1  0  0  0
 48120  1  0  0  0
 49 50  1  0  0  0
 49 53  1  0  0  0
 49 64  1  0  0  0
 49121  1  0  0  0
 50 51  1  0  0  0
 50122  1  0  0  0
 50123  1  0  0  0
 51 52  1  0  0  0
 51124  1  0  0  0
 51125  1  0  0  0
 52126  1  0  0  0
 52127  1  0  0  0
 53 54  1  0  0  0
 54 55  2  0  0  0
 54128  1  0  0  0
 55 57  1  0  0  0
 55129  1  0  0  0
 56 69  2  0  0  0
 57 58  2  0  0  0
 57130  1  0  0  0
 58131  1  0  0  0
 59 60  1  0  0  0
 59 61  1  0  0  0
 59 62  1  0  0  0
 60132  1  0  0  0
 60133  1  0  0  0
 60134  1  0  0  0
 61135  1  0  0  0
 61136  1  0  0  0
 61137  1  0  0  0
 62138  1  0  0  0
 62139  1  0  0  0
 62140  1  0  0  0
 63 65  1  0  0  0
 63141  1  0  0  0
 63142  1  0  0  0
 63143  1  0  0  0
 64144  1  0  0  0
 65145  1  0  0  0
 68 86  1  0  0  0
 71 72  1  0  0  0
 71 73  2  0  0  0
 71146  1  0  0  0
 72 74  2  0  0  0
 72 82  1  0  0  0
 73 79  1  0  0  0
 73 84  1  0  0  0
 74 75  1  0  0  0
 74 84  1  0  0  0
 75147  1  0  0  0
 75148  1  0  0  0
 75149  1  0  0  0
 76 80  1  0  0  0
 76150  1  0  0  0
 76151  1  0  0  0
 76152  1  0  0  0
 77153  1  0  0  0
 77154  1  0  0  0
 77155  1  0  0  0
 77 82  1  0  0  0
 78156  1  0  0  0
 78157  1  0  0  0
 78158  1  0  0  0
 78 83  1  0  0  0
 79 85  1  0  0  0
 79159  1  0  0  0
 79160  1  0  0  0
 80 83  1  0  0  0
 80161  1  0  0  0
 80162  1  0  0  0
 81 82  1  0  0  0
 81 86  1  0  0  0
 81163  1  0  0  0
 81164  1  0  0  0
 82165  1  0  0  0
 83 84  1  0  0  0
 83166  1  0  0  0
 85167  1  0  0  0
 86168  1  0  0  0
M  ISO  4   1 100  68 101  85 100  86 101
M  END
> <chiral flag>
0

> <version>
0

> <s_m_source_file>
/data/baiqing/PycharmProjects/Reinvent-master-3.2/result/LINK_invent/BTK/process_docking_weight1_custom_sum_contain_oxygen_bond_distance_aromatic_linkinvent_7_9_3/rearranged_h_0097.sdf

> <i_m_source_file_index>
66

> <r_mmod_Potential_Energy-OPLS-2005>
121.28751373291

> <r_mmod_Stretch_Energy-OPLS-2005>
123.696418762207

> <r_mmod_Bend_Energy-OPLS-2005>
191.496978759766

> <r_mmod_Torsional_Energy-OPLS-2005>
247.875503540039

> <r_mmod_Improper_Torsional_Energy-OPLS-2005>
8.4258394241333

> <r_mmod_Van_der_Waal_Energy-OPLS-2005>
122.04663848877

> <r_mmod_Electrostatic_Energy-OPLS-2005>
-452.920257568359

> <r_mmod_Solvation_Energy-OPLS-2005>
-204.866363525391

> <b_mmod_Minimization_Converged-OPLS-2005>
0

> <r_mmod_RMS_Derivative-OPLS-2005>
2.39005756378174

$$$$
67
                    3D
 Structure written by MMmdl.
172180  0  0  1  0            999 V2000
  -30.6193  -14.6613   20.4919 C   0  0  0  0  0  0
  -30.4295  -12.4127   19.4503 C   0  0  0  0  0  0
  -29.5033  -12.4806   18.2205 C   0  0  0  0  0  0
  -28.0241  -12.3199   18.6349 C   0  0  0  0  0  0
  -27.6375  -13.2185   19.8428 C   0  0  2  0  0  0
  -28.6799  -13.1084   20.9705 C   0  0  0  0  0  0
  -25.2533  -13.8187   20.5780 C   0  0  0  0  0  0
  -24.1756  -13.0375   20.9208 C   0  0  0  0  0  0
  -24.6349  -11.6899   20.8720 C   0  0  0  0  0  0
  -23.8981  -10.4274   21.0416 C   0  0  0  0  0  0
  -24.3557   -9.4198   21.9173 C   0  0  0  0  0  0
  -23.6229   -8.2229   22.0761 C   0  0  0  0  0  0
  -22.4250   -8.0232   21.3529 C   0  0  0  0  0  0
  -21.9853   -9.0203   20.4672 C   0  0  0  0  0  0
  -22.7163  -10.2099   20.3044 C   0  0  0  0  0  0
  -21.6845   -6.0701   22.5272 C   0  0  0  0  0  0
  -21.4011   -6.5619   23.8199 C   0  0  0  0  0  0
  -21.3672   -5.6787   24.9165 C   0  0  0  0  0  0
  -21.6013   -4.3047   24.7227 C   0  0  0  0  0  0
  -21.8829   -3.8130   23.4366 C   0  0  0  0  0  0
  -21.9191   -4.6927   22.3410 C   0  0  0  0  0  0
  -22.7819  -13.5265   21.1835 C   0  0  0  0  0  0
  -22.1660   -4.2107   21.0987 F   0  0  0  0  0  0
  -21.5626   -3.4533   25.7757 F   0  0  0  0  0  0
  -29.9857  -13.4568   20.3932 N   0  0  0  0  0  0
  -26.2878  -12.9323   20.3218 N   0  0  0  0  0  0
  -25.9272  -11.6487   20.5688 N   0  0  0  0  0  0
  -22.0423  -12.8242   22.0402 N   0  0  0  0  0  0
  -25.4288  -15.1869   20.4431 N   0  0  0  0  0  0
  -31.8072  -14.7899   20.1834 O   0  0  0  0  0  0
  -21.6617   -6.8831   21.4227 O   0  0  0  0  0  0
  -22.3507  -14.5515   20.6665 O   0  0  0  0  0  0
  -24.6204  -31.8640   23.2052 C   0  0  0  0  0  0
  -25.9093  -32.4792   23.8367 C   0  0  1  0  0  0
  -27.2410  -27.4119   20.0556 C   0  0  0  0  0  0
  -25.5887  -33.8575   24.2359 N   0  0  0  0  0  0
  -23.4047  -30.4903   21.5425 C   0  0  2  0  0  0
  -24.8554  -28.9751   20.0922 C   0  0  0  0  0  0
  -22.7606  -29.4555   22.4921 C   0  0  0  0  0  0
  -18.0169  -28.1408   22.8417 C   0  0  0  0  0  0
  -24.1484  -36.7295   23.2653 C   0  0  0  0  0  0
  -25.9443  -30.8384   21.3624 C   0  0  0  0  0  0
  -26.0249  -29.4718   20.6856 C   0  0  0  0  0  0
  -27.2246  -28.7085   20.6451 C   0  0  0  0  0  0
  -26.0400  -26.9260   19.4992 C   0  0  0  0  0  0
  -24.8701  -27.7062   19.4825 C   0  0  0  0  0  0
  -23.6092  -29.8397   20.1505 C   0  0  0  0  0  0
  -25.4117  -36.3143   24.0385 C   0  0  1  0  0  0
  -20.5808  -28.3650   23.1202 C   0  0  2  0  0  0
  -20.6681  -26.9380   22.5393 C   0  0  0  0  0  0
  -19.5747  -26.6456   21.5141 C   0  0  0  0  0  0
  -18.1848  -26.8047   22.1257 C   0  0  0  0  0  0
  -19.1439  -28.8839   23.2926 C   0  0  0  0  0  0
  -18.9344  -30.1317   23.9218 C   0  0  0  0  0  0
  -17.6336  -30.6498   24.0874 C   0  0  0  0  0  0
  -25.9032  -34.9470   23.5197 C   0  0  0  0  0  0
  -16.5239  -29.9081   23.6377 C   0  0  0  0  0  0
  -16.7132  -28.6487   23.0276 C   0  0  0  0  0  0
  -26.4517  -31.6588   25.0722 C   0  0  0  0  0  0
  -25.3716  -31.3693   26.1395 C   0  0  0  0  0  0
  -27.0401  -30.3029   24.6187 C   0  0  0  0  0  0
  -27.6072  -32.4319   25.7429 C   0  0  0  0  0  0
  -27.5614  -37.1825   24.8483 C   0  0  0  0  0  0
  -21.4294  -29.2913   22.3707 N   0  0  0  0  0  0
  -26.4314  -37.3842   23.9438 N   0  0  0  0  0  0
  -24.6729  -31.0790   22.0894 N   0  0  0  0  0  0
  -23.4532  -28.8261   23.2930 O   0  0  0  0  0  0
  -28.4049  -26.6500   19.9582 O   0  0  0  0  0  0
  -26.5603  -34.8892   22.4766 O   0  0  0  0  0  0
  -23.5397  -32.1267   23.7510 O   0  0  0  0  0  0
  -26.3512  -20.7570   21.1831 C   0  0  0  0  0  0
  -27.4776  -21.4648   20.6816 C   0  0  0  0  0  0
  -28.7093  -19.4947   21.0610 C   0  0  0  0  0  0
  -27.7754  -19.2063   22.0907 C   0  0  0  0  0  0
  -29.2182  -21.3334   24.2319 C   0  0  0  0  0  0
  -26.1680  -17.8531   24.4867 C   0  0  0  0  0  0
  -26.0039  -23.4926   21.1719 C   0  0  0  0  0  0
  -29.3653  -18.3136   20.2651 C   0  0  0  0  0  0
  -28.1540  -20.2506   24.4481 C   0  0  0  0  0  0
  -27.6754  -17.7566   24.2219 C   0  0  0  0  0  0
  -28.1472  -24.0064   19.8697 C   0  0  0  0  0  0
  -30.2455  -17.1914   20.9733 C   0  0  0  0  0  0
  -28.4023  -25.3686   20.6312 C   0  0  0  0  0  0
  -27.4653  -23.0171   20.8689 C   0  0  2  0  0  0
  -28.2706  -18.9909   23.5288 C   0  0  0  0  0  0
  -26.5221  -19.7034   21.9986 N   0  0  0  0  0  0
  -28.6420  -20.7533   20.4864 N   0  0  0  0  0  0
  -29.8358  -15.7587   20.7600 N   0  0  0  0  0  0
  -31.4740  -12.5394   19.1542 H   0  0  0  0  0  0
  -30.3667  -11.4356   19.9309 H   0  0  0  0  0  0
  -29.7749  -11.7010   17.5064 H   0  0  0  0  0  0
  -29.6363  -13.4330   17.7013 H   0  0  0  0  0  0
  -27.8804  -11.2696   18.9063 H   0  0  0  0  0  0
  -27.3645  -12.5105   17.7890 H   0  0  0  0  0  0
  -27.6379  -14.2448   19.4709 H   0  0  0  0  0  0
  -28.7108  -12.0918   21.3645 H   0  0  0  0  0  0
  -28.4266  -13.7521   21.8124 H   0  0  0  0  0  0
  -25.2676   -9.5676   22.4771 H   0  0  0  0  0  0
  -23.9940   -7.4620   22.7497 H   0  0  0  0  0  0
  -21.0760   -8.8686   19.8987 H   0  0  0  0  0  0
  -22.3560  -10.9618   19.6169 H   0  0  0  0  0  0
  -21.2018   -7.6131   23.9681 H   0  0  0  0  0  0
  -21.1476   -6.0531   25.9066 H   0  0  0  0  0  0
  -22.0612   -2.7580   23.2875 H   0  0  0  0  0  0
  -22.4036  -11.9937   22.4774 H   0  0  0  0  0  0
  -21.1059  -13.1306   22.2574 H   0  0  0  0  0  0
  -24.6855  -15.8507   20.6442 H   0  0  0  0  0  0
  -26.3005  -15.6455   20.2039 H   0  0  0  0  0  0
  -26.7190  -32.5537   23.1131 H   0  0  0  0  0  0
  -25.0053  -33.9715   25.0519 H   0  0  0  0  0  0
  -22.6880  -31.3086   21.4215 H   0  0  0  0  0  0
  -23.3799  -35.9584   23.3312 H   0  0  0  0  0  0
  -24.3577  -36.8867   22.2068 H   0  0  0  0  0  0
  -23.7169  -37.6481   23.6605 H   0  0  0  0  0  0
  -26.1069  -31.6534   20.6547 H   0  0  0  0  0  0
  -26.8144  -30.8544   22.0077 H   0  0  0  0  0  0
  -28.1351  -29.1184   21.0713 H   0  0  0  0  0  0
  -25.9992  -25.9508   19.0394 H   0  0  0  0  0  0
  -23.9755  -27.3205   19.0154 H   0  0  0  0  0  0
  -23.7174  -30.6349   19.4080 H   0  0  0  0  0  0
  -22.7370  -29.2602   19.8400 H   0  0  0  0  0  0
  -25.1289  -36.2069   25.0897 H   0  0  0  0  0  0
  -21.0139  -28.3293   24.1160 H   0  0  0  0  0  0
  -20.5470  -26.2207   23.3541 H   0  0  0  0  0  0
  -21.6526  -26.7468   22.1076 H   0  0  0  0  0  0
  -19.6840  -25.6370   21.1277 H   0  0  0  0  0  0
  -19.6773  -27.3265   20.6691 H   0  0  0  0  0  0
  -17.4492  -26.7243   21.3220 H   0  0  0  0  0  0
  -17.9649  -25.9904   22.8200 H   0  0  0  0  0  0
  -19.7700  -30.7155   24.2881 H   0  0  0  0  0  0
  -17.4768  -31.6174   24.5493 H   0  0  0  0  0  0
  -15.5255  -30.3043   23.7505 H   0  0  0  0  0  0
  -15.8498  -28.0999   22.6779 H   0  0  0  0  0  0
  -24.5889  -30.7091   25.7660 H   0  0  0  0  0  0
  -24.8878  -32.2828   26.4843 H   0  0  0  0  0  0
  -25.7940  -30.8801   27.0174 H   0  0  0  0  0  0
  -26.3006  -29.6693   24.1273 H   0  0  0  0  0  0
  -27.4202  -29.7367   25.4713 H   0  0  0  0  0  0
  -27.8821  -30.4344   23.9375 H   0  0  0  0  0  0
  -27.2730  -33.3612   26.2039 H   0  0  0  0  0  0
  -28.3790  -32.6894   25.0171 H   0  0  0  0  0  0
  -28.0864  -31.8439   26.5250 H   0  0  0  0  0  0
  -28.2687  -38.0076   24.7583 H   0  0  0  0  0  0
  -28.1047  -36.2630   24.6274 H   0  0  0  0  0  0
  -27.2299  -37.1459   25.8867 H   0  0  0  0  0  0
  -20.9545  -29.8808   21.6988 H   0  0  0  0  0  0
  -26.0232  -38.2948   24.1402 H   0  0  0  0  0  0
  -25.3512  -21.1648   21.2392 H   0  0  0  0  0  0
  -30.2249  -20.9275   24.3320 H   0  0  0  0  0  0
  -29.1407  -22.1164   24.9902 H   0  0  0  0  0  0
  -29.1306  -21.8012   23.2552 H   0  0  0  0  0  0
  -25.8274  -17.0115   25.0847 H   0  0  0  0  0  0
  -25.5905  -17.8503   23.5638 H   0  0  0  0  0  0
  -25.9222  -18.7725   25.0254 H   0  0  0  0  0  0
  -25.6906  -23.0645   22.1162 H   0  0  0  0  0  0
  -25.3278  -23.0970   20.4176 H   0  0  0  0  0  0
  -25.7930  -24.5658   21.2256 H   0  0  0  0  0  0
  -28.5573  -17.8064   19.7271 H   0  0  0  0  0  0
  -29.9608  -18.7859   19.4838 H   0  0  0  0  0  0
  -27.1661  -20.6996   24.3549 H   0  0  0  0  0  0
  -28.2416  -19.9437   25.4971 H   0  0  0  0  0  0
  -27.9153  -16.8666   23.6389 H   0  0  0  0  0  0
  -28.1845  -17.6337   25.1807 H   0  0  0  0  0  0
  -29.1074  -23.6173   19.5478 H   0  0  0  0  0  0
  -27.5638  -24.0658   18.9487 H   0  0  0  0  0  0
  -30.3158  -17.3828   22.0414 H   0  0  0  0  0  0
  -31.2716  -17.3040   20.6206 H   0  0  0  0  0  0
  -29.3165  -25.2427   21.2306 H   0  0  0  0  0  0
  -27.6484  -25.4844   21.3987 H   0  0  0  0  0  0
  -28.0485  -23.1231   21.7877 H   0  0  0  0  0  0
  -29.3354  -18.8008   23.4344 H   0  0  0  0  0  0
  -28.8459  -15.5803   20.8232 H   0  0  0  0  0  0
  1 25  1  0  0  0
  1 30  2  0  0  0
  1 88  1  0  0  0
  2  3  1  0  0  0
  2 25  1  0  0  0
  2 89  1  0  0  0
  2 90  1  0  0  0
  3  4  1  0  0  0
  3 91  1  0  0  0
  3 92  1  0  0  0
  4  5  1  0  0  0
  4 93  1  0  0  0
  4 94  1  0  0  0
  5  6  1  0  0  0
  5 26  1  0  0  0
  5 95  1  0  0  0
  6 25  1  0  0  0
  6 96  1  0  0  0
  6 97  1  0  0  0
  7  8  2  0  0  0
  7 26  1  0  0  0
  7 29  1  0  0  0
  8  9  1  0  0  0
  8 22  1  0  0  0
  9 10  1  0  0  0
  9 27  2  0  0  0
 10 11  2  0  0  0
 10 15  1  0  0  0
 11 12  1  0  0  0
 11 98  1  0  0  0
 12 13  2  0  0  0
 12 99  1  0  0  0
 13 14  1  0  0  0
 13 31  1  0  0  0
 14 15  2  0  0  0
 14100  1  0  0  0
 15101  1  0  0  0
 16 17  2  0  0  0
 16 21  1  0  0  0
 16 31  1  0  0  0
 17 18  1  0  0  0
 17102  1  0  0  0
 18 19  2  0  0  0
 18103  1  0  0  0
 19 20  1  0  0  0
 19 24  1  0  0  0
 20 21  2  0  0  0
 20104  1  0  0  0
 21 23  1  0  0  0
 22 28  1  0  0  0
 22 32  2  0  0  0
 26 27  1  0  0  0
 28105  1  0  0  0
 28106  1  0  0  0
 29107  1  0  0  0
 29108  1  0  0  0
 33 34  1  0  0  0
 33 66  1  0  0  0
 33 70  2  0  0  0
 34 36  1  0  0  0
 34 59  1  0  0  0
 34109  1  0  0  0
 35 44  2  0  0  0
 35 45  1  0  0  0
 35 68  1  0  0  0
 36 56  1  0  0  0
 36110  1  0  0  0
 37 39  1  0  0  0
 37 47  1  0  0  0
 37 66  1  0  0  0
 37111  1  0  0  0
 38 43  2  0  0  0
 38 46  1  0  0  0
 38 47  1  0  0  0
 39 64  1  0  0  0
 39 67  2  0  0  0
 40 52  1  0  0  0
 40 53  2  0  0  0
 40 58  1  0  0  0
 41112  1  0  0  0
 41113  1  0  0  0
 41114  1  0  0  0
 41 48  1  0  0  0
 42 43  1  0  0  0
 42 66  1  0  0  0
 42115  1  0  0  0
 42116  1  0  0  0
 43 44  1  0  0  0
 44117  1  0  0  0
 45 46  2  0  0  0
 45118  1  0  0  0
 46119  1  0  0  0
 47120  1  0  0  0
 47121  1  0  0  0
 48 56  1  0  0  0
 48 65  1  0  0  0
 48122  1  0  0  0
 49 50  1  0  0  0
 49 53  1  0  0  0
 49 64  1  0  0  0
 49123  1  0  0  0
 50 51  1  0  0  0
 50124  1  0  0  0
 50125  1  0  0  0
 51 52  1  0  0  0
 51126  1  0  0  0
 51127  1  0  0  0
 52128  1  0  0  0
 52129  1  0  0  0
 53 54  1  0  0  0
 54 55  2  0  0  0
 54130  1  0  0  0
 55 57  1  0  0  0
 55131  1  0  0  0
 56 69  2  0  0  0
 57 58  2  0  0  0
 57132  1  0  0  0
 58133  1  0  0  0
 59 60  1  0  0  0
 59 61  1  0  0  0
 59 62  1  0  0  0
 60134  1  0  0  0
 60135  1  0  0  0
 60136  1  0  0  0
 61137  1  0  0  0
 61138  1  0  0  0
 61139  1  0  0  0
 62140  1  0  0  0
 62141  1  0  0  0
 62142  1  0  0  0
 63 65  1  0  0  0
 63143  1  0  0  0
 63144  1  0  0  0
 63145  1  0  0  0
 64146  1  0  0  0
 65147  1  0  0  0
 68 83  1  0  0  0
 71 72  2  0  0  0
 71 86  1  0  0  0
 71148  1  0  0  0
 72 84  1  0  0  0
 72 87  1  0  0  0
 73 74  1  0  0  0
 73 78  1  0  0  0
 73 87  2  0  0  0
 74 85  1  0  0  0
 74 86  2  0  0  0
 75 79  1  0  0  0
 75149  1  0  0  0
 75150  1  0  0  0
 75151  1  0  0  0
 76 80  1  0  0  0
 76152  1  0  0  0
 76153  1  0  0  0
 76154  1  0  0  0
 77155  1  0  0  0
 77156  1  0  0  0
 77157  1  0  0  0
 77 84  1  0  0  0
 78 82  1  0  0  0
 78158  1  0  0  0
 78159  1  0  0  0
 79160  1  0  0  0
 79161  1  0  0  0
 79 85  1  0  0  0
 80 85  1  0  0  0
 80162  1  0  0  0
 80163  1  0  0  0
 81 83  1  0  0  0
 81 84  1  0  0  0
 81164  1  0  0  0
 81165  1  0  0  0
 82 88  1  0  0  0
 82166  1  0  0  0
 82167  1  0  0  0
 83168  1  0  0  0
 83169  1  0  0  0
 84170  1  0  0  0
 85171  1  0  0  0
 88172  1  0  0  0
M  ISO  4   1 100  68 101  83 101  88 100
M  END
> <chiral flag>
0

> <version>
0

> <s_m_source_file>
/data/baiqing/PycharmProjects/Reinvent-master-3.2/result/LINK_invent/BTK/process_docking_weight1_custom_sum_contain_oxygen_bond_distance_aromatic_linkinvent_7_9_3/rearranged_h_0097.sdf

> <i_m_source_file_index>
67

> <r_mmod_Potential_Energy-OPLS-2005>
395.577850341797

> <r_mmod_Stretch_Energy-OPLS-2005>
76.2222213745117

> <r_mmod_Bend_Energy-OPLS-2005>
175.550674438477

> <r_mmod_Torsional_Energy-OPLS-2005>
419.378601074219

> <r_mmod_Improper_Torsional_Energy-OPLS-2005>
22.3122520446777

> <r_mmod_Van_der_Waal_Energy-OPLS-2005>
166.469497680664

> <r_mmod_Electrostatic_Energy-OPLS-2005>
-298.821472167969

> <r_mmod_Solvation_Energy-OPLS-2005>
-208.436279296875

> <b_mmod_Minimization_Converged-OPLS-2005>
0

> <r_mmod_RMS_Derivative-OPLS-2005>
16.6727085113525

$$$$
68
                    3D
 Structure written by MMmdl.
163171  0  0  1  0            999 V2000
  -30.6320  -14.8093   20.4445 C   0  0  0  0  0  0
  -30.4237  -12.4945   19.5089 C   0  0  0  0  0  0
  -29.5309  -12.4486   18.2404 C   0  0  0  0  0  0
  -28.0403  -12.7659   18.5109 C   0  0  0  0  0  0
  -27.7101  -12.7615   20.0066 C   0  0  2  0  0  0
  -28.6843  -13.3464   21.0253 C   0  0  0  0  0  0
  -25.3079  -13.7526   20.5537 C   0  0  0  0  0  0
  -24.1851  -13.0383   20.9096 C   0  0  0  0  0  0
  -24.5730  -11.6679   20.8873 C   0  0  0  0  0  0
  -23.8418  -10.4234   21.0623 C   0  0  0  0  0  0
  -24.3205   -9.4177   21.9306 C   0  0  0  0  0  0
  -23.6068   -8.2129   22.0770 C   0  0  0  0  0  0
  -22.4078   -8.0128   21.3517 C   0  0  0  0  0  0
  -21.9589   -9.0070   20.4647 C   0  0  0  0  0  0
  -22.6727  -10.2038   20.3153 C   0  0  0  0  0  0
  -21.6781   -6.0636   22.5268 C   0  0  0  0  0  0
  -21.3961   -6.5583   23.8198 C   0  0  0  0  0  0
  -21.3634   -5.6759   24.9174 C   0  0  0  0  0  0
  -21.6048   -4.3024   24.7234 C   0  0  0  0  0  0
  -21.8830   -3.8090   23.4363 C   0  0  0  0  0  0
  -21.9173   -4.6889   22.3406 C   0  0  0  0  0  0
  -22.8001  -13.5557   21.1762 C   0  0  0  0  0  0
  -22.1672   -4.2090   21.0985 F   0  0  0  0  0  0
  -21.5642   -3.4505   25.7743 F   0  0  0  0  0  0
  -29.9793  -13.6059   20.3855 N   0  0  0  0  0  0
  -26.3021  -12.7861   20.3707 N   0  0  0  0  0  0
  -25.8358  -11.5502   20.5937 N   0  0  0  0  0  0
  -22.0493  -12.8655   22.0305 N   0  0  0  0  0  0
  -25.5466  -15.1106   20.3731 N   0  0  0  0  0  0
  -31.8166  -14.8927   20.1208 O   0  0  0  0  0  0
  -21.6541   -6.8692   21.4190 O   0  0  0  0  0  0
  -22.3855  -14.5888   20.6552 O   0  0  0  0  0  0
  -24.6260  -31.8605   23.2022 C   0  0  0  0  0  0
  -25.9115  -32.4790   23.8344 C   0  0  1  0  0  0
  -27.2380  -27.3133   20.1207 C   0  0  0  0  0  0
  -25.5937  -33.8585   24.2273 N   0  0  0  0  0  0
  -23.4216  -30.4819   21.5440 C   0  0  2  0  0  0
  -24.8747  -28.9423   20.1062 C   0  0  0  0  0  0
  -22.7481  -29.4619   22.4921 C   0  0  0  0  0  0
  -18.0291  -28.1385   22.8483 C   0  0  0  0  0  0
  -24.1489  -36.7288   23.2617 C   0  0  0  0  0  0
  -25.9628  -30.7900   21.3774 C   0  0  0  0  0  0
  -26.0419  -29.4167   20.7201 C   0  0  0  0  0  0
  -27.2220  -28.6129   20.7219 C   0  0  0  0  0  0
  -26.0516  -26.9145   19.4554 C   0  0  0  0  0  0
  -24.8853  -27.6990   19.4621 C   0  0  0  0  0  0
  -23.6400  -29.8185   20.1588 C   0  0  0  0  0  0
  -25.4110  -36.3087   24.0317 C   0  0  1  0  0  0
  -20.5891  -28.3690   23.1278 C   0  0  2  0  0  0
  -20.6781  -26.9413   22.5415 C   0  0  0  0  0  0
  -19.5758  -26.6389   21.5212 C   0  0  0  0  0  0
  -18.1936  -26.7937   22.1619 C   0  0  0  0  0  0
  -19.1540  -28.8851   23.2887 C   0  0  0  0  0  0
  -18.9466  -30.1459   23.8904 C   0  0  0  0  0  0
  -17.6464  -30.6590   24.0564 C   0  0  0  0  0  0
  -25.9054  -34.9458   23.5091 C   0  0  0  0  0  0
  -16.5356  -29.9090   23.6318 C   0  0  0  0  0  0
  -16.7279  -28.6502   23.0343 C   0  0  0  0  0  0
  -26.4501  -31.6599   25.0705 C   0  0  0  0  0  0
  -25.3741  -31.3813   26.1450 C   0  0  0  0  0  0
  -27.0306  -30.2997   24.6171 C   0  0  0  0  0  0
  -27.6085  -32.4322   25.7455 C   0  0  0  0  0  0
  -27.5587  -37.1798   24.8457 C   0  0  0  0  0  0
  -21.4191  -29.3039   22.3661 N   0  0  0  0  0  0
  -26.4292  -37.3785   23.9415 N   0  0  0  0  0  0
  -24.6885  -31.0612   22.0983 N   0  0  0  0  0  0
  -23.4194  -28.8167   23.3010 O   0  0  0  0  0  0
  -28.3431  -26.4380   20.2052 O   0  0  0  0  0  0
  -26.5614  -34.8918   22.4654 O   0  0  0  0  0  0
  -23.5418  -32.1409   23.7330 O   0  0  0  0  0  0
  -28.2684  -17.6209   18.9003 C   0  0  0  0  0  0
  -27.8005  -19.7793   18.7136 C   0  0  0  0  0  0
  -27.4737  -18.5605   18.2024 C   0  0  0  0  0  0
  -29.1084  -18.2562   19.7775 C   0  0  0  0  0  0
  -25.0679  -18.0837   17.6846 C   0  0  0  0  0  0
  -26.8936  -17.0785   16.2363 C   0  0  0  0  0  0
  -30.1172  -17.4359   20.6360 C   0  0  0  0  0  0
  -28.6512  -22.3406   19.8736 C   0  0  0  0  0  0
  -29.0588  -23.7976   20.4191 C   0  0  0  0  0  0
  -29.3891  -20.9500   20.2791 C   0  0  0  0  0  0
  -28.1230  -24.9956   19.9053 C   0  0  0  0  0  0
  -26.4736  -18.2777   17.1040 C   0  0  0  0  0  0
  -28.8233  -19.6773   19.6591 N   0  0  0  0  0  0
  -29.8603  -15.9314   20.6882 N   0  0  0  0  0  0
  -31.4730  -12.5870   19.2248 H   0  0  0  0  0  0
  -30.3516  -11.5588   20.0668 H   0  0  0  0  0  0
  -29.6165  -11.4528   17.8026 H   0  0  0  0  0  0
  -29.9201  -13.1361   17.4879 H   0  0  0  0  0  0
  -27.4063  -12.0555   17.9755 H   0  0  0  0  0  0
  -27.7981  -13.7498   18.1071 H   0  0  0  0  0  0
  -27.9984  -11.7178   20.1685 H   0  0  0  0  0  0
  -28.8265  -12.6699   21.8700 H   0  0  0  0  0  0
  -28.2346  -14.2412   21.4568 H   0  0  0  0  0  0
  -25.2342   -9.5751   22.4855 H   0  0  0  0  0  0
  -23.9864   -7.4519   22.7430 H   0  0  0  0  0  0
  -21.0554   -8.8485   19.8925 H   0  0  0  0  0  0
  -22.3166  -10.9582   19.6280 H   0  0  0  0  0  0
  -21.1941   -7.6095   23.9672 H   0  0  0  0  0  0
  -21.1464   -6.0508   25.9078 H   0  0  0  0  0  0
  -22.0644   -2.7557   23.2882 H   0  0  0  0  0  0
  -22.3960  -12.0247   22.4681 H   0  0  0  0  0  0
  -21.1163  -13.1844   22.2509 H   0  0  0  0  0  0
  -24.8060  -15.7992   20.4361 H   0  0  0  0  0  0
  -26.3988  -15.4795   19.9709 H   0  0  0  0  0  0
  -26.7171  -32.5463   23.1086 H   0  0  0  0  0  0
  -25.0130  -33.9729   25.0441 H   0  0  0  0  0  0
  -22.7156  -31.3015   21.3990 H   0  0  0  0  0  0
  -23.3757  -35.9620   23.3258 H   0  0  0  0  0  0
  -24.3594  -36.8919   22.2042 H   0  0  0  0  0  0
  -23.7220  -37.6478   23.6628 H   0  0  0  0  0  0
  -26.0912  -31.5534   20.6089 H   0  0  0  0  0  0
  -26.8420  -30.8418   22.0079 H   0  0  0  0  0  0
  -28.1104  -28.9740   21.2236 H   0  0  0  0  0  0
  -25.9928  -25.9752   18.9262 H   0  0  0  0  0  0
  -24.0010  -27.3380   18.9557 H   0  0  0  0  0  0
  -23.7536  -30.5936   19.3997 H   0  0  0  0  0  0
  -22.7631  -29.2421   19.8541 H   0  0  0  0  0  0
  -25.1280  -36.1952   25.0808 H   0  0  0  0  0  0
  -20.9980  -28.3273   24.1398 H   0  0  0  0  0  0
  -20.5673  -26.2301   23.3613 H   0  0  0  0  0  0
  -21.6658  -26.7448   22.1217 H   0  0  0  0  0  0
  -19.6924  -25.6296   21.1250 H   0  0  0  0  0  0
  -19.6704  -27.3183   20.6731 H   0  0  0  0  0  0
  -17.4216  -26.6673   21.4020 H   0  0  0  0  0  0
  -18.0348  -26.0070   22.9005 H   0  0  0  0  0  0
  -19.7941  -30.7274   24.2269 H   0  0  0  0  0  0
  -17.5019  -31.6265   24.5176 H   0  0  0  0  0  0
  -15.5355  -30.3001   23.7634 H   0  0  0  0  0  0
  -15.8678  -28.0833   22.7048 H   0  0  0  0  0  0
  -24.5898  -30.7154   25.7829 H   0  0  0  0  0  0
  -24.8949  -32.3012   26.4806 H   0  0  0  0  0  0
  -25.8068  -30.9068   27.0261 H   0  0  0  0  0  0
  -26.2880  -29.6793   24.1132 H   0  0  0  0  0  0
  -27.3905  -29.7222   25.4695 H   0  0  0  0  0  0
  -27.8797  -30.4244   23.9448 H   0  0  0  0  0  0
  -27.2722  -33.3634   26.2024 H   0  0  0  0  0  0
  -28.3894  -32.6864   25.0275 H   0  0  0  0  0  0
  -28.0736  -31.8443   26.5377 H   0  0  0  0  0  0
  -28.2606  -38.0100   24.7511 H   0  0  0  0  0  0
  -28.1079  -36.2625   24.6259 H   0  0  0  0  0  0
  -27.2302  -37.1428   25.8860 H   0  0  0  0  0  0
  -20.9368  -29.8770   21.6876 H   0  0  0  0  0  0
  -26.0167  -38.2857   24.1431 H   0  0  0  0  0  0
  -28.2415  -16.5514   18.7452 H   0  0  0  0  0  0
  -27.3766  -20.7337   18.4334 H   0  0  0  0  0  0
  -24.7513  -18.9657   18.2420 H   0  0  0  0  0  0
  -25.0332  -17.2318   18.3640 H   0  0  0  0  0  0
  -24.3335  -17.9149   16.8955 H   0  0  0  0  0  0
  -27.9232  -17.1836   15.8928 H   0  0  0  0  0  0
  -26.2630  -16.9992   15.3516 H   0  0  0  0  0  0
  -26.8210  -16.1336   16.7786 H   0  0  0  0  0  0
  -30.0831  -17.8151   21.6594 H   0  0  0  0  0  0
  -31.1319  -17.6210   20.2847 H   0  0  0  0  0  0
  -28.7077  -22.4230   18.7870 H   0  0  0  0  0  0
  -27.5887  -22.2246   20.0974 H   0  0  0  0  0  0
  -30.0925  -24.0096   20.1475 H   0  0  0  0  0  0
  -29.0357  -23.7847   21.5106 H   0  0  0  0  0  0
  -29.3980  -20.8308   21.3633 H   0  0  0  0  0  0
  -30.4330  -21.0217   19.9662 H   0  0  0  0  0  0
  -27.1339  -24.7276   20.2747 H   0  0  0  0  0  0
  -28.0866  -24.9230   18.8182 H   0  0  0  0  0  0
  -26.4567  -19.1602   16.4620 H   0  0  0  0  0  0
  -28.9045  -15.7062   20.9169 H   0  0  0  0  0  0
  1 25  1  0  0  0
  1 30  2  0  0  0
  1 84  1  0  0  0
  2  3  1  0  0  0
  2 25  1  0  0  0
  2 85  1  0  0  0
  2 86  1  0  0  0
  3  4  1  0  0  0
  3 87  1  0  0  0
  3 88  1  0  0  0
  4  5  1  0  0  0
  4 89  1  0  0  0
  4 90  1  0  0  0
  5  6  1  0  0  0
  5 26  1  0  0  0
  5 91  1  0  0  0
  6 25  1  0  0  0
  6 92  1  0  0  0
  6 93  1  0  0  0
  7  8  2  0  0  0
  7 26  1  0  0  0
  7 29  1  0  0  0
  8  9  1  0  0  0
  8 22  1  0  0  0
  9 10  1  0  0  0
  9 27  2  0  0  0
 10 11  2  0  0  0
 10 15  1  0  0  0
 11 12  1  0  0  0
 11 94  1  0  0  0
 12 13  2  0  0  0
 12 95  1  0  0  0
 13 14  1  0  0  0
 13 31  1  0  0  0
 14 15  2  0  0  0
 14 96  1  0  0  0
 15 97  1  0  0  0
 16 17  2  0  0  0
 16 21  1  0  0  0
 16 31  1  0  0  0
 17 18  1  0  0  0
 17 98  1  0  0  0
 18 19  2  0  0  0
 18 99  1  0  0  0
 19 20  1  0  0  0
 19 24  1  0  0  0
 20 21  2  0  0  0
 20100  1  0  0  0
 21 23  1  0  0  0
 22 28  1  0  0  0
 22 32  2  0  0  0
 26 27  1  0  0  0
 28101  1  0  0  0
 28102  1  0  0  0
 29103  1  0  0  0
 29104  1  0  0  0
 33 34  1  0  0  0
 33 66  1  0  0  0
 33 70  2  0  0  0
 34 36  1  0  0  0
 34 59  1  0  0  0
 34105  1  0  0  0
 35 44  2  0  0  0
 35 45  1  0  0  0
 35 68  1  0  0  0
 36 56  1  0  0  0
 36106  1  0  0  0
 37 39  1  0  0  0
 37 47  1  0  0  0
 37 66  1  0  0  0
 37107  1  0  0  0
 38 43  2  0  0  0
 38 46  1  0  0  0
 38 47  1  0  0  0
 39 64  1  0  0  0
 39 67  2  0  0  0
 40 52  1  0  0  0
 40 53  2  0  0  0
 40 58  1  0  0  0
 41108  1  0  0  0
 41109  1  0  0  0
 41110  1  0  0  0
 41 48  1  0  0  0
 42 43  1  0  0  0
 42 66  1  0  0  0
 42111  1  0  0  0
 42112  1  0  0  0
 43 44  1  0  0  0
 44113  1  0  0  0
 45 46  2  0  0  0
 45114  1  0  0  0
 46115  1  0  0  0
 47116  1  0  0  0
 47117  1  0  0  0
 48 56  1  0  0  0
 48 65  1  0  0  0
 48118  1  0  0  0
 49 50  1  0  0  0
 49 53  1  0  0  0
 49 64  1  0  0  0
 49119  1  0  0  0
 50 51  1  0  0  0
 50120  1  0  0  0
 50121  1  0  0  0
 51 52  1  0  0  0
 51122  1  0  0  0
 51123  1  0  0  0
 52124  1  0  0  0
 52125  1  0  0  0
 53 54  1  0  0  0
 54 55  2  0  0  0
 54126  1  0  0  0
 55 57  1  0  0  0
 55127  1  0  0  0
 56 69  2  0  0  0
 57 58  2  0  0  0
 57128  1  0  0  0
 58129  1  0  0  0
 59 60  1  0  0  0
 59 61  1  0  0  0
 59 62  1  0  0  0
 60130  1  0  0  0
 60131  1  0  0  0
 60132  1  0  0  0
 61133  1  0  0  0
 61134  1  0  0  0
 61135  1  0  0  0
 62136  1  0  0  0
 62137  1  0  0  0
 62138  1  0  0  0
 63 65  1  0  0  0
 63139  1  0  0  0
 63140  1  0  0  0
 63141  1  0  0  0
 64142  1  0  0  0
 65143  1  0  0  0
 68 81  1  0  0  0
 71 73  1  0  0  0
 71 74  2  0  0  0
 71144  1  0  0  0
 72 73  2  0  0  0
 72 83  1  0  0  0
 72145  1  0  0  0
 73 82  1  0  0  0
 74 77  1  0  0  0
 74 83  1  0  0  0
 75146  1  0  0  0
 75147  1  0  0  0
 75148  1  0  0  0
 75 82  1  0  0  0
 76 82  1  0  0  0
 76149  1  0  0  0
 76150  1  0  0  0
 76151  1  0  0  0
 77 84  1  0  0  0
 77152  1  0  0  0
 77153  1  0  0  0
 78 79  1  0  0  0
 78 80  1  0  0  0
 78154  1  0  0  0
 78155  1  0  0  0
 79 81  1  0  0  0
 79156  1  0  0  0
 79157  1  0  0  0
 80 83  1  0  0  0
 80158  1  0  0  0
 80159  1  0  0  0
 81160  1  0  0  0
 81161  1  0  0  0
 82162  1  0  0  0
 84163  1  0  0  0
M  ISO  4   1 100  68 101  81 101  84 100
M  END
> <chiral flag>
0

> <version>
0

> <s_m_source_file>
/data/baiqing/PycharmProjects/Reinvent-master-3.2/result/LINK_invent/BTK/process_docking_weight1_custom_sum_contain_oxygen_bond_distance_aromatic_linkinvent_7_9_3/rearranged_h_0097.sdf

> <i_m_source_file_index>
68

> <r_mmod_Potential_Energy-OPLS-2005>
212.636016845703

> <r_mmod_Stretch_Energy-OPLS-2005>
110.607162475586

> <r_mmod_Bend_Energy-OPLS-2005>
227.04020690918

> <r_mmod_Torsional_Energy-OPLS-2005>
231.573791503906

> <r_mmod_Improper_Torsional_Energy-OPLS-2005>
4.03966951370239

> <r_mmod_Van_der_Waal_Energy-OPLS-2005>
134.108856201172

> <r_mmod_Electrostatic_Energy-OPLS-2005>
-440.825592041016

> <r_mmod_Solvation_Energy-OPLS-2005>
-203.018905639648

> <b_mmod_Minimization_Converged-OPLS-2005>
0

> <r_mmod_RMS_Derivative-OPLS-2005>
3.93449234962463

$$$$
69
                    3D
 Structure written by MMmdl.
176184  0  0  1  0            999 V2000
  -30.7269  -14.4667   20.6025 C   0  0  0  0  0  0
  -30.4141  -12.3104   19.4353 C   0  0  0  0  0  0
  -29.4912  -12.4977   18.2155 C   0  0  0  0  0  0
  -28.0136  -12.3488   18.6280 C   0  0  0  0  0  0
  -27.6553  -13.2013   19.8737 C   0  0  2  0  0  0
  -28.6960  -13.0095   21.0021 C   0  0  0  0  0  0
  -25.2556  -13.8170   20.5636 C   0  0  0  0  0  0
  -24.1790  -13.0431   20.9150 C   0  0  0  0  0  0
  -24.6314  -11.6908   20.8684 C   0  0  0  0  0  0
  -23.8985  -10.4285   21.0356 C   0  0  0  0  0  0
  -24.3550   -9.4224   21.9155 C   0  0  0  0  0  0
  -23.6242   -8.2257   22.0751 C   0  0  0  0  0  0
  -22.4251   -8.0255   21.3529 C   0  0  0  0  0  0
  -21.9831   -9.0230   20.4641 C   0  0  0  0  0  0
  -22.7130  -10.2124   20.3027 C   0  0  0  0  0  0
  -21.6856   -6.0701   22.5258 C   0  0  0  0  0  0
  -21.4017   -6.5603   23.8197 C   0  0  0  0  0  0
  -21.3664   -5.6768   24.9163 C   0  0  0  0  0  0
  -21.6039   -4.3047   24.7211 C   0  0  0  0  0  0
  -21.8814   -3.8112   23.4348 C   0  0  0  0  0  0
  -21.9183   -4.6916   22.3384 C   0  0  0  0  0  0
  -22.7836  -13.5282   21.1843 C   0  0  0  0  0  0
  -22.1646   -4.2081   21.0961 F   0  0  0  0  0  0
  -21.5640   -3.4538   25.7737 F   0  0  0  0  0  0
  -30.0255  -13.3077   20.4471 N   0  0  0  0  0  0
  -26.2969  -12.9289   20.3359 N   0  0  0  0  0  0
  -25.9245  -11.6467   20.5749 N   0  0  0  0  0  0
  -22.0458  -12.8303   22.0390 N   0  0  0  0  0  0
  -25.4429  -15.1846   20.4022 N   0  0  0  0  0  0
  -31.8334  -14.6457   20.0913 O   0  0  0  0  0  0
  -21.6635   -6.8840   21.4222 O   0  0  0  0  0  0
  -22.3544  -14.5587   20.6680 O   0  0  0  0  0  0
  -24.6159  -31.8721   23.2093 C   0  0  0  0  0  0
  -25.9086  -32.4809   23.8355 C   0  0  1  0  0  0
  -27.2174  -27.4202   20.0695 C   0  0  0  0  0  0
  -25.5967  -33.8604   24.2297 N   0  0  0  0  0  0
  -23.4014  -30.4985   21.5518 C   0  0  2  0  0  0
  -24.8424  -28.9711   20.1146 C   0  0  0  0  0  0
  -22.7390  -29.4712   22.5024 C   0  0  0  0  0  0
  -18.0301  -28.1334   22.8465 C   0  0  0  0  0  0
  -24.1533  -36.7255   23.2634 C   0  0  0  0  0  0
  -25.9384  -30.8263   21.3721 C   0  0  0  0  0  0
  -26.0104  -29.4668   20.7043 C   0  0  0  0  0  0
  -27.2024  -28.6997   20.6805 C   0  0  0  0  0  0
  -26.0180  -26.9552   19.4732 C   0  0  0  0  0  0
  -24.8416  -27.7139   19.4987 C   0  0  0  0  0  0
  -23.6062  -29.8351   20.1657 C   0  0  0  0  0  0
  -25.4152  -36.3070   24.0333 C   0  0  1  0  0  0
  -20.5884  -28.3601   23.1331 C   0  0  2  0  0  0
  -20.6739  -26.9340   22.5428 C   0  0  0  0  0  0
  -19.5794  -26.6404   21.5135 C   0  0  0  0  0  0
  -18.1965  -26.7922   22.1514 C   0  0  0  0  0  0
  -19.1530  -28.8791   23.2896 C   0  0  0  0  0  0
  -18.9443  -30.1398   23.8915 C   0  0  0  0  0  0
  -17.6428  -30.6525   24.0552 C   0  0  0  0  0  0
  -25.9068  -34.9451   23.5095 C   0  0  0  0  0  0
  -16.5337  -29.8996   23.6353 C   0  0  0  0  0  0
  -16.7282  -28.6422   23.0358 C   0  0  0  0  0  0
  -26.4498  -31.6574   25.0680 C   0  0  0  0  0  0
  -25.3761  -31.3654   26.1403 C   0  0  0  0  0  0
  -27.0319  -30.3019   24.6075 C   0  0  0  0  0  0
  -27.6091  -32.4248   25.7443 C   0  0  0  0  0  0
  -27.5593  -37.1787   24.8472 C   0  0  0  0  0  0
  -21.4128  -29.2942   22.3679 N   0  0  0  0  0  0
  -26.4322  -37.3767   23.9384 N   0  0  0  0  0  0
  -24.6703  -31.0790   22.1013 N   0  0  0  0  0  0
  -23.4166  -28.8353   23.3141 O   0  0  0  0  0  0
  -28.3647  -26.6342   20.0813 O   0  0  0  0  0  0
  -26.5585  -34.8909   22.4629 O   0  0  0  0  0  0
  -23.5350  -32.1500   23.7461 O   0  0  0  0  0  0
  -29.6708  -21.8686   21.5853 C   0  0  0  0  0  0
  -30.2994  -19.4462   21.4912 C   0  0  0  0  0  0
  -29.3502  -20.5018   21.2653 C   0  0  0  0  0  0
  -30.8529  -22.0960   22.3346 C   0  0  0  0  0  0
  -31.5245  -19.8077   22.1355 C   0  0  0  0  0  0
  -31.2311  -23.4262   22.9761 C   0  0  0  0  0  0
  -32.6993  -18.8875   22.4489 C   0  0  0  0  0  0
  -27.5370  -19.3352   23.8744 C   0  0  0  0  0  0
  -25.1641  -19.6859   23.2154 C   0  0  0  0  0  0
  -28.7411  -23.0534   21.2211 C   0  0  0  0  0  0
  -29.9389  -17.9927   21.0330 C   0  0  0  0  0  0
  -29.2933  -24.2719   20.4078 C   0  0  0  0  0  0
  -30.6953  -16.7680   21.6221 C   0  0  0  0  0  0
  -26.9166  -20.4552   21.6205 C   0  0  0  0  0  0
  -28.1311  -25.2123   19.9958 C   0  0  0  0  0  0
  -26.5667  -19.3854   22.6820 C   0  0  0  0  0  0
  -31.7077  -21.0814   22.5464 N   0  3  0  0  0  0
  -28.0779  -20.1506   20.7746 N   0  0  0  0  0  0
  -30.1086  -15.4547   21.2793 N   0  0  0  0  0  0
  -31.4593  -12.3945   19.1419 H   0  0  0  0  0  0
  -30.3067  -11.3059   19.8452 H   0  0  0  0  0  0
  -29.7402  -11.7816   17.4319 H   0  0  0  0  0  0
  -29.6472  -13.4851   17.7788 H   0  0  0  0  0  0
  -27.8213  -11.2942   18.8325 H   0  0  0  0  0  0
  -27.3646  -12.6121   17.7941 H   0  0  0  0  0  0
  -27.6910  -14.2410   19.5519 H   0  0  0  0  0  0
  -28.6770  -11.9757   21.3489 H   0  0  0  0  0  0
  -28.4466  -13.6152   21.8773 H   0  0  0  0  0  0
  -25.2677   -9.5728   22.4743 H   0  0  0  0  0  0
  -23.9939   -7.4644   22.7481 H   0  0  0  0  0  0
  -21.0749   -8.8703   19.8955 H   0  0  0  0  0  0
  -22.3534  -10.9648   19.6143 H   0  0  0  0  0  0
  -21.2040   -7.6127   23.9663 H   0  0  0  0  0  0
  -21.1495   -6.0521   25.9057 H   0  0  0  0  0  0
  -22.0598   -2.7566   23.2856 H   0  0  0  0  0  0
  -22.4075  -11.9977   22.4786 H   0  0  0  0  0  0
  -21.1100  -13.1405   22.2615 H   0  0  0  0  0  0
  -24.7004  -15.8680   20.5022 H   0  0  0  0  0  0
  -26.3162  -15.5960   20.0925 H   0  0  0  0  0  0
  -26.7155  -32.5523   23.1080 H   0  0  0  0  0  0
  -25.0241  -33.9763   25.0522 H   0  0  0  0  0  0
  -22.6913  -31.3166   21.4182 H   0  0  0  0  0  0
  -23.3795  -35.9581   23.3303 H   0  0  0  0  0  0
  -24.3639  -36.8847   22.2046 H   0  0  0  0  0  0
  -23.7296  -37.6473   23.6629 H   0  0  0  0  0  0
  -26.0635  -31.6025   20.6167 H   0  0  0  0  0  0
  -26.8192  -30.8618   22.0009 H   0  0  0  0  0  0
  -28.1029  -29.0727   21.1490 H   0  0  0  0  0  0
  -25.9497  -25.9963   18.9873 H   0  0  0  0  0  0
  -23.9342  -27.3242   19.0552 H   0  0  0  0  0  0
  -23.7130  -30.6101   19.4068 H   0  0  0  0  0  0
  -22.7319  -29.2502   19.8725 H   0  0  0  0  0  0
  -25.1345  -36.1899   25.0835 H   0  0  0  0  0  0
  -20.9956  -28.3133   24.1458 H   0  0  0  0  0  0
  -20.5488  -26.2232   23.3581 H   0  0  0  0  0  0
  -21.6645  -26.7337   22.1322 H   0  0  0  0  0  0
  -19.6997  -25.6348   21.1075 H   0  0  0  0  0  0
  -19.6768  -27.3313   20.6731 H   0  0  0  0  0  0
  -17.4238  -26.6686   21.3898 H   0  0  0  0  0  0
  -18.0384  -26.0019   22.8860 H   0  0  0  0  0  0
  -19.7915  -30.7200   24.2322 H   0  0  0  0  0  0
  -17.4968  -31.6222   24.5111 H   0  0  0  0  0  0
  -15.5323  -30.2852   23.7693 H   0  0  0  0  0  0
  -15.8690  -28.0730   22.7073 H   0  0  0  0  0  0
  -24.5930  -30.7021   25.7680 H   0  0  0  0  0  0
  -24.8944  -32.2821   26.4814 H   0  0  0  0  0  0
  -25.8140  -30.8815   27.0154 H   0  0  0  0  0  0
  -26.2882  -29.6777   24.1143 H   0  0  0  0  0  0
  -27.4081  -29.7254   25.4527 H   0  0  0  0  0  0
  -27.8713  -30.4303   23.9232 H   0  0  0  0  0  0
  -27.2751  -33.3540   26.2064 H   0  0  0  0  0  0
  -28.3904  -32.6823   25.0285 H   0  0  0  0  0  0
  -28.0739  -31.8310   26.5316 H   0  0  0  0  0  0
  -28.2624  -38.0075   24.7519 H   0  0  0  0  0  0
  -28.1112  -36.2618   24.6340 H   0  0  0  0  0  0
  -27.2299  -37.1441   25.8877 H   0  0  0  0  0  0
  -20.9323  -29.8312   21.6582 H   0  0  0  0  0  0
  -26.0204  -38.2842   24.1388 H   0  0  0  0  0  0
  -31.5230  -23.2813   24.0233 H   0  0  0  0  0  0
  -30.4001  -24.1307   22.9867 H   0  0  0  0  0  0
  -32.0704  -23.8795   22.4423 H   0  0  0  0  0  0
  -32.4464  -18.1265   23.1856 H   0  0  0  0  0  0
  -33.5107  -19.4588   22.8967 H   0  0  0  0  0  0
  -33.1025  -18.4113   21.5520 H   0  0  0  0  0  0
  -27.1618  -18.6538   24.6438 H   0  0  0  0  0  0
  -27.6493  -20.3139   24.3444 H   0  0  0  0  0  0
  -28.5228  -18.9698   23.5893 H   0  0  0  0  0  0
  -24.8289  -18.9373   23.9328 H   0  0  0  0  0  0
  -24.4389  -19.7129   22.4046 H   0  0  0  0  0  0
  -25.1350  -20.6570   23.7176 H   0  0  0  0  0  0
  -28.3114  -23.4204   22.1508 H   0  0  0  0  0  0
  -27.9043  -22.6817   20.6375 H   0  0  0  0  0  0
  -30.0411  -17.9638   19.9473 H   0  0  0  0  0  0
  -28.8842  -17.8214   21.2476 H   0  0  0  0  0  0
  -29.8058  -23.9408   19.5027 H   0  0  0  0  0  0
  -30.0328  -24.8327   20.9721 H   0  0  0  0  0  0
  -30.7092  -16.8388   22.7080 H   0  0  0  0  0  0
  -31.7250  -16.7876   21.2664 H   0  0  0  0  0  0
  -27.0001  -21.4213   22.1176 H   0  0  0  0  0  0
  -26.0626  -20.5537   20.9492 H   0  0  0  0  0  0
  -27.2901  -25.0018   20.6615 H   0  0  0  0  0  0
  -27.8128  -24.9324   18.9857 H   0  0  0  0  0  0
  -26.5340  -18.3976   22.2174 H   0  0  0  0  0  0
  -32.5714  -21.2979   23.0519 H   0  0  0  0  0  0
  -28.0312  -19.2245   20.3635 H   0  0  0  0  0  0
  -29.1817  -15.2601   21.6220 H   0  0  0  0  0  0
  1 25  1  0  0  0
  1 30  2  0  0  0
  1 89  1  0  0  0
  2  3  1  0  0  0
  2 25  1  0  0  0
  2 90  1  0  0  0
  2 91  1  0  0  0
  3  4  1  0  0  0
  3 92  1  0  0  0
  3 93  1  0  0  0
  4  5  1  0  0  0
  4 94  1  0  0  0
  4 95  1  0  0  0
  5  6  1  0  0  0
  5 26  1  0  0  0
  5 96  1  0  0  0
  6 25  1  0  0  0
  6 97  1  0  0  0
  6 98  1  0  0  0
  7  8  2  0  0  0
  7 26  1  0  0  0
  7 29  1  0  0  0
  8  9  1  0  0  0
  8 22  1  0  0  0
  9 10  1  0  0  0
  9 27  2  0  0  0
 10 11  2  0  0  0
 10 15  1  0  0  0
 11 12  1  0  0  0
 11 99  1  0  0  0
 12 13  2  0  0  0
 12100  1  0  0  0
 13 14  1  0  0  0
 13 31  1  0  0  0
 14 15  2  0  0  0
 14101  1  0  0  0
 15102  1  0  0  0
 16 17  2  0  0  0
 16 21  1  0  0  0
 16 31  1  0  0  0
 17 18  1  0  0  0
 17103  1  0  0  0
 18 19  2  0  0  0
 18104  1  0  0  0
 19 20  1  0  0  0
 19 24  1  0  0  0
 20 21  2  0  0  0
 20105  1  0  0  0
 21 23  1  0  0  0
 22 28  1  0  0  0
 22 32  2  0  0  0
 26 27  1  0  0  0
 28106  1  0  0  0
 28107  1  0  0  0
 29108  1  0  0  0
 29109  1  0  0  0
 33 34  1  0  0  0
 33 66  1  0  0  0
 33 70  2  0  0  0
 34 36  1  0  0  0
 34 59  1  0  0  0
 34110  1  0  0  0
 35 44  2  0  0  0
 35 45  1  0  0  0
 35 68  1  0  0  0
 36 56  1  0  0  0
 36111  1  0  0  0
 37 39  1  0  0  0
 37 47  1  0  0  0
 37 66  1  0  0  0
 37112  1  0  0  0
 38 43  2  0  0  0
 38 46  1  0  0  0
 38 47  1  0  0  0
 39 64  1  0  0  0
 39 67  2  0  0  0
 40 52  1  0  0  0
 40 53  2  0  0  0
 40 58  1  0  0  0
 41113  1  0  0  0
 41114  1  0  0  0
 41115  1  0  0  0
 41 48  1  0  0  0
 42 43  1  0  0  0
 42 66  1  0  0  0
 42116  1  0  0  0
 42117  1  0  0  0
 43 44  1  0  0  0
 44118  1  0  0  0
 45 46  2  0  0  0
 45119  1  0  0  0
 46120  1  0  0  0
 47121  1  0  0  0
 47122  1  0  0  0
 48 56  1  0  0  0
 48 65  1  0  0  0
 48123  1  0  0  0
 49 50  1  0  0  0
 49 53  1  0  0  0
 49 64  1  0  0  0
 49124  1  0  0  0
 50 51  1  0  0  0
 50125  1  0  0  0
 50126  1  0  0  0
 51 52  1  0  0  0
 51127  1  0  0  0
 51128  1  0  0  0
 52129  1  0  0  0
 52130  1  0  0  0
 53 54  1  0  0  0
 54 55  2  0  0  0
 54131  1  0  0  0
 55 57  1  0  0  0
 55132  1  0  0  0
 56 69  2  0  0  0
 57 58  2  0  0  0
 57133  1  0  0  0
 58134  1  0  0  0
 59 60  1  0  0  0
 59 61  1  0  0  0
 59 62  1  0  0  0
 60135  1  0  0  0
 60136  1  0  0  0
 60137  1  0  0  0
 61138  1  0  0  0
 61139  1  0  0  0
 61140  1  0  0  0
 62141  1  0  0  0
 62142  1  0  0  0
 62143  1  0  0  0
 63 65  1  0  0  0
 63144  1  0  0  0
 63145  1  0  0  0
 63146  1  0  0  0
 64147  1  0  0  0
 65148  1  0  0  0
 68 85  1  0  0  0
 71 73  2  0  0  0
 71 74  1  0  0  0
 71 80  1  0  0  0
 72 73  1  0  0  0
 72 75  2  0  0  0
 72 81  1  0  0  0
 73 88  1  0  0  0
 74 76  1  0  0  0
 74 87  2  0  0  0
 75 77  1  0  0  0
 75 87  1  0  0  0
 76149  1  0  0  0
 76150  1  0  0  0
 76151  1  0  0  0
 77152  1  0  0  0
 77153  1  0  0  0
 77154  1  0  0  0
 78155  1  0  0  0
 78156  1  0  0  0
 78157  1  0  0  0
 78 86  1  0  0  0
 79 86  1  0  0  0
 79158  1  0  0  0
 79159  1  0  0  0
 79160  1  0  0  0
 80 82  1  0  0  0
 80161  1  0  0  0
 80162  1  0  0  0
 81 83  1  0  0  0
 81163  1  0  0  0
 81164  1  0  0  0
 82 85  1  0  0  0
 82165  1  0  0  0
 82166  1  0  0  0
 83 89  1  0  0  0
 83167  1  0  0  0
 83168  1  0  0  0
 84 86  1  0  0  0
 84 88  1  0  0  0
 84169  1  0  0  0
 84170  1  0  0  0
 85171  1  0  0  0
 85172  1  0  0  0
 86173  1  0  0  0
 87174  1  0  0  0
 88175  1  0  0  0
 89176  1  0  0  0
M  CHG  1  87   1
M  ISO  4   1 100  68 101  85 101  89 100
M  END
> <chiral flag>
0

> <version>
0

> <s_m_source_file>
/data/baiqing/PycharmProjects/Reinvent-master-3.2/result/LINK_invent/BTK/process_docking_weight1_custom_sum_contain_oxygen_bond_distance_aromatic_linkinvent_7_9_3/rearranged_h_0097.sdf

> <i_m_source_file_index>
69

> <r_mmod_Potential_Energy-OPLS-2005>
-76.226203918457

> <r_mmod_Stretch_Energy-OPLS-2005>
54.7108497619629

> <r_mmod_Bend_Energy-OPLS-2005>
130.810607910156

> <r_mmod_Torsional_Energy-OPLS-2005>
225.285049438477

> <r_mmod_Improper_Torsional_Energy-OPLS-2005>
6.46693181991577

> <r_mmod_Van_der_Waal_Energy-OPLS-2005>
181.070449829102

> <r_mmod_Electrostatic_Energy-OPLS-2005>
-287.833862304688

> <r_mmod_Solvation_Energy-OPLS-2005>
-402.285797119141

> <b_mmod_Minimization_Converged-OPLS-2005>
0

> <r_mmod_RMS_Derivative-OPLS-2005>
6.6170449256897

$$$$
70
                    3D
 Structure written by MMmdl.
178186  0  0  1  0            999 V2000
  -30.6673  -14.5050   20.5890 C   0  0  0  0  0  0
  -30.4341  -12.3374   19.4042 C   0  0  0  0  0  0
  -29.4903  -12.5159   18.1960 C   0  0  0  0  0  0
  -28.0130  -12.3679   18.6165 C   0  0  0  0  0  0
  -27.6610  -13.2029   19.8750 C   0  0  2  0  0  0
  -28.7074  -12.9736   20.9876 C   0  0  0  0  0  0
  -25.2605  -13.8143   20.5695 C   0  0  0  0  0  0
  -24.1862  -13.0440   20.9184 C   0  0  0  0  0  0
  -24.6414  -11.6893   20.8754 C   0  0  0  0  0  0
  -23.9096  -10.4283   21.0430 C   0  0  0  0  0  0
  -24.3628   -9.4197   21.9205 C   0  0  0  0  0  0
  -23.6292   -8.2240   22.0769 C   0  0  0  0  0  0
  -22.4280   -8.0285   21.3556 C   0  0  0  0  0  0
  -21.9925   -9.0273   20.4655 C   0  0  0  0  0  0
  -22.7267  -10.2143   20.3066 C   0  0  0  0  0  0
  -21.6852   -6.0750   22.5284 C   0  0  0  0  0  0
  -21.4011   -6.5645   23.8216 C   0  0  0  0  0  0
  -21.3660   -5.6787   24.9177 C   0  0  0  0  0  0
  -21.6045   -4.3061   24.7227 C   0  0  0  0  0  0
  -21.8822   -3.8149   23.4342 C   0  0  0  0  0  0
  -21.9191   -4.6970   22.3400 C   0  0  0  0  0  0
  -22.7883  -13.5227   21.1852 C   0  0  0  0  0  0
  -22.1662   -4.2150   21.0976 F   0  0  0  0  0  0
  -21.5633   -3.4543   25.7732 F   0  0  0  0  0  0
  -30.0292  -13.3114   20.4295 N   0  0  0  0  0  0
  -26.3036  -12.9307   20.3383 N   0  0  0  0  0  0
  -25.9333  -11.6471   20.5781 N   0  0  0  0  0  0
  -22.0521  -12.8216   22.0389 N   0  0  0  0  0  0
  -25.4355  -15.1881   20.4118 N   0  0  0  0  0  0
  -31.8092  -14.7222   20.1774 O   0  0  0  0  0  0
  -21.6640   -6.8893   21.4237 O   0  0  0  0  0  0
  -22.3567  -14.5552   20.6718 O   0  0  0  0  0  0
  -24.6168  -31.8614   23.2128 C   0  0  0  0  0  0
  -25.9052  -32.4776   23.8399 C   0  0  1  0  0  0
  -27.2138  -27.3731   20.0728 C   0  0  0  0  0  0
  -25.5867  -33.8579   24.2308 N   0  0  0  0  0  0
  -23.4074  -30.4897   21.5583 C   0  0  2  0  0  0
  -24.8492  -28.9672   20.1094 C   0  0  0  0  0  0
  -22.7402  -29.4621   22.5034 C   0  0  0  0  0  0
  -18.0232  -28.1388   22.8466 C   0  0  0  0  0  0
  -24.1492  -36.7339   23.2645 C   0  0  0  0  0  0
  -25.9433  -30.8073   21.3762 C   0  0  0  0  0  0
  -26.0177  -29.4383   20.7217 C   0  0  0  0  0  0
  -27.2017  -28.6499   20.7055 C   0  0  0  0  0  0
  -26.0178  -26.9527   19.4379 C   0  0  0  0  0  0
  -24.8466  -27.7236   19.4690 C   0  0  0  0  0  0
  -23.6137  -29.8356   20.1704 C   0  0  0  0  0  0
  -25.4103  -36.3063   24.0314 C   0  0  1  0  0  0
  -20.5827  -28.3668   23.1321 C   0  0  2  0  0  0
  -20.6763  -26.9415   22.5413 C   0  0  0  0  0  0
  -19.5759  -26.6393   21.5188 C   0  0  0  0  0  0
  -18.1925  -26.7934   22.1594 C   0  0  0  0  0  0
  -19.1482  -28.8842   23.2899 C   0  0  0  0  0  0
  -18.9412  -30.1442   23.8919 C   0  0  0  0  0  0
  -17.6419  -30.6612   24.0534 C   0  0  0  0  0  0
  -25.9024  -34.9438   23.5108 C   0  0  0  0  0  0
  -16.5302  -29.9101   23.6343 C   0  0  0  0  0  0
  -16.7213  -28.6528   23.0344 C   0  0  0  0  0  0
  -26.4475  -31.6537   25.0716 C   0  0  0  0  0  0
  -25.3714  -31.3569   26.1415 C   0  0  0  0  0  0
  -27.0342  -30.2986   24.6119 C   0  0  0  0  0  0
  -27.6081  -32.4199   25.7473 C   0  0  0  0  0  0
  -27.5573  -37.1801   24.8449 C   0  0  0  0  0  0
  -21.4128  -29.3017   22.3734 N   0  0  0  0  0  0
  -26.4287  -37.3736   23.9389 N   0  0  0  0  0  0
  -24.6756  -31.0663   22.1081 N   0  0  0  0  0  0
  -23.4133  -28.8144   23.3102 O   0  0  0  0  0  0
  -28.3487  -26.5587   20.0826 O   0  0  0  0  0  0
  -26.5618  -34.8894   22.4702 O   0  0  0  0  0  0
  -23.5348  -32.1438   23.7447 O   0  0  0  0  0  0
  -29.8141  -20.2294   19.8285 C   0  0  0  0  0  0
  -29.4262  -21.4390   20.3625 C   0  0  0  0  0  0
  -29.5521  -21.2740   21.7730 C   0  0  0  0  0  0
  -30.1440  -20.0572   22.0276 C   0  0  0  0  0  0
  -29.1036  -22.2693   22.8113 C   0  0  0  0  0  0
  -33.7818  -23.1820   25.4661 C   0  0  0  0  0  0
  -31.4665  -24.1383   25.2892 C   0  0  0  0  0  0
  -28.8423  -22.6551   19.6092 C   0  0  0  0  0  0
  -30.6369  -19.5851   23.3715 C   0  0  0  0  0  0
  -29.2599  -24.1225   20.0189 C   0  0  0  0  0  0
  -31.7563  -21.6305   25.5920 C   0  0  0  0  0  0
  -30.6064  -17.9207   20.5487 C   0  0  0  0  0  0
  -30.2292  -16.8315   21.6058 C   0  0  0  0  0  0
  -32.3466  -20.3080   25.0439 C   0  0  0  0  0  0
  -28.1670  -25.1737   19.6534 C   0  0  0  0  0  0
  -32.3496  -22.9195   24.9749 C   0  0  0  0  0  0
  -30.1914  -19.3314   20.8295 N   0  0  0  0  0  0
  -29.8957  -15.4780   21.1151 N   0  0  0  0  0  0
  -32.0050  -20.0825   23.6216 N   0  3  0  0  0  0
  -31.4722  -12.4725   19.0960 H   0  0  0  0  0  0
  -30.3638  -11.3225   19.7978 H   0  0  0  0  0  0
  -29.7301  -11.7901   17.4176 H   0  0  0  0  0  0
  -29.6456  -13.5008   17.7518 H   0  0  0  0  0  0
  -27.8268  -11.3109   18.8105 H   0  0  0  0  0  0
  -27.3577  -12.6445   17.7899 H   0  0  0  0  0  0
  -27.7052  -14.2516   19.5799 H   0  0  0  0  0  0
  -28.6985  -11.9316   21.3110 H   0  0  0  0  0  0
  -28.4653  -13.5503   21.8814 H   0  0  0  0  0  0
  -25.2770   -9.5665   22.4782 H   0  0  0  0  0  0
  -23.9996   -7.4631   22.7482 H   0  0  0  0  0  0
  -21.0859   -8.8822   19.8942 H   0  0  0  0  0  0
  -22.3761  -10.9702   19.6174 H   0  0  0  0  0  0
  -21.2006   -7.6157   23.9721 H   0  0  0  0  0  0
  -21.1479   -6.0520   25.9074 H   0  0  0  0  0  0
  -22.0602   -2.7606   23.2843 H   0  0  0  0  0  0
  -22.4120  -11.9821   22.4695 H   0  0  0  0  0  0
  -21.1164  -13.1265   22.2639 H   0  0  0  0  0  0
  -24.6712  -15.8458   20.5231 H   0  0  0  0  0  0
  -26.2889  -15.6280   20.0915 H   0  0  0  0  0  0
  -26.7114  -32.5492   23.1157 H   0  0  0  0  0  0
  -24.9851  -33.9734   25.0326 H   0  0  0  0  0  0
  -22.6981  -31.3102   21.4253 H   0  0  0  0  0  0
  -23.3684  -35.9743   23.3284 H   0  0  0  0  0  0
  -24.3612  -36.9020   22.2074 H   0  0  0  0  0  0
  -23.7349  -37.6572   23.6712 H   0  0  0  0  0  0
  -26.0481  -31.5670   20.5994 H   0  0  0  0  0  0
  -26.8364  -30.8714   21.9885 H   0  0  0  0  0  0
  -28.0976  -29.0063   21.1948 H   0  0  0  0  0  0
  -25.9448  -26.0219   18.8974 H   0  0  0  0  0  0
  -23.9514  -27.3585   18.9839 H   0  0  0  0  0  0
  -23.7198  -30.6154   19.4144 H   0  0  0  0  0  0
  -22.7361  -29.2569   19.8764 H   0  0  0  0  0  0
  -25.1279  -36.1912   25.0801 H   0  0  0  0  0  0
  -20.9859  -28.3228   24.1466 H   0  0  0  0  0  0
  -20.5669  -26.2267   23.3588 H   0  0  0  0  0  0
  -21.6651  -26.7522   22.1198 H   0  0  0  0  0  0
  -19.6939  -25.6294   21.1257 H   0  0  0  0  0  0
  -19.6720  -27.3187   20.6701 H   0  0  0  0  0  0
  -17.4194  -26.6584   21.4008 H   0  0  0  0  0  0
  -18.0360  -26.0109   22.9022 H   0  0  0  0  0  0
  -19.7884  -30.7221   24.2350 H   0  0  0  0  0  0
  -17.4986  -31.6311   24.5098 H   0  0  0  0  0  0
  -15.5313  -30.2988   23.7740 H   0  0  0  0  0  0
  -15.8596  -28.0866   22.7058 H   0  0  0  0  0  0
  -24.5967  -30.6852   25.7692 H   0  0  0  0  0  0
  -24.8760  -32.2652   26.4839 H   0  0  0  0  0  0
  -25.8032  -30.8735   27.0191 H   0  0  0  0  0  0
  -26.2923  -29.6683   24.1192 H   0  0  0  0  0  0
  -27.4156  -29.7267   25.4600 H   0  0  0  0  0  0
  -27.8737  -30.4320   23.9296 H   0  0  0  0  0  0
  -27.2809  -33.3560   26.2016 H   0  0  0  0  0  0
  -28.3932  -32.6615   25.0289 H   0  0  0  0  0  0
  -28.0698  -31.8285   26.5400 H   0  0  0  0  0  0
  -28.2511  -38.0152   24.7505 H   0  0  0  0  0  0
  -28.1127  -36.2677   24.6238 H   0  0  0  0  0  0
  -27.2294  -37.1433   25.8846 H   0  0  0  0  0  0
  -20.9288  -29.8742   21.6966 H   0  0  0  0  0  0
  -26.0137  -38.2801   24.1366 H   0  0  0  0  0  0
  -29.8188  -19.9018   18.7967 H   0  0  0  0  0  0
  -28.2886  -22.8843   22.4274 H   0  0  0  0  0  0
  -29.9301  -22.9166   23.0953 H   0  0  0  0  0  0
  -28.7139  -21.7721   23.6991 H   0  0  0  0  0  0
  -34.1899  -24.0895   25.0188 H   0  0  0  0  0  0
  -34.4598  -22.3670   25.2115 H   0  0  0  0  0  0
  -33.8057  -23.3108   26.5497 H   0  0  0  0  0  0
  -31.8525  -25.0406   24.8118 H   0  0  0  0  0  0
  -31.4166  -24.3240   26.3624 H   0  0  0  0  0  0
  -30.4431  -24.0061   24.9394 H   0  0  0  0  0  0
  -27.7624  -22.5535   19.7180 H   0  0  0  0  0  0
  -29.0273  -22.5210   18.5421 H   0  0  0  0  0  0
  -30.5971  -18.5113   23.5130 H   0  0  0  0  0  0
  -29.9657  -19.9707   24.1356 H   0  0  0  0  0  0
  -30.2075  -24.3873   19.5497 H   0  0  0  0  0  0
  -29.4343  -24.2018   21.0871 H   0  0  0  0  0  0
  -31.9107  -21.6575   26.6716 H   0  0  0  0  0  0
  -30.6729  -21.6293   25.4668 H   0  0  0  0  0  0
  -30.1512  -17.6325   19.6000 H   0  0  0  0  0  0
  -31.6818  -17.9018   20.3707 H   0  0  0  0  0  0
  -29.3357  -17.1606   22.1382 H   0  0  0  0  0  0
  -31.0209  -16.7259   22.3489 H   0  0  0  0  0  0
  -32.0072  -19.4576   25.6394 H   0  0  0  0  0  0
  -33.4323  -20.3201   25.1411 H   0  0  0  0  0  0
  -27.2475  -24.7887   20.0963 H   0  0  0  0  0  0
  -28.0299  -25.1613   18.5705 H   0  0  0  0  0  0
  -32.3801  -22.8186   23.8891 H   0  0  0  0  0  0
  -28.9457  -15.1868   21.2940 H   0  0  0  0  0  0
  -32.1231  -20.9461   23.1181 H   0  0  0  0  0  0
  -32.6585  -19.4230   23.2306 H   0  0  0  0  0  0
  1 25  1  0  0  0
  1 30  2  0  0  0
  1 88  1  0  0  0
  2  3  1  0  0  0
  2 25  1  0  0  0
  2 90  1  0  0  0
  2 91  1  0  0  0
  3  4  1  0  0  0
  3 92  1  0  0  0
  3 93  1  0  0  0
  4  5  1  0  0  0
  4 94  1  0  0  0
  4 95  1  0  0  0
  5  6  1  0  0  0
  5 26  1  0  0  0
  5 96  1  0  0  0
  6 25  1  0  0  0
  6 97  1  0  0  0
  6 98  1  0  0  0
  7  8  2  0  0  0
  7 26  1  0  0  0
  7 29  1  0  0  0
  8  9  1  0  0  0
  8 22  1  0  0  0
  9 10  1  0  0  0
  9 27  2  0  0  0
 10 11  2  0  0  0
 10 15  1  0  0  0
 11 12  1  0  0  0
 11 99  1  0  0  0
 12 13  2  0  0  0
 12100  1  0  0  0
 13 14  1  0  0  0
 13 31  1  0  0  0
 14 15  2  0  0  0
 14101  1  0  0  0
 15102  1  0  0  0
 16 17  2  0  0  0
 16 21  1  0  0  0
 16 31  1  0  0  0
 17 18  1  0  0  0
 17103  1  0  0  0
 18 19  2  0  0  0
 18104  1  0  0  0
 19 20  1  0  0  0
 19 24  1  0  0  0
 20 21  2  0  0  0
 20105  1  0  0  0
 21 23  1  0  0  0
 22 28  1  0  0  0
 22 32  2  0  0  0
 26 27  1  0  0  0
 28106  1  0  0  0
 28107  1  0  0  0
 29108  1  0  0  0
 29109  1  0  0  0
 33 34  1  0  0  0
 33 66  1  0  0  0
 33 70  2  0  0  0
 34 36  1  0  0  0
 34 59  1  0  0  0
 34110  1  0  0  0
 35 44  2  0  0  0
 35 45  1  0  0  0
 35 68  1  0  0  0
 36 56  1  0  0  0
 36111  1  0  0  0
 37 39  1  0  0  0
 37 47  1  0  0  0
 37 66  1  0  0  0
 37112  1  0  0  0
 38 43  2  0  0  0
 38 46  1  0  0  0
 38 47  1  0  0  0
 39 64  1  0  0  0
 39 67  2  0  0  0
 40 52  1  0  0  0
 40 53  2  0  0  0
 40 58  1  0  0  0
 41113  1  0  0  0
 41114  1  0  0  0
 41115  1  0  0  0
 41 48  1  0  0  0
 42 43  1  0  0  0
 42 66  1  0  0  0
 42116  1  0  0  0
 42117  1  0  0  0
 43 44  1  0  0  0
 44118  1  0  0  0
 45 46  2  0  0  0
 45119  1  0  0  0
 46120  1  0  0  0
 47121  1  0  0  0
 47122  1  0  0  0
 48 56  1  0  0  0
 48 65  1  0  0  0
 48123  1  0  0  0
 49 50  1  0  0  0
 49 53  1  0  0  0
 49 64  1  0  0  0
 49124  1  0  0  0
 50 51  1  0  0  0
 50125  1  0  0  0
 50126  1  0  0  0
 51 52  1  0  0  0
 51127  1  0  0  0
 51128  1  0  0  0
 52129  1  0  0  0
 52130  1  0  0  0
 53 54  1  0  0  0
 54 55  2  0  0  0
 54131  1  0  0  0
 55 57  1  0  0  0
 55132  1  0  0  0
 56 69  2  0  0  0
 57 58  2  0  0  0
 57133  1  0  0  0
 58134  1  0  0  0
 59 60  1  0  0  0
 59 61  1  0  0  0
 59 62  1  0  0  0
 60135  1  0  0  0
 60136  1  0  0  0
 60137  1  0  0  0
 61138  1  0  0  0
 61139  1  0  0  0
 61140  1  0  0  0
 62141  1  0  0  0
 62142  1  0  0  0
 62143  1  0  0  0
 63 65  1  0  0  0
 63144  1  0  0  0
 63145  1  0  0  0
 63146  1  0  0  0
 64147  1  0  0  0
 65148  1  0  0  0
 68 85  1  0  0  0
 71 72  2  0  0  0
 71 87  1  0  0  0
 71149  1  0  0  0
 72 73  1  0  0  0
 72 78  1  0  0  0
 73 74  2  0  0  0
 73 75  1  0  0  0
 74 79  1  0  0  0
 74 87  1  0  0  0
 75150  1  0  0  0
 75151  1  0  0  0
 75152  1  0  0  0
 76153  1  0  0  0
 76154  1  0  0  0
 76155  1  0  0  0
 76 86  1  0  0  0
 77 86  1  0  0  0
 77156  1  0  0  0
 77157  1  0  0  0
 77158  1  0  0  0
 78 80  1  0  0  0
 78159  1  0  0  0
 78160  1  0  0  0
 79 89  1  0  0  0
 79161  1  0  0  0
 79162  1  0  0  0
 80 85  1  0  0  0
 80163  1  0  0  0
 80164  1  0  0  0
 81 84  1  0  0  0
 81 86  1  0  0  0
 81165  1  0  0  0
 81166  1  0  0  0
 82 83  1  0  0  0
 82 87  1  0  0  0
 82167  1  0  0  0
 82168  1  0  0  0
 83 88  1  0  0  0
 83169  1  0  0  0
 83170  1  0  0  0
 84 89  1  0  0  0
 84171  1  0  0  0
 84172  1  0  0  0
 85173  1  0  0  0
 85174  1  0  0  0
 86175  1  0  0  0
 88176  1  0  0  0
 89177  1  0  0  0
 89178  1  0  0  0
M  CHG  1  89   1
M  ISO  4   1 100  68 101  85 101  88 100
M  END
> <chiral flag>
0

> <version>
0

> <s_m_source_file>
/data/baiqing/PycharmProjects/Reinvent-master-3.2/result/LINK_invent/BTK/process_docking_weight1_custom_sum_contain_oxygen_bond_distance_aromatic_linkinvent_7_9_3/rearranged_h_0097.sdf

> <i_m_source_file_index>
70

> <r_mmod_Potential_Energy-OPLS-2005>
-204.086883544922

> <r_mmod_Stretch_Energy-OPLS-2005>
52.8694686889648

> <r_mmod_Bend_Energy-OPLS-2005>
139.645690917969

> <r_mmod_Torsional_Energy-OPLS-2005>
234.983016967773

> <r_mmod_Improper_Torsional_Energy-OPLS-2005>
3.72491455078125

> <r_mmod_Van_der_Waal_Energy-OPLS-2005>
132.266296386719

> <r_mmod_Electrostatic_Energy-OPLS-2005>
-342.509033203125

> <r_mmod_Solvation_Energy-OPLS-2005>
-448.368225097656

> <b_mmod_Minimization_Converged-OPLS-2005>
0

> <r_mmod_RMS_Derivative-OPLS-2005>
3.94217395782471

$$$$
71
                    3D
 Structure written by MMmdl.
172179  0  0  1  0            999 V2000
  -30.7019  -14.3865   20.6328 C   0  0  0  0  0  0
  -30.4280  -12.2713   19.3957 C   0  0  0  0  0  0
  -29.4890  -12.5141   18.1942 C   0  0  0  0  0  0
  -28.0109  -12.3742   18.6099 C   0  0  0  0  0  0
  -27.6715  -13.1876   19.8872 C   0  0  2  0  0  0
  -28.7097  -12.8896   20.9939 C   0  0  0  0  0  0
  -25.2637  -13.8123   20.5681 C   0  0  0  0  0  0
  -24.1848  -13.0415   20.9147 C   0  0  0  0  0  0
  -24.6383  -11.6884   20.8720 C   0  0  0  0  0  0
  -23.9047  -10.4276   21.0407 C   0  0  0  0  0  0
  -24.3599   -9.4192   21.9188 C   0  0  0  0  0  0
  -23.6271   -8.2229   22.0763 C   0  0  0  0  0  0
  -22.4261   -8.0264   21.3546 C   0  0  0  0  0  0
  -21.9900   -9.0238   20.4651 C   0  0  0  0  0  0
  -22.7223  -10.2122   20.3053 C   0  0  0  0  0  0
  -21.6844   -6.0720   22.5279 C   0  0  0  0  0  0
  -21.4007   -6.5631   23.8211 C   0  0  0  0  0  0
  -21.3657   -5.6789   24.9172 C   0  0  0  0  0  0
  -21.6048   -4.3054   24.7232 C   0  0  0  0  0  0
  -21.8819   -3.8140   23.4355 C   0  0  0  0  0  0
  -21.9193   -4.6950   22.3403 C   0  0  0  0  0  0
  -22.7882  -13.5245   21.1816 C   0  0  0  0  0  0
  -22.1655   -4.2132   21.0984 F   0  0  0  0  0  0
  -21.5633   -3.4543   25.7747 F   0  0  0  0  0  0
  -30.0523  -13.2063   20.4656 N   0  0  0  0  0  0
  -26.3068  -12.9258   20.3417 N   0  0  0  0  0  0
  -25.9307  -11.6433   20.5759 N   0  0  0  0  0  0
  -22.0509  -12.8229   22.0367 N   0  0  0  0  0  0
  -25.4400  -15.1831   20.4098 N   0  0  0  0  0  0
  -31.7595  -14.6762   20.0610 O   0  0  0  0  0  0
  -21.6626   -6.8863   21.4240 O   0  0  0  0  0  0
  -22.3574  -14.5553   20.6677 O   0  0  0  0  0  0
  -24.6083  -31.8707   23.2145 C   0  0  0  0  0  0
  -25.9011  -32.4837   23.8411 C   0  0  1  0  0  0
  -27.2507  -27.4752   20.0906 C   0  0  0  0  0  0
  -25.5874  -33.8637   24.2314 N   0  0  0  0  0  0
  -23.3954  -30.4924   21.5525 C   0  0  2  0  0  0
  -24.8467  -28.9530   20.1267 C   0  0  0  0  0  0
  -22.7379  -29.4650   22.5023 C   0  0  0  0  0  0
  -18.0254  -28.1368   22.8493 C   0  0  0  0  0  0
  -24.1465  -36.7284   23.2648 C   0  0  0  0  0  0
  -25.9208  -30.8407   21.3701 C   0  0  0  0  0  0
  -26.0013  -29.4742   20.7253 C   0  0  0  0  0  0
  -27.2044  -28.7362   20.7171 C   0  0  0  0  0  0
  -26.0815  -26.9508   19.5010 C   0  0  0  0  0  0
  -24.8765  -27.6825   19.5211 C   0  0  0  0  0  0
  -23.6070  -29.8189   20.1690 C   0  0  0  0  0  0
  -25.4107  -36.3110   24.0336 C   0  0  1  0  0  0
  -20.5847  -28.3638   23.1327 C   0  0  2  0  0  0
  -20.6755  -26.9379   22.5426 C   0  0  0  0  0  0
  -19.5731  -26.6384   21.5212 C   0  0  0  0  0  0
  -18.1905  -26.7924   22.1605 C   0  0  0  0  0  0
  -19.1511  -28.8826   23.2890 C   0  0  0  0  0  0
  -18.9453  -30.1432   23.8897 C   0  0  0  0  0  0
  -17.6471  -30.6599   24.0558 C   0  0  0  0  0  0
  -25.9040  -34.9480   23.5122 C   0  0  0  0  0  0
  -16.5360  -29.9112   23.6322 C   0  0  0  0  0  0
  -16.7256  -28.6511   23.0359 C   0  0  0  0  0  0
  -26.4465  -31.6642   25.0734 C   0  0  0  0  0  0
  -25.3761  -31.3793   26.1506 C   0  0  0  0  0  0
  -27.0320  -30.3093   24.6130 C   0  0  0  0  0  0
  -27.6011  -32.4433   25.7493 C   0  0  0  0  0  0
  -27.5562  -37.1800   24.8481 C   0  0  0  0  0  0
  -21.4119  -29.3011   22.3746 N   0  0  0  0  0  0
  -26.4289  -37.3788   23.9395 N   0  0  0  0  0  0
  -24.6575  -31.0829   22.1041 N   0  0  0  0  0  0
  -23.4160  -28.8195   23.3057 O   0  0  0  0  0  0
  -28.4550  -26.8267   19.9666 O   0  0  0  0  0  0
  -26.5606  -34.8919   22.4688 O   0  0  0  0  0  0
  -23.5283  -32.1472   23.7551 O   0  0  0  0  0  0
  -31.8224  -22.5209   24.1611 C   0  0  0  0  0  0
  -32.5467  -21.6502   21.9165 C   0  0  0  0  0  0
  -28.8041  -24.6010   19.6662 C   0  0  0  0  0  0
  -29.7307  -19.7911   24.4089 C   0  0  0  0  0  0
  -29.8949  -24.5099   22.4889 C   0  0  0  0  0  0
  -31.1296  -23.6979   22.0271 C   0  0  0  0  0  0
  -30.2223  -17.5802   22.3577 C   0  0  0  0  0  0
  -29.6443  -25.7538   21.6054 C   0  0  0  0  0  0
  -30.0012  -16.7164   21.1063 C   0  0  0  0  0  0
  -29.8495  -19.0469   22.0517 C   0  0  0  0  0  0
  -30.1089  -21.4319   22.6043 C   0  0  0  0  0  0
  -31.3857  -22.3150   22.6945 C   0  0  0  0  0  0
  -30.0254  -15.2795   21.3658 N   0  0  0  0  0  0
  -28.5039  -25.5906   20.6966 N   0  0  0  0  0  0
  -30.3134  -20.0299   23.0648 N   0  3  1  0  0  0
  -31.4712  -12.3808   19.0920 H   0  0  0  0  0  0
  -30.3283  -11.2434   19.7477 H   0  0  0  0  0  0
  -29.7147  -11.8112   17.3910 H   0  0  0  0  0  0
  -29.6621  -13.5106   17.7838 H   0  0  0  0  0  0
  -27.8202  -11.3154   18.7918 H   0  0  0  0  0  0
  -27.3546  -12.6643   17.7883 H   0  0  0  0  0  0
  -27.7417  -14.2438   19.6299 H   0  0  0  0  0  0
  -28.6715  -11.8320   21.2599 H   0  0  0  0  0  0
  -28.4664  -13.4150   21.9170 H   0  0  0  0  0  0
  -25.2746   -9.5662   22.4758 H   0  0  0  0  0  0
  -23.9977   -7.4628   22.7493 H   0  0  0  0  0  0
  -21.0832   -8.8757   19.8958 H   0  0  0  0  0  0
  -22.3690  -10.9653   19.6152 H   0  0  0  0  0  0
  -21.1989   -7.6139   23.9710 H   0  0  0  0  0  0
  -21.1480   -6.0519   25.9077 H   0  0  0  0  0  0
  -22.0603   -2.7603   23.2866 H   0  0  0  0  0  0
  -22.4098  -11.9864   22.4721 H   0  0  0  0  0  0
  -21.1134  -13.1278   22.2573 H   0  0  0  0  0  0
  -24.6817  -15.8472   20.5211 H   0  0  0  0  0  0
  -26.3023  -15.6201   20.1098 H   0  0  0  0  0  0
  -26.7077  -32.5567   23.1168 H   0  0  0  0  0  0
  -25.0018  -33.9807   25.0454 H   0  0  0  0  0  0
  -22.6796  -31.3052   21.4124 H   0  0  0  0  0  0
  -23.3729  -35.9614   23.3382 H   0  0  0  0  0  0
  -24.3538  -36.8861   22.2050 H   0  0  0  0  0  0
  -23.7240  -37.6504   23.6648 H   0  0  0  0  0  0
  -26.0398  -31.6102   20.6060 H   0  0  0  0  0  0
  -26.8031  -30.8925   21.9931 H   0  0  0  0  0  0
  -28.1034  -29.1392   21.1631 H   0  0  0  0  0  0
  -26.1125  -25.9920   19.0047 H   0  0  0  0  0  0
  -23.9878  -27.2723   19.0599 H   0  0  0  0  0  0
  -23.7178  -30.5937   19.4093 H   0  0  0  0  0  0
  -22.7284  -29.2424   19.8713 H   0  0  0  0  0  0
  -25.1298  -36.1949   25.0837 H   0  0  0  0  0  0
  -20.9913  -28.3214   24.1447 H   0  0  0  0  0  0
  -20.5679  -26.2250   23.3611 H   0  0  0  0  0  0
  -21.6628  -26.7458   22.1190 H   0  0  0  0  0  0
  -19.6904  -25.6301   21.1223 H   0  0  0  0  0  0
  -19.6673  -27.3187   20.6736 H   0  0  0  0  0  0
  -17.4177  -26.6670   21.3996 H   0  0  0  0  0  0
  -18.0276  -26.0066   22.8990 H   0  0  0  0  0  0
  -19.7961  -30.7207   24.2278 H   0  0  0  0  0  0
  -17.5070  -31.6289   24.5150 H   0  0  0  0  0  0
  -15.5362  -30.3024   23.7694 H   0  0  0  0  0  0
  -15.8639  -28.0858   22.7085 H   0  0  0  0  0  0
  -24.5787  -30.7318   25.7851 H   0  0  0  0  0  0
  -24.9109  -32.2982   26.5070 H   0  0  0  0  0  0
  -25.8083  -30.8821   27.0195 H   0  0  0  0  0  0
  -26.2868  -29.6829   24.1203 H   0  0  0  0  0  0
  -27.4134  -29.7352   25.4587 H   0  0  0  0  0  0
  -27.8677  -30.4424   23.9262 H   0  0  0  0  0  0
  -27.2572  -33.3735   26.2033 H   0  0  0  0  0  0
  -28.3791  -32.7051   25.0313 H   0  0  0  0  0  0
  -28.0707  -31.8633   26.5433 H   0  0  0  0  0  0
  -28.2610  -38.0063   24.7476 H   0  0  0  0  0  0
  -28.1019  -36.2585   24.6377 H   0  0  0  0  0  0
  -27.2260  -37.1568   25.8883 H   0  0  0  0  0  0
  -20.9300  -29.8722   21.6951 H   0  0  0  0  0  0
  -26.0169  -38.2855   24.1411 H   0  0  0  0  0  0
  -32.6757  -23.1969   24.2268 H   0  0  0  0  0  0
  -32.1361  -21.5904   24.6367 H   0  0  0  0  0  0
  -31.0234  -22.9498   24.7677 H   0  0  0  0  0  0
  -33.4275  -22.2969   21.8985 H   0  0  0  0  0  0
  -32.2803  -21.4562   20.8754 H   0  0  0  0  0  0
  -32.8649  -20.7061   22.3578 H   0  0  0  0  0  0
  -29.7204  -24.8587   19.1302 H   0  0  0  0  0  0
  -27.9943  -24.5479   18.9369 H   0  0  0  0  0  0
  -28.9163  -23.5985   20.0804 H   0  0  0  0  0  0
  -30.0444  -18.8299   24.8156 H   0  0  0  0  0  0
  -28.6402  -19.8078   24.3705 H   0  0  0  0  0  0
  -30.0411  -20.5578   25.1176 H   0  0  0  0  0  0
  -30.0532  -24.8345   23.5195 H   0  0  0  0  0  0
  -28.9875  -23.9095   22.5054 H   0  0  0  0  0  0
  -32.0125  -24.3244   22.1692 H   0  0  0  0  0  0
  -31.0642  -23.5562   20.9494 H   0  0  0  0  0  0
  -29.6163  -17.2038   23.1842 H   0  0  0  0  0  0
  -31.2654  -17.5055   22.6664 H   0  0  0  0  0  0
  -30.5453  -26.0194   21.0493 H   0  0  0  0  0  0
  -29.4328  -26.6053   22.2545 H   0  0  0  0  0  0
  -30.7250  -16.9978   20.3397 H   0  0  0  0  0  0
  -29.0181  -16.9321   20.6857 H   0  0  0  0  0  0
  -28.7685  -19.1310   21.9302 H   0  0  0  0  0  0
  -30.2879  -19.3169   21.0895 H   0  0  0  0  0  0
  -29.7575  -21.4487   21.5705 H   0  0  0  0  0  0
  -29.2971  -21.8717   23.1828 H   0  0  0  0  0  0
  -29.2240  -14.8970   21.8462 H   0  0  0  0  0  0
  -31.3129  -19.9149   23.1400 H   0  0  0  0  0  0
  1 25  1  0  0  0
  1 30  2  0  0  0
  1 83  1  0  0  0
  2  3  1  0  0  0
  2 25  1  0  0  0
  2 86  1  0  0  0
  2 87  1  0  0  0
  3  4  1  0  0  0
  3 88  1  0  0  0
  3 89  1  0  0  0
  4  5  1  0  0  0
  4 90  1  0  0  0
  4 91  1  0  0  0
  5  6  1  0  0  0
  5 26  1  0  0  0
  5 92  1  0  0  0
  6 25  1  0  0  0
  6 93  1  0  0  0
  6 94  1  0  0  0
  7  8  2  0  0  0
  7 26  1  0  0  0
  7 29  1  0  0  0
  8  9  1  0  0  0
  8 22  1  0  0  0
  9 10  1  0  0  0
  9 27  2  0  0  0
 10 11  2  0  0  0
 10 15  1  0  0  0
 11 12  1  0  0  0
 11 95  1  0  0  0
 12 13  2  0  0  0
 12 96  1  0  0  0
 13 14  1  0  0  0
 13 31  1  0  0  0
 14 15  2  0  0  0
 14 97  1  0  0  0
 15 98  1  0  0  0
 16 17  2  0  0  0
 16 21  1  0  0  0
 16 31  1  0  0  0
 17 18  1  0  0  0
 17 99  1  0  0  0
 18 19  2  0  0  0
 18100  1  0  0  0
 19 20  1  0  0  0
 19 24  1  0  0  0
 20 21  2  0  0  0
 20101  1  0  0  0
 21 23  1  0  0  0
 22 28  1  0  0  0
 22 32  2  0  0  0
 26 27  1  0  0  0
 28102  1  0  0  0
 28103  1  0  0  0
 29104  1  0  0  0
 29105  1  0  0  0
 33 34  1  0  0  0
 33 66  1  0  0  0
 33 70  2  0  0  0
 34 36  1  0  0  0
 34 59  1  0  0  0
 34106  1  0  0  0
 35 44  2  0  0  0
 35 45  1  0  0  0
 35 68  1  0  0  0
 36 56  1  0  0  0
 36107  1  0  0  0
 37 39  1  0  0  0
 37 47  1  0  0  0
 37 66  1  0  0  0
 37108  1  0  0  0
 38 43  2  0  0  0
 38 46  1  0  0  0
 38 47  1  0  0  0
 39 64  1  0  0  0
 39 67  2  0  0  0
 40 52  1  0  0  0
 40 53  2  0  0  0
 40 58  1  0  0  0
 41109  1  0  0  0
 41110  1  0  0  0
 41111  1  0  0  0
 41 48  1  0  0  0
 42 43  1  0  0  0
 42 66  1  0  0  0
 42112  1  0  0  0
 42113  1  0  0  0
 43 44  1  0  0  0
 44114  1  0  0  0
 45 46  2  0  0  0
 45115  1  0  0  0
 46116  1  0  0  0
 47117  1  0  0  0
 47118  1  0  0  0
 48 56  1  0  0  0
 48 65  1  0  0  0
 48119  1  0  0  0
 49 50  1  0  0  0
 49 53  1  0  0  0
 49 64  1  0  0  0
 49120  1  0  0  0
 50 51  1  0  0  0
 50121  1  0  0  0
 50122  1  0  0  0
 51 52  1  0  0  0
 51123  1  0  0  0
 51124  1  0  0  0
 52125  1  0  0  0
 52126  1  0  0  0
 53 54  1  0  0  0
 54 55  2  0  0  0
 54127  1  0  0  0
 55 57  1  0  0  0
 55128  1  0  0  0
 56 69  2  0  0  0
 57 58  2  0  0  0
 57129  1  0  0  0
 58130  1  0  0  0
 59 60  1  0  0  0
 59 61  1  0  0  0
 59 62  1  0  0  0
 60131  1  0  0  0
 60132  1  0  0  0
 60133  1  0  0  0
 61134  1  0  0  0
 61135  1  0  0  0
 61136  1  0  0  0
 62137  1  0  0  0
 62138  1  0  0  0
 62139  1  0  0  0
 63 65  1  0  0  0
 63140  1  0  0  0
 63141  1  0  0  0
 63142  1  0  0  0
 64143  1  0  0  0
 65144  1  0  0  0
 68 84  1  0  0  0
 71145  1  0  0  0
 71146  1  0  0  0
 71147  1  0  0  0
 71 82  1  0  0  0
 72 82  1  0  0  0
 72148  1  0  0  0
 72149  1  0  0  0
 72150  1  0  0  0
 73 84  1  0  0  0
 73151  1  0  0  0
 73152  1  0  0  0
 73153  1  0  0  0
 74154  1  0  0  0
 74155  1  0  0  0
 74156  1  0  0  0
 74 85  1  0  0  0
 75 76  1  0  0  0
 75 78  1  0  0  0
 75157  1  0  0  0
 75158  1  0  0  0
 76 82  1  0  0  0
 76159  1  0  0  0
 76160  1  0  0  0
 77 79  1  0  0  0
 77 80  1  0  0  0
 77161  1  0  0  0
 77162  1  0  0  0
 78 84  1  0  0  0
 78163  1  0  0  0
 78164  1  0  0  0
 79 83  1  0  0  0
 79165  1  0  0  0
 79166  1  0  0  0
 80 85  1  0  0  0
 80167  1  0  0  0
 80168  1  0  0  0
 81 82  1  0  0  0
 81 85  1  0  0  0
 81169  1  0  0  0
 81170  1  0  0  0
 83171  1  0  0  0
 85172  1  0  0  0
M  CHG  1  85   1
M  ISO  4   1 100  68 101  83 100  84 101
M  END
> <chiral flag>
0

> <version>
0

> <s_m_source_file>
/data/baiqing/PycharmProjects/Reinvent-master-3.2/result/LINK_invent/BTK/process_docking_weight1_custom_sum_contain_oxygen_bond_distance_aromatic_linkinvent_7_9_3/rearranged_h_0097.sdf

> <i_m_source_file_index>
71

> <r_mmod_Potential_Energy-OPLS-2005>
-138.455841064453

> <r_mmod_Stretch_Energy-OPLS-2005>
34.2267417907715

> <r_mmod_Bend_Energy-OPLS-2005>
101.53955078125

> <r_mmod_Torsional_Energy-OPLS-2005>
255.766204833984

> <r_mmod_Improper_Torsional_Energy-OPLS-2005>
5.11684417724609

> <r_mmod_Van_der_Waal_Energy-OPLS-2005>
141.940124511719

> <r_mmod_Electrostatic_Energy-OPLS-2005>
-239.959991455078

> <r_mmod_Solvation_Energy-OPLS-2005>
-445.553375244141

> <b_mmod_Minimization_Converged-OPLS-2005>
0

> <r_mmod_RMS_Derivative-OPLS-2005>
3.59624433517456

$$$$
72
                    3D
 Structure written by MMmdl.
163171  0  0  1  0            999 V2000
  -30.6122  -14.7255   20.4509 C   0  0  0  0  0  0
  -30.4303  -12.4445   19.4574 C   0  0  0  0  0  0
  -29.5030  -12.4926   18.2248 C   0  0  0  0  0  0
  -28.0292  -12.3240   18.6443 C   0  0  0  0  0  0
  -27.6371  -13.2285   19.8421 C   0  0  2  0  0  0
  -28.6841  -13.1612   20.9729 C   0  0  0  0  0  0
  -25.2496  -13.8189   20.5686 C   0  0  0  0  0  0
  -24.1789  -13.0435   20.9211 C   0  0  0  0  0  0
  -24.6368  -11.6914   20.8740 C   0  0  0  0  0  0
  -23.9050  -10.4290   21.0417 C   0  0  0  0  0  0
  -24.3611   -9.4203   21.9189 C   0  0  0  0  0  0
  -23.6282   -8.2241   22.0754 C   0  0  0  0  0  0
  -22.4267   -8.0277   21.3543 C   0  0  0  0  0  0
  -21.9904   -9.0250   20.4652 C   0  0  0  0  0  0
  -22.7228  -10.2128   20.3060 C   0  0  0  0  0  0
  -21.6851   -6.0726   22.5271 C   0  0  0  0  0  0
  -21.4015   -6.5638   23.8202 C   0  0  0  0  0  0
  -21.3659   -5.6797   24.9170 C   0  0  0  0  0  0
  -21.6044   -4.3056   24.7228 C   0  0  0  0  0  0
  -21.8817   -3.8143   23.4350 C   0  0  0  0  0  0
  -21.9193   -4.6956   22.3402 C   0  0  0  0  0  0
  -22.7816  -13.5223   21.1875 C   0  0  0  0  0  0
  -22.1658   -4.2146   21.0977 F   0  0  0  0  0  0
  -21.5631   -3.4533   25.7737 F   0  0  0  0  0  0
  -29.9803  -13.5083   20.3799 N   0  0  0  0  0  0
  -26.2909  -12.9388   20.3247 N   0  0  0  0  0  0
  -25.9291  -11.6531   20.5731 N   0  0  0  0  0  0
  -22.0460  -12.8208   22.0432 N   0  0  0  0  0  0
  -25.4170  -15.1911   20.4103 N   0  0  0  0  0  0
  -31.8153  -14.8096   20.1922 O   0  0  0  0  0  0
  -21.6636   -6.8868   21.4229 O   0  0  0  0  0  0
  -22.3495  -14.5525   20.6724 O   0  0  0  0  0  0
  -24.6279  -31.8574   23.1959 C   0  0  0  0  0  0
  -25.9110  -32.4773   23.8313 C   0  0  1  0  0  0
  -27.2196  -27.2781   20.1346 C   0  0  0  0  0  0
  -25.5920  -33.8571   24.2253 N   0  0  0  0  0  0
  -23.4247  -30.4780   21.5398 C   0  0  2  0  0  0
  -24.8721  -28.9217   20.1150 C   0  0  0  0  0  0
  -22.7490  -29.4622   22.4912 C   0  0  0  0  0  0
  -18.0303  -28.1380   22.8509 C   0  0  0  0  0  0
  -24.1480  -36.7273   23.2643 C   0  0  0  0  0  0
  -25.9691  -30.7779   21.3686 C   0  0  0  0  0  0
  -26.0449  -29.4001   20.7155 C   0  0  0  0  0  0
  -27.2277  -28.5943   20.7044 C   0  0  0  0  0  0
  -26.0248  -26.8568   19.5166 C   0  0  0  0  0  0
  -24.8654  -27.6572   19.5056 C   0  0  0  0  0  0
  -23.6423  -29.8055   20.1601 C   0  0  0  0  0  0
  -25.4112  -36.3083   24.0331 C   0  0  1  0  0  0
  -20.5901  -28.3698   23.1271 C   0  0  2  0  0  0
  -20.6788  -26.9415   22.5410 C   0  0  0  0  0  0
  -19.5762  -26.6382   21.5217 C   0  0  0  0  0  0
  -18.1941  -26.7933   22.1628 C   0  0  0  0  0  0
  -19.1552  -28.8862   23.2897 C   0  0  0  0  0  0
  -18.9469  -30.1450   23.8910 C   0  0  0  0  0  0
  -17.6466  -30.6592   24.0563 C   0  0  0  0  0  0
  -25.9055  -34.9457   23.5104 C   0  0  0  0  0  0
  -16.5362  -29.9093   23.6327 C   0  0  0  0  0  0
  -16.7287  -28.6506   23.0373 C   0  0  0  0  0  0
  -26.4479  -31.6589   25.0693 C   0  0  0  0  0  0
  -25.3703  -31.3735   26.1407 C   0  0  0  0  0  0
  -27.0313  -30.3015   24.6155 C   0  0  0  0  0  0
  -27.6041  -32.4324   25.7472 C   0  0  0  0  0  0
  -27.5575  -37.1794   24.8478 C   0  0  0  0  0  0
  -21.4203  -29.3044   22.3650 N   0  0  0  0  0  0
  -26.4293  -37.3780   23.9419 N   0  0  0  0  0  0
  -24.6927  -31.0538   22.0930 N   0  0  0  0  0  0
  -23.4200  -28.8177   23.3031 O   0  0  0  0  0  0
  -28.3126  -26.3899   20.1425 O   0  0  0  0  0  0
  -26.5629  -34.8941   22.4665 O   0  0  0  0  0  0
  -23.5428  -32.1388   23.7254 O   0  0  0  0  0  0
  -29.7738  -20.5751   19.1626 C   0  0  0  0  0  0
  -30.2013  -19.2095   19.2021 C   0  0  0  0  0  0
  -29.0774  -20.8799   20.3012 C   0  0  0  0  0  0
  -29.8076  -18.6199   20.3758 C   0  0  0  0  0  0
  -30.3579  -19.8278   23.6377 C   0  0  0  0  0  0
  -27.1038  -18.3978   21.9693 C   0  0  0  0  0  0
  -28.4517  -22.2524   20.7791 C   0  0  0  0  0  0
  -30.3339  -17.2559   20.9829 C   0  0  0  0  0  0
  -28.9954  -19.1325   23.5208 C   0  0  0  0  0  0
  -28.6846  -23.6619   20.0143 C   0  0  0  0  0  0
  -28.1059  -25.0114   20.6978 C   0  0  0  0  0  0
  -28.2055  -19.4371   22.2258 C   0  0  1  0  0  0
  -29.0133  -19.6318   21.0108 N   0  0  0  0  0  0
  -29.8429  -15.8639   20.6229 N   0  0  0  0  0  0
  -31.4691  -12.5766   19.1500 H   0  0  0  0  0  0
  -30.3785  -11.4716   19.9473 H   0  0  0  0  0  0
  -29.7836  -11.7133   17.5142 H   0  0  0  0  0  0
  -29.6277  -13.4426   17.7025 H   0  0  0  0  0  0
  -27.8798  -11.2767   18.9103 H   0  0  0  0  0  0
  -27.3746  -12.5181   17.7946 H   0  0  0  0  0  0
  -27.6307  -14.2492   19.4578 H   0  0  0  0  0  0
  -28.7170  -12.1645   21.4143 H   0  0  0  0  0  0
  -28.4279  -13.8465   21.7825 H   0  0  0  0  0  0
  -25.2756   -9.5681   22.4761 H   0  0  0  0  0  0
  -23.9996   -7.4630   22.7468 H   0  0  0  0  0  0
  -21.0835   -8.8769   19.8953 H   0  0  0  0  0  0
  -22.3686  -10.9670   19.6172 H   0  0  0  0  0  0
  -21.1997   -7.6144   23.9702 H   0  0  0  0  0  0
  -21.1489   -6.0528   25.9077 H   0  0  0  0  0  0
  -22.0597   -2.7601   23.2848 H   0  0  0  0  0  0
  -22.4096  -11.9889   22.4834 H   0  0  0  0  0  0
  -21.1071  -13.1224   22.2632 H   0  0  0  0  0  0
  -24.6453  -15.8399   20.5250 H   0  0  0  0  0  0
  -26.2520  -15.6331   20.0482 H   0  0  0  0  0  0
  -26.7185  -32.5445   23.1062 H   0  0  0  0  0  0
  -25.0084  -33.9733   25.0411 H   0  0  0  0  0  0
  -22.7193  -31.2980   21.3912 H   0  0  0  0  0  0
  -23.3767  -35.9581   23.3308 H   0  0  0  0  0  0
  -24.3576  -36.8882   22.2060 H   0  0  0  0  0  0
  -23.7213  -37.6470   23.6661 H   0  0  0  0  0  0
  -26.0986  -31.5326   20.5913 H   0  0  0  0  0  0
  -26.8511  -30.8341   21.9977 H   0  0  0  0  0  0
  -28.1319  -28.9651   21.1685 H   0  0  0  0  0  0
  -25.9809  -25.8787   19.0569 H   0  0  0  0  0  0
  -23.9646  -27.2808   19.0395 H   0  0  0  0  0  0
  -23.7639  -30.5763   19.3971 H   0  0  0  0  0  0
  -22.7632  -29.2338   19.8573 H   0  0  0  0  0  0
  -25.1291  -36.1927   25.0825 H   0  0  0  0  0  0
  -21.0011  -28.3266   24.1387 H   0  0  0  0  0  0
  -20.5663  -26.2301   23.3611 H   0  0  0  0  0  0
  -21.6655  -26.7435   22.1196 H   0  0  0  0  0  0
  -19.6902  -25.6292   21.1249 H   0  0  0  0  0  0
  -19.6685  -27.3197   20.6744 H   0  0  0  0  0  0
  -17.4204  -26.6705   21.4035 H   0  0  0  0  0  0
  -18.0328  -26.0073   22.9010 H   0  0  0  0  0  0
  -19.7947  -30.7282   24.2271 H   0  0  0  0  0  0
  -17.5030  -31.6279   24.5152 H   0  0  0  0  0  0
  -15.5367  -30.3003   23.7639 H   0  0  0  0  0  0
  -15.8694  -28.0821   22.7093 H   0  0  0  0  0  0
  -24.5893  -30.7073   25.7714 H   0  0  0  0  0  0
  -24.8866  -32.2900   26.4796 H   0  0  0  0  0  0
  -25.7991  -30.8927   27.0199 H   0  0  0  0  0  0
  -26.2884  -29.6782   24.1176 H   0  0  0  0  0  0
  -27.4006  -29.7253   25.4640 H   0  0  0  0  0  0
  -27.8744  -30.4288   23.9370 H   0  0  0  0  0  0
  -27.2659  -33.3631   26.2028 H   0  0  0  0  0  0
  -28.3862  -32.6862   25.0315 H   0  0  0  0  0  0
  -28.0703  -31.8463   26.5403 H   0  0  0  0  0  0
  -28.2609  -38.0076   24.7519 H   0  0  0  0  0  0
  -28.1044  -36.2607   24.6305 H   0  0  0  0  0  0
  -27.2285  -37.1449   25.8879 H   0  0  0  0  0  0
  -20.9365  -29.8737   21.6848 H   0  0  0  0  0  0
  -26.0167  -38.2846   24.1433 H   0  0  0  0  0  0
  -29.9883  -21.2829   18.3738 H   0  0  0  0  0  0
  -30.8219  -18.7256   18.4599 H   0  0  0  0  0  0
  -31.0267  -19.5371   22.8301 H   0  0  0  0  0  0
  -30.8460  -19.5548   24.5730 H   0  0  0  0  0  0
  -30.2499  -20.9132   23.6085 H   0  0  0  0  0  0
  -27.5179  -17.4143   21.7495 H   0  0  0  0  0  0
  -26.4840  -18.6906   21.1222 H   0  0  0  0  0  0
  -26.4455  -18.2963   22.8316 H   0  0  0  0  0  0
  -28.7732  -22.4139   21.8088 H   0  0  0  0  0  0
  -27.3728  -22.1161   20.8536 H   0  0  0  0  0  0
  -30.3055  -17.3030   22.0645 H   0  0  0  0  0  0
  -31.4059  -17.2524   20.7812 H   0  0  0  0  0  0
  -28.3811  -19.4187   24.3774 H   0  0  0  0  0  0
  -29.1262  -18.0590   23.6421 H   0  0  0  0  0  0
  -28.2591  -23.5780   19.0144 H   0  0  0  0  0  0
  -29.7578  -23.7911   19.8726 H   0  0  0  0  0  0
  -28.5558  -25.0614   21.6890 H   0  0  0  0  0  0
  -27.0472  -24.8512   20.9035 H   0  0  0  0  0  0
  -27.6840  -20.3751   22.4170 H   0  0  0  0  0  0
  -28.8488  -15.7159   20.6915 H   0  0  0  0  0  0
  1 25  1  0  0  0
  1 30  2  0  0  0
  1 84  1  0  0  0
  2  3  1  0  0  0
  2 25  1  0  0  0
  2 85  1  0  0  0
  2 86  1  0  0  0
  3  4  1  0  0  0
  3 87  1  0  0  0
  3 88  1  0  0  0
  4  5  1  0  0  0
  4 89  1  0  0  0
  4 90  1  0  0  0
  5  6  1  0  0  0
  5 26  1  0  0  0
  5 91  1  0  0  0
  6 25  1  0  0  0
  6 92  1  0  0  0
  6 93  1  0  0  0
  7  8  2  0  0  0
  7 26  1  0  0  0
  7 29  1  0  0  0
  8  9  1  0  0  0
  8 22  1  0  0  0
  9 10  1  0  0  0
  9 27  2  0  0  0
 10 11  2  0  0  0
 10 15  1  0  0  0
 11 12  1  0  0  0
 11 94  1  0  0  0
 12 13  2  0  0  0
 12 95  1  0  0  0
 13 14  1  0  0  0
 13 31  1  0  0  0
 14 15  2  0  0  0
 14 96  1  0  0  0
 15 97  1  0  0  0
 16 17  2  0  0  0
 16 21  1  0  0  0
 16 31  1  0  0  0
 17 18  1  0  0  0
 17 98  1  0  0  0
 18 19  2  0  0  0
 18 99  1  0  0  0
 19 20  1  0  0  0
 19 24  1  0  0  0
 20 21  2  0  0  0
 20100  1  0  0  0
 21 23  1  0  0  0
 22 28  1  0  0  0
 22 32  2  0  0  0
 26 27  1  0  0  0
 28101  1  0  0  0
 28102  1  0  0  0
 29103  1  0  0  0
 29104  1  0  0  0
 33 34  1  0  0  0
 33 66  1  0  0  0
 33 70  2  0  0  0
 34 36  1  0  0  0
 34 59  1  0  0  0
 34105  1  0  0  0
 35 44  2  0  0  0
 35 45  1  0  0  0
 35 68  1  0  0  0
 36 56  1  0  0  0
 36106  1  0  0  0
 37 39  1  0  0  0
 37 47  1  0  0  0
 37 66  1  0  0  0
 37107  1  0  0  0
 38 43  2  0  0  0
 38 46  1  0  0  0
 38 47  1  0  0  0
 39 64  1  0  0  0
 39 67  2  0  0  0
 40 52  1  0  0  0
 40 53  2  0  0  0
 40 58  1  0  0  0
 41108  1  0  0  0
 41109  1  0  0  0
 41110  1  0  0  0
 41 48  1  0  0  0
 42 43  1  0  0  0
 42 66  1  0  0  0
 42111  1  0  0  0
 42112  1  0  0  0
 43 44  1  0  0  0
 44113  1  0  0  0
 45 46  2  0  0  0
 45114  1  0  0  0
 46115  1  0  0  0
 47116  1  0  0  0
 47117  1  0  0  0
 48 56  1  0  0  0
 48 65  1  0  0  0
 48118  1  0  0  0
 49 50  1  0  0  0
 49 53  1  0  0  0
 49 64  1  0  0  0
 49119  1  0  0  0
 50 51  1  0  0  0
 50120  1  0  0  0
 50121  1  0  0  0
 51 52  1  0  0  0
 51122  1  0  0  0
 51123  1  0  0  0
 52124  1  0  0  0
 52125  1  0  0  0
 53 54  1  0  0  0
 54 55  2  0  0  0
 54126  1  0  0  0
 55 57  1  0  0  0
 55127  1  0  0  0
 56 69  2  0  0  0
 57 58  2  0  0  0
 57128  1  0  0  0
 58129  1  0  0  0
 59 60  1  0  0  0
 59 61  1  0  0  0
 59 62  1  0  0  0
 60130  1  0  0  0
 60131  1  0  0  0
 60132  1  0  0  0
 61133  1  0  0  0
 61134  1  0  0  0
 61135  1  0  0  0
 62136  1  0  0  0
 62137  1  0  0  0
 62138  1  0  0  0
 63 65  1  0  0  0
 63139  1  0  0  0
 63140  1  0  0  0
 63141  1  0  0  0
 64142  1  0  0  0
 65143  1  0  0  0
 68 81  1  0  0  0
 71 72  1  0  0  0
 71 73  2  0  0  0
 71144  1  0  0  0
 72 74  2  0  0  0
 72145  1  0  0  0
 73 77  1  0  0  0
 73 83  1  0  0  0
 74 78  1  0  0  0
 74 83  1  0  0  0
 75 79  1  0  0  0
 75146  1  0  0  0
 75147  1  0  0  0
 75148  1  0  0  0
 76149  1  0  0  0
 76150  1  0  0  0
 76151  1  0  0  0
 76 82  1  0  0  0
 77 80  1  0  0  0
 77152  1  0  0  0
 77153  1  0  0  0
 78 84  1  0  0  0
 78154  1  0  0  0
 78155  1  0  0  0
 79 82  1  0  0  0
 79156  1  0  0  0
 79157  1  0  0  0
 80 81  1  0  0  0
 80158  1  0  0  0
 80159  1  0  0  0
 81160  1  0  0  0
 81161  1  0  0  0
 82 83  1  0  0  0
 82162  1  0  0  0
 84163  1  0  0  0
M  ISO  4   1 100  68 101  81 101  84 100
M  END
> <chiral flag>
0

> <version>
0

> <s_m_source_file>
/data/baiqing/PycharmProjects/Reinvent-master-3.2/result/LINK_invent/BTK/process_docking_weight1_custom_sum_contain_oxygen_bond_distance_aromatic_linkinvent_7_9_3/rearranged_h_0097.sdf

> <i_m_source_file_index>
72

> <r_mmod_Potential_Energy-OPLS-2005>
113.289367675781

> <r_mmod_Stretch_Energy-OPLS-2005>
115.55362701416

> <r_mmod_Bend_Energy-OPLS-2005>
174.282699584961

> <r_mmod_Torsional_Energy-OPLS-2005>
261.231597900391

> <r_mmod_Improper_Torsional_Energy-OPLS-2005>
5.58188104629517

> <r_mmod_Van_der_Waal_Energy-OPLS-2005>
112.515922546387

> <r_mmod_Electrostatic_Energy-OPLS-2005>
-430.669189453125

> <r_mmod_Solvation_Energy-OPLS-2005>
-203.805511474609

> <b_mmod_Minimization_Converged-OPLS-2005>
0

> <r_mmod_RMS_Derivative-OPLS-2005>
3.143061876297

$$$$
73
                    3D
 Structure written by MMmdl.
165173  0  0  1  0            999 V2000
  -30.7467  -14.3469   20.7035 C   0  0  0  0  0  0
  -30.4328  -12.2810   19.3922 C   0  0  0  0  0  0
  -29.5031  -12.5358   18.1905 C   0  0  0  0  0  0
  -28.0215  -12.4078   18.5944 C   0  0  0  0  0  0
  -27.6772  -13.2000   19.8832 C   0  0  2  0  0  0
  -28.7085  -12.8978   20.9923 C   0  0  0  0  0  0
  -25.2639  -13.8144   20.5690 C   0  0  0  0  0  0
  -24.1892  -13.0424   20.9178 C   0  0  0  0  0  0
  -24.6433  -11.6887   20.8714 C   0  0  0  0  0  0
  -23.9068  -10.4285   21.0375 C   0  0  0  0  0  0
  -24.3623   -9.4205   21.9172 C   0  0  0  0  0  0
  -23.6313   -8.2232   22.0748 C   0  0  0  0  0  0
  -22.4281   -8.0291   21.3553 C   0  0  0  0  0  0
  -21.9917   -9.0243   20.4632 C   0  0  0  0  0  0
  -22.7231  -10.2131   20.3022 C   0  0  0  0  0  0
  -21.6863   -6.0752   22.5299 C   0  0  0  0  0  0
  -21.4020   -6.5657   23.8242 C   0  0  0  0  0  0
  -21.3651   -5.6795   24.9199 C   0  0  0  0  0  0
  -21.6032   -4.3061   24.7238 C   0  0  0  0  0  0
  -21.8823   -3.8160   23.4362 C   0  0  0  0  0  0
  -21.9197   -4.6978   22.3421 C   0  0  0  0  0  0
  -22.7895  -13.5194   21.1841 C   0  0  0  0  0  0
  -22.1647   -4.2166   21.0988 F   0  0  0  0  0  0
  -21.5627   -3.4535   25.7734 F   0  0  0  0  0  0
  -30.0578  -13.2013   20.4723 N   0  0  0  0  0  0
  -26.3088  -12.9314   20.3331 N   0  0  0  0  0  0
  -25.9354  -11.6464   20.5690 N   0  0  0  0  0  0
  -22.0499  -12.8206   22.0382 N   0  0  0  0  0  0
  -25.4354  -15.1879   20.4184 N   0  0  0  0  0  0
  -31.7481  -14.6958   20.0700 O   0  0  0  0  0  0
  -21.6632   -6.8897   21.4253 O   0  0  0  0  0  0
  -22.3563  -14.5483   20.6658 O   0  0  0  0  0  0
  -24.6153  -31.8674   23.2112 C   0  0  0  0  0  0
  -25.9059  -32.4828   23.8396 C   0  0  1  0  0  0
  -27.2286  -27.4418   20.0921 C   0  0  0  0  0  0
  -25.5896  -33.8617   24.2340 N   0  0  0  0  0  0
  -23.4028  -30.4951   21.5503 C   0  0  2  0  0  0
  -24.8435  -28.9667   20.1074 C   0  0  0  0  0  0
  -22.7435  -29.4665   22.4953 C   0  0  0  0  0  0
  -18.0288  -28.1385   22.8492 C   0  0  0  0  0  0
  -24.1485  -36.7338   23.2640 C   0  0  0  0  0  0
  -25.9299  -30.8353   21.3632 C   0  0  0  0  0  0
  -26.0018  -29.4694   20.7130 C   0  0  0  0  0  0
  -27.1911  -28.7127   20.7068 C   0  0  0  0  0  0
  -26.0554  -26.9550   19.4670 C   0  0  0  0  0  0
  -24.8647  -27.7073   19.4856 C   0  0  0  0  0  0
  -23.6077  -29.8336   20.1615 C   0  0  0  0  0  0
  -25.4102  -36.3121   24.0343 C   0  0  1  0  0  0
  -20.5882  -28.3686   23.1319 C   0  0  2  0  0  0
  -20.6765  -26.9405   22.5438 C   0  0  0  0  0  0
  -19.5743  -26.6383   21.5226 C   0  0  0  0  0  0
  -18.1911  -26.7941   22.1609 C   0  0  0  0  0  0
  -19.1537  -28.8846   23.2904 C   0  0  0  0  0  0
  -18.9453  -30.1434   23.8921 C   0  0  0  0  0  0
  -17.6450  -30.6584   24.0562 C   0  0  0  0  0  0
  -25.9026  -34.9481   23.5156 C   0  0  0  0  0  0
  -16.5341  -29.9082   23.6330 C   0  0  0  0  0  0
  -16.7268  -28.6510   23.0349 C   0  0  0  0  0  0
  -26.4463  -31.6620   25.0743 C   0  0  0  0  0  0
  -25.3722  -31.3738   26.1507 C   0  0  0  0  0  0
  -27.0288  -30.3069   24.6110 C   0  0  0  0  0  0
  -27.6043  -32.4341   25.7497 C   0  0  0  0  0  0
  -27.5590  -37.1806   24.8459 C   0  0  0  0  0  0
  -21.4141  -29.3034   22.3705 N   0  0  0  0  0  0
  -26.4294  -37.3811   23.9423 N   0  0  0  0  0  0
  -24.6692  -31.0794   22.1001 N   0  0  0  0  0  0
  -23.4207  -28.8192   23.2992 O   0  0  0  0  0  0
  -28.4217  -26.7501   20.1351 O   0  0  0  0  0  0
  -26.5594  -34.8935   22.4712 O   0  0  0  0  0  0
  -23.5353  -32.1396   23.7525 O   0  0  0  0  0  0
  -29.0620  -19.3820   23.4102 C   0  0  0  0  0  0
  -30.9884  -20.3191   23.8100 C   0  0  0  0  0  0
  -30.0434  -18.4226   23.4722 C   0  0  0  0  0  0
  -28.1474  -24.7151   22.8346 C   0  0  0  0  0  0
  -30.7179  -25.3853   21.0224 C   0  0  0  0  0  0
  -29.8917  -16.9497   23.2699 C   0  0  0  0  0  0
  -29.6830  -22.7121   22.3664 C   0  0  0  0  0  0
  -29.0794  -21.9085   23.5311 C   0  0  0  0  0  0
  -30.6170  -16.4584   22.0044 C   0  0  0  0  0  0
  -28.4667  -25.3746   19.7449 C   0  0  0  0  0  0
  -28.7758  -23.8022   21.7665 C   0  0  2  0  0  0
  -29.4738  -24.5666   20.6032 C   0  0  2  0  0  0
  -31.2726  -19.0223   23.7519 N   0  0  0  0  0  0
  -29.6927  -20.6014   23.5961 N   0  0  0  0  0  0
  -30.2565  -15.0782   21.7050 N   0  0  0  0  0  0
  -31.4806  -12.3847   19.1017 H   0  0  0  0  0  0
  -30.3344  -11.2509   19.7376 H   0  0  0  0  0  0
  -29.7447  -11.8404   17.3864 H   0  0  0  0  0  0
  -29.6846  -13.5336   17.7898 H   0  0  0  0  0  0
  -27.8099  -11.3490   18.7402 H   0  0  0  0  0  0
  -27.3872  -12.7391   17.7701 H   0  0  0  0  0  0
  -27.7449  -14.2617   19.6474 H   0  0  0  0  0  0
  -28.6578  -11.8404   21.2578 H   0  0  0  0  0  0
  -28.4554  -13.4283   21.9104 H   0  0  0  0  0  0
  -25.2759   -9.5726   22.4743 H   0  0  0  0  0  0
  -24.0071   -7.4614   22.7448 H   0  0  0  0  0  0
  -21.0851   -8.8701   19.8921 H   0  0  0  0  0  0
  -22.3646  -10.9663   19.6129 H   0  0  0  0  0  0
  -21.1997   -7.6160   23.9757 H   0  0  0  0  0  0
  -21.1467   -6.0515   25.9101 H   0  0  0  0  0  0
  -22.0613   -2.7610   23.2843 H   0  0  0  0  0  0
  -22.4071  -11.9907   22.4875 H   0  0  0  0  0  0
  -21.1060  -13.1233   22.2414 H   0  0  0  0  0  0
  -24.6790  -15.8534   20.5414 H   0  0  0  0  0  0
  -26.2915  -15.6292   20.1106 H   0  0  0  0  0  0
  -26.7124  -32.5554   23.1150 H   0  0  0  0  0  0
  -25.0036  -33.9772   25.0492 H   0  0  0  0  0  0
  -22.6903  -31.3108   21.4110 H   0  0  0  0  0  0
  -23.3748  -35.9676   23.3312 H   0  0  0  0  0  0
  -24.3583  -36.8959   22.2057 H   0  0  0  0  0  0
  -23.7233  -37.6540   23.6641 H   0  0  0  0  0  0
  -26.0384  -31.5939   20.5875 H   0  0  0  0  0  0
  -26.8243  -30.8937   21.9727 H   0  0  0  0  0  0
  -28.0880  -29.0938   21.1761 H   0  0  0  0  0  0
  -26.0303  -26.0083   18.9470 H   0  0  0  0  0  0
  -23.9766  -27.3184   19.0070 H   0  0  0  0  0  0
  -23.7083  -30.6082   19.4009 H   0  0  0  0  0  0
  -22.7312  -29.2524   19.8695 H   0  0  0  0  0  0
  -25.1263  -36.1979   25.0829 H   0  0  0  0  0  0
  -20.9955  -28.3227   24.1443 H   0  0  0  0  0  0
  -20.5669  -26.2251   23.3616 H   0  0  0  0  0  0
  -21.6631  -26.7406   22.1201 H   0  0  0  0  0  0
  -19.6904  -25.6301   21.1225 H   0  0  0  0  0  0
  -19.6718  -27.3210   20.6773 H   0  0  0  0  0  0
  -17.4184  -26.6737   21.3990 H   0  0  0  0  0  0
  -18.0258  -26.0078   22.8987 H   0  0  0  0  0  0
  -19.7928  -30.7257   24.2285 H   0  0  0  0  0  0
  -17.5006  -31.6266   24.5164 H   0  0  0  0  0  0
  -15.5345  -30.2984   23.7676 H   0  0  0  0  0  0
  -15.8663  -28.0836   22.7057 H   0  0  0  0  0  0
  -24.5882  -30.7096   25.7845 H   0  0  0  0  0  0
  -24.8925  -32.2909   26.4949 H   0  0  0  0  0  0
  -25.8087  -30.8894   27.0268 H   0  0  0  0  0  0
  -26.2819  -29.6851   24.1154 H   0  0  0  0  0  0
  -27.4067  -29.7279   25.4553 H   0  0  0  0  0  0
  -27.8656  -30.4434   23.9256 H   0  0  0  0  0  0
  -27.2644  -33.3622   26.2128 H   0  0  0  0  0  0
  -28.3817  -32.6968   25.0295 H   0  0  0  0  0  0
  -28.0770  -31.8441   26.5372 H   0  0  0  0  0  0
  -28.2576  -38.0124   24.7492 H   0  0  0  0  0  0
  -28.1087  -36.2642   24.6251 H   0  0  0  0  0  0
  -27.2306  -37.1445   25.8860 H   0  0  0  0  0  0
  -20.9275  -29.8743   21.6937 H   0  0  0  0  0  0
  -26.0191  -38.2894   24.1427 H   0  0  0  0  0  0
  -27.9977  -19.2942   23.2189 H   0  0  0  0  0  0
  -31.7404  -21.0833   23.9694 H   0  0  0  0  0  0
  -27.5681  -24.1306   23.5528 H   0  0  0  0  0  0
  -27.4525  -25.4163   22.3749 H   0  0  0  0  0  0
  -28.8930  -25.2856   23.3913 H   0  0  0  0  0  0
  -31.1773  -25.8688   20.1588 H   0  0  0  0  0  0
  -31.4960  -24.7594   21.4590 H   0  0  0  0  0  0
  -30.4773  -26.1611   21.7504 H   0  0  0  0  0  0
  -28.8264  -16.7192   23.1964 H   0  0  0  0  0  0
  -30.2540  -16.4143   24.1455 H   0  0  0  0  0  0
  -29.9479  -22.0214   21.5617 H   0  0  0  0  0  0
  -30.6217  -23.1415   22.7127 H   0  0  0  0  0  0
  -28.0064  -21.7753   23.4112 H   0  0  0  0  0  0
  -29.2381  -22.4302   24.4753 H   0  0  0  0  0  0
  -31.6973  -16.5595   22.1311 H   0  0  0  0  0  0
  -30.3367  -17.0803   21.1513 H   0  0  0  0  0  0
  -27.5024  -24.8768   19.8365 H   0  0  0  0  0  0
  -28.7398  -25.3223   18.6903 H   0  0  0  0  0  0
  -27.9510  -23.2513   21.3144 H   0  0  0  0  0  0
  -29.8491  -23.7925   19.9304 H   0  0  0  0  0  0
  -29.4926  -14.6778   22.2263 H   0  0  0  0  0  0
  1 25  1  0  0  0
  1 30  2  0  0  0
  1 85  1  0  0  0
  2  3  1  0  0  0
  2 25  1  0  0  0
  2 86  1  0  0  0
  2 87  1  0  0  0
  3  4  1  0  0  0
  3 88  1  0  0  0
  3 89  1  0  0  0
  4  5  1  0  0  0
  4 90  1  0  0  0
  4 91  1  0  0  0
  5  6  1  0  0  0
  5 26  1  0  0  0
  5 92  1  0  0  0
  6 25  1  0  0  0
  6 93  1  0  0  0
  6 94  1  0  0  0
  7  8  2  0  0  0
  7 26  1  0  0  0
  7 29  1  0  0  0
  8  9  1  0  0  0
  8 22  1  0  0  0
  9 10  1  0  0  0
  9 27  2  0  0  0
 10 11  2  0  0  0
 10 15  1  0  0  0
 11 12  1  0  0  0
 11 95  1  0  0  0
 12 13  2  0  0  0
 12 96  1  0  0  0
 13 14  1  0  0  0
 13 31  1  0  0  0
 14 15  2  0  0  0
 14 97  1  0  0  0
 15 98  1  0  0  0
 16 17  2  0  0  0
 16 21  1  0  0  0
 16 31  1  0  0  0
 17 18  1  0  0  0
 17 99  1  0  0  0
 18 19  2  0  0  0
 18100  1  0  0  0
 19 20  1  0  0  0
 19 24  1  0  0  0
 20 21  2  0  0  0
 20101  1  0  0  0
 21 23  1  0  0  0
 22 28  1  0  0  0
 22 32  2  0  0  0
 26 27  1  0  0  0
 28102  1  0  0  0
 28103  1  0  0  0
 29104  1  0  0  0
 29105  1  0  0  0
 33 34  1  0  0  0
 33 66  1  0  0  0
 33 70  2  0  0  0
 34 36  1  0  0  0
 34 59  1  0  0  0
 34106  1  0  0  0
 35 44  2  0  0  0
 35 45  1  0  0  0
 35 68  1  0  0  0
 36 56  1  0  0  0
 36107  1  0  0  0
 37 39  1  0  0  0
 37 47  1  0  0  0
 37 66  1  0  0  0
 37108  1  0  0  0
 38 43  2  0  0  0
 38 46  1  0  0  0
 38 47  1  0  0  0
 39 64  1  0  0  0
 39 67  2  0  0  0
 40 52  1  0  0  0
 40 53  2  0  0  0
 40 58  1  0  0  0
 41109  1  0  0  0
 41110  1  0  0  0
 41111  1  0  0  0
 41 48  1  0  0  0
 42 43  1  0  0  0
 42 66  1  0  0  0
 42112  1  0  0  0
 42113  1  0  0  0
 43 44  1  0  0  0
 44114  1  0  0  0
 45 46  2  0  0  0
 45115  1  0  0  0
 46116  1  0  0  0
 47117  1  0  0  0
 47118  1  0  0  0
 48 56  1  0  0  0
 48 65  1  0  0  0
 48119  1  0  0  0
 49 50  1  0  0  0
 49 53  1  0  0  0
 49 64  1  0  0  0
 49120  1  0  0  0
 50 51  1  0  0  0
 50121  1  0  0  0
 50122  1  0  0  0
 51 52  1  0  0  0
 51123  1  0  0  0
 51124  1  0  0  0
 52125  1  0  0  0
 52126  1  0  0  0
 53 54  1  0  0  0
 54 55  2  0  0  0
 54127  1  0  0  0
 55 57  1  0  0  0
 55128  1  0  0  0
 56 69  2  0  0  0
 57 58  2  0  0  0
 57129  1  0  0  0
 58130  1  0  0  0
 59 60  1  0  0  0
 59 61  1  0  0  0
 59 62  1  0  0  0
 60131  1  0  0  0
 60132  1  0  0  0
 60133  1  0  0  0
 61134  1  0  0  0
 61135  1  0  0  0
 61136  1  0  0  0
 62137  1  0  0  0
 62138  1  0  0  0
 62139  1  0  0  0
 63 65  1  0  0  0
 63140  1  0  0  0
 63141  1  0  0  0
 63142  1  0  0  0
 64143  1  0  0  0
 65144  1  0  0  0
 68 80  1  0  0  0
 71 73  2  0  0  0
 71 84  1  0  0  0
 71145  1  0  0  0
 72 83  2  0  0  0
 72 84  1  0  0  0
 72146  1  0  0  0
 73 76  1  0  0  0
 73 83  1  0  0  0
 74147  1  0  0  0
 74148  1  0  0  0
 74149  1  0  0  0
 74 81  1  0  0  0
 75150  1  0  0  0
 75151  1  0  0  0
 75152  1  0  0  0
 75 82  1  0  0  0
 76 79  1  0  0  0
 76153  1  0  0  0
 76154  1  0  0  0
 77 78  1  0  0  0
 77 81  1  0  0  0
 77155  1  0  0  0
 77156  1  0  0  0
 78 84  1  0  0  0
 78157  1  0  0  0
 78158  1  0  0  0
 79 85  1  0  0  0
 79159  1  0  0  0
 79160  1  0  0  0
 80 82  1  0  0  0
 80161  1  0  0  0
 80162  1  0  0  0
 81 82  1  0  0  0
 81163  1  0  0  0
 82164  1  0  0  0
 85165  1  0  0  0
M  ISO  4   1 100  68 101  80 101  85 100
M  END
> <chiral flag>
0

> <version>
0

> <s_m_source_file>
/data/baiqing/PycharmProjects/Reinvent-master-3.2/result/LINK_invent/BTK/process_docking_weight1_custom_sum_contain_oxygen_bond_distance_aromatic_linkinvent_7_9_3/rearranged_h_0097.sdf

> <i_m_source_file_index>
73

> <r_mmod_Potential_Energy-OPLS-2005>
-69.3830337524414

> <r_mmod_Stretch_Energy-OPLS-2005>
32.815299987793

> <r_mmod_Bend_Energy-OPLS-2005>
110.333679199219

> <r_mmod_Torsional_Energy-OPLS-2005>
223.672576904297

> <r_mmod_Improper_Torsional_Energy-OPLS-2005>
2.05652666091919

> <r_mmod_Van_der_Waal_Energy-OPLS-2005>
136.381210327148

> <r_mmod_Electrostatic_Energy-OPLS-2005>
-360.736755371094

> <r_mmod_Solvation_Energy-OPLS-2005>
-223.769149780273

> <b_mmod_Minimization_Converged-OPLS-2005>
0

> <r_mmod_RMS_Derivative-OPLS-2005>
5.8330545425415

$$$$
74
                    3D
 Structure written by MMmdl.
176184  0  0  1  0            999 V2000
  -30.6891  -14.4089   20.6144 C   0  0  0  0  0  0
  -30.4092  -12.2761   19.4008 C   0  0  0  0  0  0
  -29.4885  -12.5141   18.1855 C   0  0  0  0  0  0
  -28.0040  -12.3854   18.5911 C   0  0  0  0  0  0
  -27.6591  -13.2014   19.8661 C   0  0  2  0  0  0
  -28.6940  -12.9267   20.9816 C   0  0  0  0  0  0
  -25.2572  -13.8152   20.5691 C   0  0  0  0  0  0
  -24.1810  -13.0401   20.9152 C   0  0  0  0  0  0
  -24.6358  -11.6890   20.8659 C   0  0  0  0  0  0
  -23.9035  -10.4266   21.0344 C   0  0  0  0  0  0
  -24.3599   -9.4201   21.9141 C   0  0  0  0  0  0
  -23.6250   -8.2255   22.0748 C   0  0  0  0  0  0
  -22.4233   -8.0289   21.3536 C   0  0  0  0  0  0
  -21.9869   -9.0231   20.4614 C   0  0  0  0  0  0
  -22.7216  -10.2105   20.2986 C   0  0  0  0  0  0
  -21.6852   -6.0707   22.5274 C   0  0  0  0  0  0
  -21.4009   -6.5619   23.8203 C   0  0  0  0  0  0
  -21.3667   -5.6786   24.9183 C   0  0  0  0  0  0
  -21.6071   -4.3051   24.7240 C   0  0  0  0  0  0
  -21.8815   -3.8127   23.4357 C   0  0  0  0  0  0
  -21.9179   -4.6927   22.3404 C   0  0  0  0  0  0
  -22.7841  -13.5217   21.1852 C   0  0  0  0  0  0
  -22.1635   -4.2090   21.0993 F   0  0  0  0  0  0
  -21.5638   -3.4550   25.7765 F   0  0  0  0  0  0
  -30.0305  -13.2358   20.4444 N   0  0  0  0  0  0
  -26.2974  -12.9314   20.3251 N   0  0  0  0  0  0
  -25.9282  -11.6471   20.5649 N   0  0  0  0  0  0
  -22.0498  -12.8208   22.0434 N   0  0  0  0  0  0
  -25.4336  -15.1853   20.4205 N   0  0  0  0  0  0
  -31.7969  -14.6572   20.1266 O   0  0  0  0  0  0
  -21.6646   -6.8849   21.4236 O   0  0  0  0  0  0
  -22.3508  -14.5495   20.6664 O   0  0  0  0  0  0
  -24.6110  -31.8669   23.2146 C   0  0  0  0  0  0
  -25.8988  -32.4838   23.8438 C   0  0  1  0  0  0
  -27.2390  -27.4474   20.0972 C   0  0  0  0  0  0
  -25.5796  -33.8641   24.2344 N   0  0  0  0  0  0
  -23.4009  -30.4903   21.5574 C   0  0  2  0  0  0
  -24.8488  -28.9541   20.1298 C   0  0  0  0  0  0
  -22.7411  -29.4621   22.5053 C   0  0  0  0  0  0
  -18.0253  -28.1352   22.8489 C   0  0  0  0  0  0
  -24.1477  -36.7351   23.2646 C   0  0  0  0  0  0
  -25.9292  -30.8337   21.3682 C   0  0  0  0  0  0
  -26.0081  -29.4637   20.7300 C   0  0  0  0  0  0
  -27.2091  -28.7192   20.7144 C   0  0  0  0  0  0
  -26.0558  -26.9359   19.5330 C   0  0  0  0  0  0
  -24.8656  -27.6841   19.5313 C   0  0  0  0  0  0
  -23.6107  -29.8188   20.1743 C   0  0  0  0  0  0
  -25.4090  -36.3146   24.0356 C   0  0  1  0  0  0
  -20.5848  -28.3628   23.1342 C   0  0  2  0  0  0
  -20.6752  -26.9376   22.5431 C   0  0  0  0  0  0
  -19.5728  -26.6377   21.5217 C   0  0  0  0  0  0
  -18.1905  -26.7899   22.1637 C   0  0  0  0  0  0
  -19.1508  -28.8802   23.2908 C   0  0  0  0  0  0
  -18.9439  -30.1403   23.8926 C   0  0  0  0  0  0
  -17.6446  -30.6569   24.0543 C   0  0  0  0  0  0
  -25.9007  -34.9495   23.5168 C   0  0  0  0  0  0
  -16.5329  -29.9074   23.6303 C   0  0  0  0  0  0
  -16.7247  -28.6481   23.0342 C   0  0  0  0  0  0
  -26.4440  -31.6617   25.0760 C   0  0  0  0  0  0
  -25.3721  -31.3733   26.1530 C   0  0  0  0  0  0
  -27.0228  -30.3057   24.6095 C   0  0  0  0  0  0
  -27.6040  -32.4335   25.7447 C   0  0  0  0  0  0
  -27.5582  -37.1836   24.8454 C   0  0  0  0  0  0
  -21.4134  -29.3006   22.3790 N   0  0  0  0  0  0
  -26.4290  -37.3822   23.9414 N   0  0  0  0  0  0
  -24.6663  -31.0791   22.1045 N   0  0  0  0  0  0
  -23.4181  -28.8167   23.3101 O   0  0  0  0  0  0
  -28.4188  -26.7707   19.9048 O   0  0  0  0  0  0
  -26.5640  -34.8914   22.4777 O   0  0  0  0  0  0
  -23.5311  -32.1375   23.7563 O   0  0  0  0  0  0
  -28.7650  -23.4837   21.7195 C   0  0  0  0  0  0
  -28.5635  -24.3312   20.6122 C   0  0  0  0  0  0
  -28.2242  -23.7127   19.3650 C   0  0  0  0  0  0
  -28.5816  -22.0993   21.6000 C   0  0  0  0  0  0
  -27.8515  -22.3368   19.4014 C   0  0  0  0  0  0
  -26.4289  -20.3425   18.5559 C   0  0  0  0  0  0
  -27.3850  -25.9551   16.2929 C   0  0  0  0  0  0
  -27.5779  -20.8205   23.5416 C   0  0  0  0  0  0
  -28.4717  -24.4119   18.0168 C   0  0  0  0  0  0
  -28.8293  -25.8259   20.8851 C   0  0  0  0  0  0
  -27.2319  -21.6118   18.2062 C   0  0  0  0  0  0
  -27.2801  -24.6299   17.0593 C   0  0  0  0  0  0
  -30.2373  -16.7901   21.2004 C   0  0  0  0  0  0
  -28.9911  -17.5781   21.6699 C   0  0  0  0  0  0
  -29.7168  -19.9030   22.4268 C   0  0  0  0  0  0
  -28.8652  -21.1609   22.7740 C   0  0  1  0  0  0
  -28.0601  -21.5529   20.4849 N   0  0  0  0  0  0
  -29.9646  -15.3535   21.2256 N   0  0  0  0  0  0
  -29.0667  -19.0363   21.4180 N   0  3  0  0  0  0
  -31.4606  -12.3591   19.1233 H   0  0  0  0  0  0
  -30.2720  -11.2612   19.7740 H   0  0  0  0  0  0
  -29.7178  -11.8033   17.3910 H   0  0  0  0  0  0
  -29.6625  -13.5107   17.7739 H   0  0  0  0  0  0
  -27.7995  -11.3284   18.7597 H   0  0  0  0  0  0
  -27.3563  -12.6870   17.7675 H   0  0  0  0  0  0
  -27.7165  -14.2564   19.5889 H   0  0  0  0  0  0
  -28.6648  -11.8759   21.2728 H   0  0  0  0  0  0
  -28.4540  -13.4701   21.8946 H   0  0  0  0  0  0
  -25.2749   -9.5687   22.4705 H   0  0  0  0  0  0
  -23.9924   -7.4710   22.7552 H   0  0  0  0  0  0
  -21.0784   -8.8734   19.8936 H   0  0  0  0  0  0
  -22.3672  -10.9632   19.6095 H   0  0  0  0  0  0
  -21.2010   -7.6133   23.9656 H   0  0  0  0  0  0
  -21.1498   -6.0552   25.9081 H   0  0  0  0  0  0
  -22.0592   -2.7574   23.2914 H   0  0  0  0  0  0
  -22.4113  -11.9849   22.4791 H   0  0  0  0  0  0
  -21.1068  -13.1141   22.2584 H   0  0  0  0  0  0
  -24.6632  -15.8381   20.5153 H   0  0  0  0  0  0
  -26.2726  -15.6186   20.0581 H   0  0  0  0  0  0
  -26.7041  -32.5557   23.1193 H   0  0  0  0  0  0
  -24.9826  -33.9799   25.0401 H   0  0  0  0  0  0
  -22.6851  -31.3042   21.4205 H   0  0  0  0  0  0
  -23.3724  -35.9701   23.3327 H   0  0  0  0  0  0
  -24.3574  -36.8949   22.2056 H   0  0  0  0  0  0
  -23.7220  -37.6566   23.6630 H   0  0  0  0  0  0
  -26.0301  -31.5916   20.5905 H   0  0  0  0  0  0
  -26.8213  -30.8967   21.9781 H   0  0  0  0  0  0
  -28.1124  -29.1265   21.1487 H   0  0  0  0  0  0
  -26.0649  -25.9644   19.0776 H   0  0  0  0  0  0
  -23.9748  -27.2842   19.0655 H   0  0  0  0  0  0
  -23.7090  -30.5879   19.4082 H   0  0  0  0  0  0
  -22.7343  -29.2330   19.8912 H   0  0  0  0  0  0
  -25.1261  -36.2053   25.0854 H   0  0  0  0  0  0
  -20.9887  -28.3174   24.1480 H   0  0  0  0  0  0
  -20.5623  -26.2249   23.3618 H   0  0  0  0  0  0
  -21.6626  -26.7410   22.1232 H   0  0  0  0  0  0
  -19.6880  -25.6297   21.1207 H   0  0  0  0  0  0
  -19.6652  -27.3224   20.6775 H   0  0  0  0  0  0
  -17.4176  -26.6613   21.4049 H   0  0  0  0  0  0
  -18.0313  -26.0056   22.9052 H   0  0  0  0  0  0
  -19.7915  -30.7187   24.2353 H   0  0  0  0  0  0
  -17.5000  -31.6257   24.5133 H   0  0  0  0  0  0
  -15.5326  -30.2979   23.7593 H   0  0  0  0  0  0
  -15.8653  -28.0779   22.7067 H   0  0  0  0  0  0
  -24.5868  -30.7097   25.7894 H   0  0  0  0  0  0
  -24.8929  -32.2902   26.4981 H   0  0  0  0  0  0
  -25.8078  -30.8903   27.0284 H   0  0  0  0  0  0
  -26.2747  -29.6868   24.1122 H   0  0  0  0  0  0
  -27.3977  -29.7239   25.4524 H   0  0  0  0  0  0
  -27.8605  -30.4394   23.9241 H   0  0  0  0  0  0
  -27.2677  -33.3611   26.2084 H   0  0  0  0  0  0
  -28.3757  -32.6946   25.0198 H   0  0  0  0  0  0
  -28.0812  -31.8441   26.5276 H   0  0  0  0  0  0
  -28.2615  -38.0118   24.7498 H   0  0  0  0  0  0
  -28.1057  -36.2657   24.6271 H   0  0  0  0  0  0
  -27.2321  -37.1498   25.8861 H   0  0  0  0  0  0
  -20.9305  -29.8768   21.7036 H   0  0  0  0  0  0
  -26.0200  -38.2917   24.1391 H   0  0  0  0  0  0
  -29.0963  -23.9022   22.6609 H   0  0  0  0  0  0
  -25.8628  -19.9941   17.6916 H   0  0  0  0  0  0
  -25.7171  -20.5328   19.3611 H   0  0  0  0  0  0
  -27.0813  -19.5286   18.8687 H   0  0  0  0  0  0
  -26.5407  -26.0806   15.6137 H   0  0  0  0  0  0
  -28.3033  -26.0011   15.7044 H   0  0  0  0  0  0
  -27.3867  -26.8051   16.9766 H   0  0  0  0  0  0
  -27.0927  -21.7313   23.8942 H   0  0  0  0  0  0
  -27.7902  -20.2031   24.4144 H   0  0  0  0  0  0
  -26.8602  -20.2912   22.9143 H   0  0  0  0  0  0
  -29.1987  -23.7923   17.4865 H   0  0  0  0  0  0
  -29.0109  -25.3444   18.1618 H   0  0  0  0  0  0
  -29.9030  -25.9515   21.0228 H   0  0  0  0  0  0
  -28.3836  -26.0838   21.8474 H   0  0  0  0  0  0
  -27.9880  -21.4042   17.4487 H   0  0  0  0  0  0
  -26.5036  -22.2818   17.7581 H   0  0  0  0  0  0
  -27.2422  -23.8163   16.3328 H   0  0  0  0  0  0
  -26.3303  -24.5930   17.5849 H   0  0  0  0  0  0
  -31.1001  -17.0041   21.8312 H   0  0  0  0  0  0
  -30.5226  -17.0727   20.1848 H   0  0  0  0  0  0
  -28.7941  -17.3822   22.7233 H   0  0  0  0  0  0
  -28.1115  -17.2208   21.1283 H   0  0  0  0  0  0
  -29.9389  -19.3491   23.3387 H   0  0  0  0  0  0
  -30.6804  -20.2140   22.0264 H   0  0  0  0  0  0
  -29.4867  -21.7379   23.4595 H   0  0  0  0  0  0
  -29.0617  -15.0511   21.5619 H   0  0  0  0  0  0
  -29.4949  -19.2070   20.5231 H   0  0  0  0  0  0
  -28.1246  -19.3884   21.3342 H   0  0  0  0  0  0
  1 25  1  0  0  0
  1 30  2  0  0  0
  1 88  1  0  0  0
  2  3  1  0  0  0
  2 25  1  0  0  0
  2 90  1  0  0  0
  2 91  1  0  0  0
  3  4  1  0  0  0
  3 92  1  0  0  0
  3 93  1  0  0  0
  4  5  1  0  0  0
  4 94  1  0  0  0
  4 95  1  0  0  0
  5  6  1  0  0  0
  5 26  1  0  0  0
  5 96  1  0  0  0
  6 25  1  0  0  0
  6 97  1  0  0  0
  6 98  1  0  0  0
  7  8  2  0  0  0
  7 26  1  0  0  0
  7 29  1  0  0  0
  8  9  1  0  0  0
  8 22  1  0  0  0
  9 10  1  0  0  0
  9 27  2  0  0  0
 10 11  2  0  0  0
 10 15  1  0  0  0
 11 12  1  0  0  0
 11 99  1  0  0  0
 12 13  2  0  0  0
 12100  1  0  0  0
 13 14  1  0  0  0
 13 31  1  0  0  0
 14 15  2  0  0  0
 14101  1  0  0  0
 15102  1  0  0  0
 16 17  2  0  0  0
 16 21  1  0  0  0
 16 31  1  0  0  0
 17 18  1  0  0  0
 17103  1  0  0  0
 18 19  2  0  0  0
 18104  1  0  0  0
 19 20  1  0  0  0
 19 24  1  0  0  0
 20 21  2  0  0  0
 20105  1  0  0  0
 21 23  1  0  0  0
 22 28  1  0  0  0
 22 32  2  0  0  0
 26 27  1  0  0  0
 28106  1  0  0  0
 28107  1  0  0  0
 29108  1  0  0  0
 29109  1  0  0  0
 33 34  1  0  0  0
 33 66  1  0  0  0
 33 70  2  0  0  0
 34 36  1  0  0  0
 34 59  1  0  0  0
 34110  1  0  0  0
 35 44  2  0  0  0
 35 45  1  0  0  0
 35 68  1  0  0  0
 36 56  1  0  0  0
 36111  1  0  0  0
 37 39  1  0  0  0
 37 47  1  0  0  0
 37 66  1  0  0  0
 37112  1  0  0  0
 38 43  2  0  0  0
 38 46  1  0  0  0
 38 47  1  0  0  0
 39 64  1  0  0  0
 39 67  2  0  0  0
 40 52  1  0  0  0
 40 53  2  0  0  0
 40 58  1  0  0  0
 41113  1  0  0  0
 41114  1  0  0  0
 41115  1  0  0  0
 41 48  1  0  0  0
 42 43  1  0  0  0
 42 66  1  0  0  0
 42116  1  0  0  0
 42117  1  0  0  0
 43 44  1  0  0  0
 44118  1  0  0  0
 45 46  2  0  0  0
 45119  1  0  0  0
 46120  1  0  0  0
 47121  1  0  0  0
 47122  1  0  0  0
 48 56  1  0  0  0
 48 65  1  0  0  0
 48123  1  0  0  0
 49 50  1  0  0  0
 49 53  1  0  0  0
 49 64  1  0  0  0
 49124  1  0  0  0
 50 51  1  0  0  0
 50125  1  0  0  0
 50126  1  0  0  0
 51 52  1  0  0  0
 51127  1  0  0  0
 51128  1  0  0  0
 52129  1  0  0  0
 52130  1  0  0  0
 53 54  1  0  0  0
 54 55  2  0  0  0
 54131  1  0  0  0
 55 57  1  0  0  0
 55132  1  0  0  0
 56 69  2  0  0  0
 57 58  2  0  0  0
 57133  1  0  0  0
 58134  1  0  0  0
 59 60  1  0  0  0
 59 61  1  0  0  0
 59 62  1  0  0  0
 60135  1  0  0  0
 60136  1  0  0  0
 60137  1  0  0  0
 61138  1  0  0  0
 61139  1  0  0  0
 61140  1  0  0  0
 62141  1  0  0  0
 62142  1  0  0  0
 62143  1  0  0  0
 63 65  1  0  0  0
 63144  1  0  0  0
 63145  1  0  0  0
 63146  1  0  0  0
 64147  1  0  0  0
 65148  1  0  0  0
 68 80  1  0  0  0
 71 72  2  0  0  0
 71 74  1  0  0  0
 71149  1  0  0  0
 72 73  1  0  0  0
 72 80  1  0  0  0
 73 75  2  0  0  0
 73 79  1  0  0  0
 74 86  1  0  0  0
 74 87  2  0  0  0
 75 81  1  0  0  0
 75 87  1  0  0  0
 76 81  1  0  0  0
 76150  1  0  0  0
 76151  1  0  0  0
 76152  1  0  0  0
 77 82  1  0  0  0
 77153  1  0  0  0
 77154  1  0  0  0
 77155  1  0  0  0
 78156  1  0  0  0
 78157  1  0  0  0
 78158  1  0  0  0
 78 86  1  0  0  0
 79 82  1  0  0  0
 79159  1  0  0  0
 79160  1  0  0  0
 80161  1  0  0  0
 80162  1  0  0  0
 81163  1  0  0  0
 81164  1  0  0  0
 82165  1  0  0  0
 82166  1  0  0  0
 83 84  1  0  0  0
 83 88  1  0  0  0
 83167  1  0  0  0
 83168  1  0  0  0
 84 89  1  0  0  0
 84169  1  0  0  0
 84170  1  0  0  0
 85 86  1  0  0  0
 85 89  1  0  0  0
 85171  1  0  0  0
 85172  1  0  0  0
 86173  1  0  0  0
 88174  1  0  0  0
 89175  1  0  0  0
 89176  1  0  0  0
M  CHG  1  89   1
M  ISO  4   1 100  68 101  80 101  88 100
M  END
> <chiral flag>
0

> <version>
0

> <s_m_source_file>
/data/baiqing/PycharmProjects/Reinvent-master-3.2/result/LINK_invent/BTK/process_docking_weight1_custom_sum_contain_oxygen_bond_distance_aromatic_linkinvent_7_9_3/rearranged_h_0097.sdf

> <i_m_source_file_index>
74

> <r_mmod_Potential_Energy-OPLS-2005>
-367.925140380859

> <r_mmod_Stretch_Energy-OPLS-2005>
38.8826599121094

> <r_mmod_Bend_Energy-OPLS-2005>
121.765403747559

> <r_mmod_Torsional_Energy-OPLS-2005>
292.297637939453

> <r_mmod_Improper_Torsional_Energy-OPLS-2005>
6.17778921127319

> <r_mmod_Van_der_Waal_Energy-OPLS-2005>
156.26628112793

> <r_mmod_Electrostatic_Energy-OPLS-2005>
-549.453735351562

> <r_mmod_Solvation_Energy-OPLS-2005>
-443.953399658203

> <b_mmod_Minimization_Converged-OPLS-2005>
0

> <r_mmod_RMS_Derivative-OPLS-2005>
5.16654396057129

$$$$
75
                    3D
 Structure written by MMmdl.
169178  0  0  1  0            999 V2000
  -30.7210  -14.4934   20.5150 C   0  0  0  0  0  0
  -30.4083  -12.2988   19.4446 C   0  0  0  0  0  0
  -29.4964  -12.4959   18.2170 C   0  0  0  0  0  0
  -28.0170  -12.3577   18.6250 C   0  0  0  0  0  0
  -27.6574  -13.2148   19.8695 C   0  0  2  0  0  0
  -28.7014  -13.0435   20.9990 C   0  0  0  0  0  0
  -25.2549  -13.8181   20.5664 C   0  0  0  0  0  0
  -24.1813  -13.0444   20.9177 C   0  0  0  0  0  0
  -24.6371  -11.6913   20.8726 C   0  0  0  0  0  0
  -23.9016  -10.4291   21.0389 C   0  0  0  0  0  0
  -24.3576   -9.4217   21.9181 C   0  0  0  0  0  0
  -23.6280   -8.2227   22.0742 C   0  0  0  0  0  0
  -22.4267   -8.0260   21.3529 C   0  0  0  0  0  0
  -21.9882   -9.0215   20.4631 C   0  0  0  0  0  0
  -22.7175  -10.2116   20.3041 C   0  0  0  0  0  0
  -21.6852   -6.0707   22.5269 C   0  0  0  0  0  0
  -21.4009   -6.5615   23.8207 C   0  0  0  0  0  0
  -21.3669   -5.6777   24.9176 C   0  0  0  0  0  0
  -21.6053   -4.3035   24.7226 C   0  0  0  0  0  0
  -21.8827   -3.8118   23.4347 C   0  0  0  0  0  0
  -21.9186   -4.6927   22.3398 C   0  0  0  0  0  0
  -22.7830  -13.5235   21.1850 C   0  0  0  0  0  0
  -22.1663   -4.2109   21.0980 F   0  0  0  0  0  0
  -21.5641   -3.4536   25.7737 F   0  0  0  0  0  0
  -30.0303  -13.3208   20.4347 N   0  0  0  0  0  0
  -26.2992  -12.9367   20.3336 N   0  0  0  0  0  0
  -25.9317  -11.6522   20.5782 N   0  0  0  0  0  0
  -22.0451  -12.8246   22.0408 N   0  0  0  0  0  0
  -25.4311  -15.1898   20.4058 N   0  0  0  0  0  0
  -31.8864  -14.5684   20.1153 O   0  0  0  0  0  0
  -21.6645   -6.8848   21.4230 O   0  0  0  0  0  0
  -22.3508  -14.5527   20.6681 O   0  0  0  0  0  0
  -24.6130  -31.8690   23.2111 C   0  0  0  0  0  0
  -25.9039  -32.4817   23.8396 C   0  0  1  0  0  0
  -27.2337  -27.4506   20.1012 C   0  0  0  0  0  0
  -25.5910  -33.8614   24.2340 N   0  0  0  0  0  0
  -23.3995  -30.4897   21.5521 C   0  0  2  0  0  0
  -24.8462  -28.9543   20.1173 C   0  0  0  0  0  0
  -22.7405  -29.4642   22.5002 C   0  0  0  0  0  0
  -18.0272  -28.1349   22.8500 C   0  0  0  0  0  0
  -24.1481  -36.7322   23.2635 C   0  0  0  0  0  0
  -25.9252  -30.8325   21.3632 C   0  0  0  0  0  0
  -26.0019  -29.4645   20.7236 C   0  0  0  0  0  0
  -27.2009  -28.7174   20.7254 C   0  0  0  0  0  0
  -26.0708  -26.9579   19.4756 C   0  0  0  0  0  0
  -24.8725  -27.6961   19.4903 C   0  0  0  0  0  0
  -23.6060  -29.8185   20.1663 C   0  0  0  0  0  0
  -25.4101  -36.3113   24.0338 C   0  0  1  0  0  0
  -20.5848  -28.3627   23.1332 C   0  0  2  0  0  0
  -20.6760  -26.9361   22.5431 C   0  0  0  0  0  0
  -19.5748  -26.6359   21.5219 C   0  0  0  0  0  0
  -18.1911  -26.7905   22.1600 C   0  0  0  0  0  0
  -19.1517  -28.8811   23.2904 C   0  0  0  0  0  0
  -18.9451  -30.1431   23.8876 C   0  0  0  0  0  0
  -17.6462  -30.6575   24.0538 C   0  0  0  0  0  0
  -25.9021  -34.9474   23.5136 C   0  0  0  0  0  0
  -16.5343  -29.9061   23.6318 C   0  0  0  0  0  0
  -16.7263  -28.6463   23.0352 C   0  0  0  0  0  0
  -26.4472  -31.6576   25.0714 C   0  0  0  0  0  0
  -25.3778  -31.3661   26.1491 C   0  0  0  0  0  0
  -27.0262  -30.3019   24.6030 C   0  0  0  0  0  0
  -27.6041  -32.4290   25.7481 C   0  0  0  0  0  0
  -27.5578  -37.1804   24.8459 C   0  0  0  0  0  0
  -21.4113  -29.3029   22.3780 N   0  0  0  0  0  0
  -26.4286  -37.3798   23.9410 N   0  0  0  0  0  0
  -24.6638  -31.0799   22.1004 N   0  0  0  0  0  0
  -23.4186  -28.8170   23.3022 O   0  0  0  0  0  0
  -28.3694  -26.6854   20.0112 O   0  0  0  0  0  0
  -26.5564  -34.8933   22.4681 O   0  0  0  0  0  0
  -23.5326  -32.1420   23.7529 O   0  0  0  0  0  0
  -31.1113  -21.0805   20.1582 C   0  0  0  0  0  0
  -30.1636  -22.0213   20.5827 C   0  0  0  0  0  0
  -29.3725  -17.9464   21.0962 C   0  0  0  0  0  0
  -30.8366  -19.7091   20.3413 C   0  0  0  0  0  0
  -29.6126  -19.3260   20.9204 C   0  0  0  0  0  0
  -28.9553  -21.5697   21.1425 C   0  0  0  0  0  0
  -31.7498  -18.7028   19.9733 C   0  0  0  0  0  0
  -30.3227  -16.9767   20.7047 C   0  0  0  0  0  0
  -34.3588  -19.6704   17.2086 C   0  0  0  0  0  0
  -27.2698  -25.5543   22.8957 C   0  0  0  0  0  0
  -27.8752  -22.5495   21.6136 C   0  0  0  0  0  0
  -33.1030  -19.0142   19.3427 C   0  0  0  0  0  0
  -33.0109  -19.2710   17.8299 C   0  0  0  0  0  0
  -27.9091  -23.9759   20.9896 C   0  0  0  0  0  0
  -29.0316  -26.3241   21.2209 C   0  0  0  0  0  0
  -28.3919  -25.1048   21.9432 C   0  0  1  0  0  0
  -28.6897  -20.2490   21.3029 N   0  0  0  0  0  0
  -31.4784  -17.3951   20.1427 N   0  0  0  0  0  0
  -30.0129  -15.5840   20.9058 N   0  0  0  0  0  0
  -31.4578  -12.3530   19.1536 H   0  0  0  0  0  0
  -30.2762  -11.3016   19.8627 H   0  0  0  0  0  0
  -29.7444  -11.7690   17.4425 H   0  0  0  0  0  0
  -29.6676  -13.4800   17.7812 H   0  0  0  0  0  0
  -27.8336  -11.3051   18.8367 H   0  0  0  0  0  0
  -27.3660  -12.6119   17.7887 H   0  0  0  0  0  0
  -27.6891  -14.2550   19.5462 H   0  0  0  0  0  0
  -28.6787  -12.0275   21.3967 H   0  0  0  0  0  0
  -28.4750  -13.6951   21.8438 H   0  0  0  0  0  0
  -25.2728   -9.5712   22.4744 H   0  0  0  0  0  0
  -23.9994   -7.4627   22.7475 H   0  0  0  0  0  0
  -21.0805   -8.8696   19.8961 H   0  0  0  0  0  0
  -22.3608  -10.9626   19.6131 H   0  0  0  0  0  0
  -21.2007   -7.6120   23.9696 H   0  0  0  0  0  0
  -21.1503   -6.0511   25.9084 H   0  0  0  0  0  0
  -22.0607   -2.7570   23.2854 H   0  0  0  0  0  0
  -22.4050  -11.9909   22.4815 H   0  0  0  0  0  0
  -21.1065  -13.1293   22.2596 H   0  0  0  0  0  0
  -24.6701  -15.8527   20.5089 H   0  0  0  0  0  0
  -26.2884  -15.6238   20.0853 H   0  0  0  0  0  0
  -26.7126  -32.5512   23.1165 H   0  0  0  0  0  0
  -25.0133  -33.9747   25.0531 H   0  0  0  0  0  0
  -22.6901  -31.3083   21.4144 H   0  0  0  0  0  0
  -23.3728  -35.9658   23.3289 H   0  0  0  0  0  0
  -24.3598  -36.8949   22.2058 H   0  0  0  0  0  0
  -23.7238  -37.6536   23.6639 H   0  0  0  0  0  0
  -26.0346  -31.5855   20.5821 H   0  0  0  0  0  0
  -26.8165  -30.8941   21.9753 H   0  0  0  0  0  0
  -28.0943  -29.1187   21.1830 H   0  0  0  0  0  0
  -26.0974  -26.0001   18.9761 H   0  0  0  0  0  0
  -23.9889  -27.2994   19.0051 H   0  0  0  0  0  0
  -23.7038  -30.5885   19.4011 H   0  0  0  0  0  0
  -22.7304  -29.2335   19.8795 H   0  0  0  0  0  0
  -25.1273  -36.1976   25.0830 H   0  0  0  0  0  0
  -20.9937  -28.3172   24.1446 H   0  0  0  0  0  0
  -20.5646  -26.2220   23.3607 H   0  0  0  0  0  0
  -21.6636  -26.7403   22.1238 H   0  0  0  0  0  0
  -19.6895  -25.6288   21.1209 H   0  0  0  0  0  0
  -19.6699  -27.3188   20.6775 H   0  0  0  0  0  0
  -17.4219  -26.6705   21.3965 H   0  0  0  0  0  0
  -18.0294  -26.0028   22.8976 H   0  0  0  0  0  0
  -19.7956  -30.7245   24.2186 H   0  0  0  0  0  0
  -17.5026  -31.6253   24.5147 H   0  0  0  0  0  0
  -15.5331  -30.2959   23.7664 H   0  0  0  0  0  0
  -15.8661  -28.0797   22.7054 H   0  0  0  0  0  0
  -24.5954  -30.6988   25.7892 H   0  0  0  0  0  0
  -24.8954  -32.2796   26.4971 H   0  0  0  0  0  0
  -25.8194  -30.8854   27.0227 H   0  0  0  0  0  0
  -26.2772  -29.6828   24.1084 H   0  0  0  0  0  0
  -27.4073  -29.7209   25.4438 H   0  0  0  0  0  0
  -27.8599  -30.4376   23.9135 H   0  0  0  0  0  0
  -27.2639  -33.3573   26.2073 H   0  0  0  0  0  0
  -28.3828  -32.6871   25.0303 H   0  0  0  0  0  0
  -28.0706  -31.8399   26.5379 H   0  0  0  0  0  0
  -28.2588  -38.0117   24.7527 H   0  0  0  0  0  0
  -28.1082  -36.2644   24.6240 H   0  0  0  0  0  0
  -27.2295  -37.1423   25.8864 H   0  0  0  0  0  0
  -20.9245  -29.8822   21.7086 H   0  0  0  0  0  0
  -26.0168  -38.2874   24.1406 H   0  0  0  0  0  0
  -32.0315  -21.4276   19.7128 H   0  0  0  0  0  0
  -30.3783  -23.0766   20.4755 H   0  0  0  0  0  0
  -28.4370  -17.6577   21.5525 H   0  0  0  0  0  0
  -34.2806  -19.7410   16.1229 H   0  0  0  0  0  0
  -35.1336  -18.9374   17.4375 H   0  0  0  0  0  0
  -34.7011  -20.6388   17.5767 H   0  0  0  0  0  0
  -26.8969  -24.7249   23.4953 H   0  0  0  0  0  0
  -26.4229  -25.9627   22.3475 H   0  0  0  0  0  0
  -27.6150  -26.3266   23.5846 H   0  0  0  0  0  0
  -27.9133  -22.6082   22.7012 H   0  0  0  0  0  0
  -26.9069  -22.1016   21.3842 H   0  0  0  0  0  0
  -33.7815  -18.1772   19.5154 H   0  0  0  0  0  0
  -33.5645  -19.8605   19.8518 H   0  0  0  0  0  0
  -32.6312  -18.3739   17.3391 H   0  0  0  0  0  0
  -32.2821  -20.0596   17.6333 H   0  0  0  0  0  0
  -26.8957  -24.2234   20.6713 H   0  0  0  0  0  0
  -28.4663  -23.9793   20.0545 H   0  0  0  0  0  0
  -30.0522  -26.0628   20.9411 H   0  0  0  0  0  0
  -29.1309  -27.1742   21.8962 H   0  0  0  0  0  0
  -29.1830  -24.6901   22.5711 H   0  0  0  0  0  0
  -29.0979  -15.3803   21.2721 H   0  0  0  0  0  0
  1 25  1  0  0  0
  1 30  2  0  0  0
  1 89  1  0  0  0
  2  3  1  0  0  0
  2 25  1  0  0  0
  2 90  1  0  0  0
  2 91  1  0  0  0
  3  4  1  0  0  0
  3 92  1  0  0  0
  3 93  1  0  0  0
  4  5  1  0  0  0
  4 94  1  0  0  0
  4 95  1  0  0  0
  5  6  1  0  0  0
  5 26  1  0  0  0
  5 96  1  0  0  0
  6 25  1  0  0  0
  6 97  1  0  0  0
  6 98  1  0  0  0
  7  8  2  0  0  0
  7 26  1  0  0  0
  7 29  1  0  0  0
  8  9  1  0  0  0
  8 22  1  0  0  0
  9 10  1  0  0  0
  9 27  2  0  0  0
 10 11  2  0  0  0
 10 15  1  0  0  0
 11 12  1  0  0  0
 11 99  1  0  0  0
 12 13  2  0  0  0
 12100  1  0  0  0
 13 14  1  0  0  0
 13 31  1  0  0  0
 14 15  2  0  0  0
 14101  1  0  0  0
 15102  1  0  0  0
 16 17  2  0  0  0
 16 21  1  0  0  0
 16 31  1  0  0  0
 17 18  1  0  0  0
 17103  1  0  0  0
 18 19  2  0  0  0
 18104  1  0  0  0
 19 20  1  0  0  0
 19 24  1  0  0  0
 20 21  2  0  0  0
 20105  1  0  0  0
 21 23  1  0  0  0
 22 28  1  0  0  0
 22 32  2  0  0  0
 26 27  1  0  0  0
 28106  1  0  0  0
 28107  1  0  0  0
 29108  1  0  0  0
 29109  1  0  0  0
 33 34  1  0  0  0
 33 66  1  0  0  0
 33 70  2  0  0  0
 34 36  1  0  0  0
 34 59  1  0  0  0
 34110  1  0  0  0
 35 44  2  0  0  0
 35 45  1  0  0  0
 35 68  1  0  0  0
 36 56  1  0  0  0
 36111  1  0  0  0
 37 39  1  0  0  0
 37 47  1  0  0  0
 37 66  1  0  0  0
 37112  1  0  0  0
 38 43  2  0  0  0
 38 46  1  0  0  0
 38 47  1  0  0  0
 39 64  1  0  0  0
 39 67  2  0  0  0
 40 52  1  0  0  0
 40 53  2  0  0  0
 40 58  1  0  0  0
 41113  1  0  0  0
 41114  1  0  0  0
 41115  1  0  0  0
 41 48  1  0  0  0
 42 43  1  0  0  0
 42 66  1  0  0  0
 42116  1  0  0  0
 42117  1  0  0  0
 43 44  1  0  0  0
 44118  1  0  0  0
 45 46  2  0  0  0
 45119  1  0  0  0
 46120  1  0  0  0
 47121  1  0  0  0
 47122  1  0  0  0
 48 56  1  0  0  0
 48 65  1  0  0  0
 48123  1  0  0  0
 49 50  1  0  0  0
 49 53  1  0  0  0
 49 64  1  0  0  0
 49124  1  0  0  0
 50 51  1  0  0  0
 50125  1  0  0  0
 50126  1  0  0  0
 51 52  1  0  0  0
 51127  1  0  0  0
 51128  1  0  0  0
 52129  1  0  0  0
 52130  1  0  0  0
 53 54  1  0  0  0
 54 55  2  0  0  0
 54131  1  0  0  0
 55 57  1  0  0  0
 55132  1  0  0  0
 56 69  2  0  0  0
 57 58  2  0  0  0
 57133  1  0  0  0
 58134  1  0  0  0
 59 60  1  0  0  0
 59 61  1  0  0  0
 59 62  1  0  0  0
 60135  1  0  0  0
 60136  1  0  0  0
 60137  1  0  0  0
 61138  1  0  0  0
 61139  1  0  0  0
 61140  1  0  0  0
 62141  1  0  0  0
 62142  1  0  0  0
 62143  1  0  0  0
 63 65  1  0  0  0
 63144  1  0  0  0
 63145  1  0  0  0
 63146  1  0  0  0
 64147  1  0  0  0
 65148  1  0  0  0
 68 85  1  0  0  0
 71 72  2  0  0  0
 71 74  1  0  0  0
 71149  1  0  0  0
 72 76  1  0  0  0
 72150  1  0  0  0
 73 75  1  0  0  0
 73 78  2  0  0  0
 73151  1  0  0  0
 74 75  2  0  0  0
 74 77  1  0  0  0
 75 87  1  0  0  0
 76 81  1  0  0  0
 76 87  2  0  0  0
 77 82  1  0  0  0
 77 88  2  0  0  0
 78 88  1  0  0  0
 78 89  1  0  0  0
 79 83  1  0  0  0
 79152  1  0  0  0
 79153  1  0  0  0
 79154  1  0  0  0
 80155  1  0  0  0
 80156  1  0  0  0
 80157  1  0  0  0
 80 86  1  0  0  0
 81 84  1  0  0  0
 81158  1  0  0  0
 81159  1  0  0  0
 82 83  1  0  0  0
 82160  1  0  0  0
 82161  1  0  0  0
 83162  1  0  0  0
 83163  1  0  0  0
 84 86  1  0  0  0
 84164  1  0  0  0
 84165  1  0  0  0
 85 86  1  0  0  0
 85166  1  0  0  0
 85167  1  0  0  0
 86168  1  0  0  0
 89169  1  0  0  0
M  ISO  4   1 100  68 101  85 101  89 100
M  END
> <chiral flag>
0

> <version>
0

> <s_m_source_file>
/data/baiqing/PycharmProjects/Reinvent-master-3.2/result/LINK_invent/BTK/process_docking_weight1_custom_sum_contain_oxygen_bond_distance_aromatic_linkinvent_7_9_3/rearranged_h_0097.sdf

> <i_m_source_file_index>
75

> <r_mmod_Potential_Energy-OPLS-2005>
-448.709411621094

> <r_mmod_Stretch_Energy-OPLS-2005>
39.6690368652344

> <r_mmod_Bend_Energy-OPLS-2005>
111.952560424805

> <r_mmod_Torsional_Energy-OPLS-2005>
232.035507202148

> <r_mmod_Improper_Torsional_Energy-OPLS-2005>
3.66583132743835

> <r_mmod_Van_der_Waal_Energy-OPLS-2005>
173.449935913086

> <r_mmod_Electrostatic_Energy-OPLS-2005>
-792.636596679688

> <r_mmod_Solvation_Energy-OPLS-2005>
-233.551651000977

> <b_mmod_Minimization_Converged-OPLS-2005>
0

> <r_mmod_RMS_Derivative-OPLS-2005>
3.62245464324951

$$$$
76
                    3D
 Structure written by MMmdl.
169177  0  0  1  0            999 V2000
  -30.7695  -14.5320   20.5151 C   0  0  0  0  0  0
  -30.4008  -12.3406   19.4459 C   0  0  0  0  0  0
  -29.4982  -12.5009   18.2067 C   0  0  0  0  0  0
  -28.0182  -12.3810   18.6115 C   0  0  0  0  0  0
  -27.6510  -13.2411   19.8526 C   0  0  2  0  0  0
  -28.6972  -13.1338   20.9865 C   0  0  0  0  0  0
  -25.2565  -13.8222   20.5726 C   0  0  0  0  0  0
  -24.1841  -13.0445   20.9193 C   0  0  0  0  0  0
  -24.6472  -11.6950   20.8731 C   0  0  0  0  0  0
  -23.9126  -10.4316   21.0377 C   0  0  0  0  0  0
  -24.3642   -9.4234   21.9189 C   0  0  0  0  0  0
  -23.6292   -8.2277   22.0792 C   0  0  0  0  0  0
  -22.4287   -8.0310   21.3575 C   0  0  0  0  0  0
  -21.9920   -9.0292   20.4687 C   0  0  0  0  0  0
  -22.7269  -10.2162   20.3061 C   0  0  0  0  0  0
  -21.6845   -6.0743   22.5282 C   0  0  0  0  0  0
  -21.4028   -6.5648   23.8208 C   0  0  0  0  0  0
  -21.3659   -5.6811   24.9179 C   0  0  0  0  0  0
  -21.6026   -4.3062   24.7225 C   0  0  0  0  0  0
  -21.8815   -3.8155   23.4350 C   0  0  0  0  0  0
  -21.9197   -4.6972   22.3405 C   0  0  0  0  0  0
  -22.7868  -13.5256   21.1845 C   0  0  0  0  0  0
  -22.1662   -4.2166   21.0984 F   0  0  0  0  0  0
  -21.5650   -3.4539   25.7729 F   0  0  0  0  0  0
  -30.0205  -13.3974   20.4061 N   0  0  0  0  0  0
  -26.3010  -12.9456   20.3301 N   0  0  0  0  0  0
  -25.9399  -11.6588   20.5707 N   0  0  0  0  0  0
  -22.0448  -12.8307   22.0389 N   0  0  0  0  0  0
  -25.4192  -15.1947   20.4207 N   0  0  0  0  0  0
  -31.9409  -14.5430   20.1360 O   0  0  0  0  0  0
  -21.6649   -6.8890   21.4250 O   0  0  0  0  0  0
  -22.3597  -14.5541   20.6644 O   0  0  0  0  0  0
  -24.6258  -31.8745   23.2070 C   0  0  0  0  0  0
  -25.9119  -32.4853   23.8364 C   0  0  1  0  0  0
  -27.2134  -27.3638   20.1194 C   0  0  0  0  0  0
  -25.5985  -33.8652   24.2312 N   0  0  0  0  0  0
  -23.4155  -30.4846   21.5594 C   0  0  2  0  0  0
  -24.8592  -28.9492   20.1245 C   0  0  0  0  0  0
  -22.7514  -29.4633   22.5075 C   0  0  0  0  0  0
  -18.0283  -28.1304   22.8476 C   0  0  0  0  0  0
  -24.1460  -36.7247   23.2620 C   0  0  0  0  0  0
  -25.9553  -30.8063   21.3827 C   0  0  0  0  0  0
  -26.0240  -29.4352   20.7308 C   0  0  0  0  0  0
  -27.2077  -28.6495   20.7298 C   0  0  0  0  0  0
  -26.0297  -26.9262   19.4915 C   0  0  0  0  0  0
  -24.8585  -27.6958   19.4982 C   0  0  0  0  0  0
  -23.6265  -29.8207   20.1742 C   0  0  0  0  0  0
  -25.4114  -36.3118   24.0326 C   0  0  1  0  0  0
  -20.5875  -28.3724   23.1416 C   0  0  2  0  0  0
  -20.6784  -26.9461   22.5605 C   0  0  0  0  0  0
  -19.5846  -26.6387   21.5311 C   0  0  0  0  0  0
  -18.2039  -26.7798   22.1710 C   0  0  0  0  0  0
  -19.1492  -28.8877   23.2805 C   0  0  0  0  0  0
  -18.9404  -30.1523   23.8715 C   0  0  0  0  0  0
  -17.6398  -30.6610   24.0432 C   0  0  0  0  0  0
  -25.9088  -34.9515   23.5114 C   0  0  0  0  0  0
  -16.5330  -29.9020   23.6225 C   0  0  0  0  0  0
  -16.7253  -28.6418   23.0303 C   0  0  0  0  0  0
  -26.4464  -31.6633   25.0698 C   0  0  0  0  0  0
  -25.3623  -31.3830   26.1363 C   0  0  0  0  0  0
  -27.0355  -30.3083   24.6163 C   0  0  0  0  0  0
  -27.6065  -32.4317   25.7423 C   0  0  0  0  0  0
  -27.5602  -37.1796   24.8497 C   0  0  0  0  0  0
  -21.4244  -29.2984   22.3769 N   0  0  0  0  0  0
  -26.4315  -37.3798   23.9432 N   0  0  0  0  0  0
  -24.6829  -31.0684   22.1070 N   0  0  0  0  0  0
  -23.4226  -28.8286   23.3228 O   0  0  0  0  0  0
  -28.3406  -26.5523   20.0928 O   0  0  0  0  0  0
  -26.5638  -34.8977   22.4664 O   0  0  0  0  0  0
  -23.5456  -32.1592   23.7399 O   0  0  0  0  0  0
  -30.3913  -20.5276   20.1489 C   0  0  0  0  0  0
  -29.2077  -18.9088   21.1313 C   0  0  0  0  0  0
  -31.1690  -19.3973   20.1454 C   0  0  0  0  0  0
  -30.4224  -18.3491   20.7903 C   0  0  0  0  0  0
  -33.6741  -21.0128   21.1088 C   0  0  0  0  0  0
  -34.7206  -20.5002   18.8587 C   0  0  0  0  0  0
  -26.9795  -23.7420   19.4441 C   0  0  0  0  0  0
  -32.5735  -19.3157   19.5666 C   0  0  0  0  0  0
  -30.9892  -16.9426   21.0938 C   0  0  0  0  0  0
  -28.5266  -22.7486   21.3024 C   0  0  0  0  0  0
  -28.1172  -21.2449   20.9949 C   0  0  0  0  0  0
  -28.3307  -25.3462   20.9169 C   0  0  0  0  0  0
  -33.4000  -20.6176   19.6478 C   0  0  0  0  0  0
  -28.2855  -23.9120   20.2477 C   0  0  2  0  0  0
  -29.2048  -20.2678   20.7936 N   0  0  0  0  0  0
  -30.1879  -15.7011   20.8945 N   0  0  0  0  0  0
  -31.4515  -12.3784   19.1526 H   0  0  0  0  0  0
  -30.2549  -11.3578   19.8994 H   0  0  0  0  0  0
  -29.7425  -11.7435   17.4607 H   0  0  0  0  0  0
  -29.6770  -13.4653   17.7274 H   0  0  0  0  0  0
  -27.8128  -11.3293   18.8090 H   0  0  0  0  0  0
  -27.3947  -12.6520   17.7595 H   0  0  0  0  0  0
  -27.6607  -14.2763   19.5114 H   0  0  0  0  0  0
  -28.6767  -12.1462   21.4429 H   0  0  0  0  0  0
  -28.4681  -13.8386   21.7864 H   0  0  0  0  0  0
  -25.2744   -9.5720   22.4827 H   0  0  0  0  0  0
  -23.9965   -7.4652   22.7532 H   0  0  0  0  0  0
  -21.0826   -8.8831   19.8994 H   0  0  0  0  0  0
  -22.3687  -10.9735   19.6218 H   0  0  0  0  0  0
  -21.2023   -7.6163   23.9730 H   0  0  0  0  0  0
  -21.1479   -6.0533   25.9083 H   0  0  0  0  0  0
  -22.0575   -2.7621   23.2834 H   0  0  0  0  0  0
  -22.3992  -11.9934   22.4754 H   0  0  0  0  0  0
  -21.1106  -13.1478   22.2569 H   0  0  0  0  0  0
  -24.6356  -15.8293   20.5113 H   0  0  0  0  0  0
  -26.2579  -15.6468   20.0747 H   0  0  0  0  0  0
  -26.7152  -32.5526   23.1099 H   0  0  0  0  0  0
  -25.0112  -33.9784   25.0447 H   0  0  0  0  0  0
  -22.7051  -31.3004   21.4107 H   0  0  0  0  0  0
  -23.3784  -35.9512   23.3339 H   0  0  0  0  0  0
  -24.3502  -36.8819   22.2010 H   0  0  0  0  0  0
  -23.7144  -37.6435   23.6605 H   0  0  0  0  0  0
  -26.0938  -31.5677   20.6146 H   0  0  0  0  0  0
  -26.8399  -30.8503   22.0083 H   0  0  0  0  0  0
  -28.1032  -29.0140   21.2177 H   0  0  0  0  0  0
  -25.9729  -25.9933   18.9715 H   0  0  0  0  0  0
  -23.9680  -27.3186   19.0137 H   0  0  0  0  0  0
  -23.7422  -30.5969   19.4162 H   0  0  0  0  0  0
  -22.7500  -29.2420   19.8734 H   0  0  0  0  0  0
  -25.1274  -36.1970   25.0809 H   0  0  0  0  0  0
  -20.9779  -28.3412   24.1625 H   0  0  0  0  0  0
  -20.5817  -26.2388   23.3882 H   0  0  0  0  0  0
  -21.6645  -26.7573   22.1344 H   0  0  0  0  0  0
  -19.7086  -25.6324   21.1362 H   0  0  0  0  0  0
  -19.6653  -27.3170   20.6777 H   0  0  0  0  0  0
  -17.4312  -26.6307   21.4169 H   0  0  0  0  0  0
  -18.0594  -25.9995   22.9218 H   0  0  0  0  0  0
  -19.7932  -30.7352   24.1919 H   0  0  0  0  0  0
  -17.4931  -31.6273   24.5021 H   0  0  0  0  0  0
  -15.5304  -30.2846   23.7557 H   0  0  0  0  0  0
  -15.8672  -28.0711   22.7051 H   0  0  0  0  0  0
  -24.5744  -30.7252   25.7650 H   0  0  0  0  0  0
  -24.8792  -32.3012   26.4708 H   0  0  0  0  0  0
  -25.7829  -30.9008   27.0191 H   0  0  0  0  0  0
  -26.3005  -29.6775   24.1116 H   0  0  0  0  0  0
  -27.4056  -29.7382   25.4698 H   0  0  0  0  0  0
  -27.8841  -30.4439   23.9452 H   0  0  0  0  0  0
  -27.2759  -33.3643   26.2008 H   0  0  0  0  0  0
  -28.3836  -32.6844   25.0189 H   0  0  0  0  0  0
  -28.0748  -31.8388   26.5292 H   0  0  0  0  0  0
  -28.2678  -38.0051   24.7549 H   0  0  0  0  0  0
  -28.1083  -36.2611   24.6337 H   0  0  0  0  0  0
  -27.2336  -37.1407   25.8910 H   0  0  0  0  0  0
  -20.9497  -29.8501   21.6767 H   0  0  0  0  0  0
  -26.0246  -38.2908   24.1395 H   0  0  0  0  0  0
  -30.5932  -21.5187   19.7708 H   0  0  0  0  0  0
  -28.3518  -18.4660   21.6263 H   0  0  0  0  0  0
  -34.1811  -21.9757   21.1723 H   0  0  0  0  0  0
  -34.3101  -20.2730   21.5977 H   0  0  0  0  0  0
  -32.7552  -21.0916   21.6929 H   0  0  0  0  0  0
  -35.3192  -21.4084   18.9512 H   0  0  0  0  0  0
  -34.5387  -20.3301   17.7957 H   0  0  0  0  0  0
  -35.3346  -19.6710   19.2148 H   0  0  0  0  0  0
  -26.7689  -22.7377   19.0994 H   0  0  0  0  0  0
  -27.0419  -24.3173   18.5220 H   0  0  0  0  0  0
  -26.1117  -24.0627   20.0246 H   0  0  0  0  0  0
  -32.4926  -18.9937   18.5266 H   0  0  0  0  0  0
  -33.1316  -18.5422   20.0859 H   0  0  0  0  0  0
  -31.3567  -16.9475   22.1220 H   0  0  0  0  0  0
  -31.8922  -16.8716   20.4882 H   0  0  0  0  0  0
  -29.5633  -22.7872   21.6446 H   0  0  0  0  0  0
  -27.9743  -23.0282   22.2004 H   0  0  0  0  0  0
  -27.4384  -21.1400   20.1547 H   0  0  0  0  0  0
  -27.5412  -20.8839   21.8509 H   0  0  0  0  0  0
  -29.2683  -25.3866   21.4693 H   0  0  0  0  0  0
  -27.5601  -25.4216   21.6913 H   0  0  0  0  0  0
  -32.8290  -21.4143   19.1700 H   0  0  0  0  0  0
  -29.1153  -23.8623   19.5370 H   0  0  0  0  0  0
  -29.2055  -15.7135   21.1199 H   0  0  0  0  0  0
  1 25  1  0  0  0
  1 30  2  0  0  0
  1 86  1  0  0  0
  2  3  1  0  0  0
  2 25  1  0  0  0
  2 87  1  0  0  0
  2 88  1  0  0  0
  3  4  1  0  0  0
  3 89  1  0  0  0
  3 90  1  0  0  0
  4  5  1  0  0  0
  4 91  1  0  0  0
  4 92  1  0  0  0
  5  6  1  0  0  0
  5 26  1  0  0  0
  5 93  1  0  0  0
  6 25  1  0  0  0
  6 94  1  0  0  0
  6 95  1  0  0  0
  7  8  2  0  0  0
  7 26  1  0  0  0
  7 29  1  0  0  0
  8  9  1  0  0  0
  8 22  1  0  0  0
  9 10  1  0  0  0
  9 27  2  0  0  0
 10 11  2  0  0  0
 10 15  1  0  0  0
 11 12  1  0  0  0
 11 96  1  0  0  0
 12 13  2  0  0  0
 12 97  1  0  0  0
 13 14  1  0  0  0
 13 31  1  0  0  0
 14 15  2  0  0  0
 14 98  1  0  0  0
 15 99  1  0  0  0
 16 17  2  0  0  0
 16 21  1  0  0  0
 16 31  1  0  0  0
 17 18  1  0  0  0
 17100  1  0  0  0
 18 19  2  0  0  0
 18101  1  0  0  0
 19 20  1  0  0  0
 19 24  1  0  0  0
 20 21  2  0  0  0
 20102  1  0  0  0
 21 23  1  0  0  0
 22 28  1  0  0  0
 22 32  2  0  0  0
 26 27  1  0  0  0
 28103  1  0  0  0
 28104  1  0  0  0
 29105  1  0  0  0
 29106  1  0  0  0
 33 34  1  0  0  0
 33 66  1  0  0  0
 33 70  2  0  0  0
 34 36  1  0  0  0
 34 59  1  0  0  0
 34107  1  0  0  0
 35 44  2  0  0  0
 35 45  1  0  0  0
 35 68  1  0  0  0
 36 56  1  0  0  0
 36108  1  0  0  0
 37 39  1  0  0  0
 37 47  1  0  0  0
 37 66  1  0  0  0
 37109  1  0  0  0
 38 43  2  0  0  0
 38 46  1  0  0  0
 38 47  1  0  0  0
 39 64  1  0  0  0
 39 67  2  0  0  0
 40 52  1  0  0  0
 40 53  2  0  0  0
 40 58  1  0  0  0
 41110  1  0  0  0
 41111  1  0  0  0
 41112  1  0  0  0
 41 48  1  0  0  0
 42 43  1  0  0  0
 42 66  1  0  0  0
 42113  1  0  0  0
 42114  1  0  0  0
 43 44  1  0  0  0
 44115  1  0  0  0
 45 46  2  0  0  0
 45116  1  0  0  0
 46117  1  0  0  0
 47118  1  0  0  0
 47119  1  0  0  0
 48 56  1  0  0  0
 48 65  1  0  0  0
 48120  1  0  0  0
 49 50  1  0  0  0
 49 53  1  0  0  0
 49 64  1  0  0  0
 49121  1  0  0  0
 50 51  1  0  0  0
 50122  1  0  0  0
 50123  1  0  0  0
 51 52  1  0  0  0
 51124  1  0  0  0
 51125  1  0  0  0
 52126  1  0  0  0
 52127  1  0  0  0
 53 54  1  0  0  0
 54 55  2  0  0  0
 54128  1  0  0  0
 55 57  1  0  0  0
 55129  1  0  0  0
 56 69  2  0  0  0
 57 58  2  0  0  0
 57130  1  0  0  0
 58131  1  0  0  0
 59 60  1  0  0  0
 59 61  1  0  0  0
 59 62  1  0  0  0
 60132  1  0  0  0
 60133  1  0  0  0
 60134  1  0  0  0
 61135  1  0  0  0
 61136  1  0  0  0
 61137  1  0  0  0
 62138  1  0  0  0
 62139  1  0  0  0
 62140  1  0  0  0
 63 65  1  0  0  0
 63141  1  0  0  0
 63142  1  0  0  0
 63143  1  0  0  0
 64144  1  0  0  0
 65145  1  0  0  0
 68 82  1  0  0  0
 71 73  2  0  0  0
 71 85  1  0  0  0
 71146  1  0  0  0
 72 74  2  0  0  0
 72 85  1  0  0  0
 72147  1  0  0  0
 73 74  1  0  0  0
 73 78  1  0  0  0
 74 79  1  0  0  0
 75148  1  0  0  0
 75149  1  0  0  0
 75150  1  0  0  0
 75 83  1  0  0  0
 76 83  1  0  0  0
 76151  1  0  0  0
 76152  1  0  0  0
 76153  1  0  0  0
 77154  1  0  0  0
 77155  1  0  0  0
 77156  1  0  0  0
 77 84  1  0  0  0
 78 83  1  0  0  0
 78157  1  0  0  0
 78158  1  0  0  0
 79 86  1  0  0  0
 79159  1  0  0  0
 79160  1  0  0  0
 80 81  1  0  0  0
 80 84  1  0  0  0
 80161  1  0  0  0
 80162  1  0  0  0
 81 85  1  0  0  0
 81163  1  0  0  0
 81164  1  0  0  0
 82 84  1  0  0  0
 82165  1  0  0  0
 82166  1  0  0  0
 83167  1  0  0  0
 84168  1  0  0  0
 86169  1  0  0  0
M  ISO  4   1 100  68 101  82 101  86 100
M  END
> <chiral flag>
0

> <version>
0

> <s_m_source_file>
/data/baiqing/PycharmProjects/Reinvent-master-3.2/result/LINK_invent/BTK/process_docking_weight1_custom_sum_contain_oxygen_bond_distance_aromatic_linkinvent_7_9_3/rearranged_h_0097.sdf

> <i_m_source_file_index>
76

> <r_mmod_Potential_Energy-OPLS-2005>
26.5415344238281

> <r_mmod_Stretch_Energy-OPLS-2005>
57.4451141357422

> <r_mmod_Bend_Energy-OPLS-2005>
147.374313354492

> <r_mmod_Torsional_Energy-OPLS-2005>
259.701843261719

> <r_mmod_Improper_Torsional_Energy-OPLS-2005>
3.76790881156921

> <r_mmod_Van_der_Waal_Energy-OPLS-2005>
137.824142456055

> <r_mmod_Electrostatic_Energy-OPLS-2005>
-413.851257324219

> <r_mmod_Solvation_Energy-OPLS-2005>
-201.032913208008

> <b_mmod_Minimization_Converged-OPLS-2005>
0

> <r_mmod_RMS_Derivative-OPLS-2005>
7.33406591415405

$$$$
77
                    3D
 Structure written by MMmdl.
169177  0  0  1  0            999 V2000
  -30.6652  -14.6304   20.5791 C   0  0  0  0  0  0
  -30.4165  -12.4158   19.4545 C   0  0  0  0  0  0
  -29.4928  -12.5500   18.2254 C   0  0  0  0  0  0
  -28.0195  -12.3630   18.6335 C   0  0  0  0  0  0
  -27.6423  -13.2281   19.8657 C   0  0  2  0  0  0
  -28.6838  -13.0962   20.9977 C   0  0  0  0  0  0
  -25.2491  -13.8205   20.5713 C   0  0  0  0  0  0
  -24.1793  -13.0438   20.9228 C   0  0  0  0  0  0
  -24.6361  -11.6919   20.8697 C   0  0  0  0  0  0
  -23.9034  -10.4299   21.0314 C   0  0  0  0  0  0
  -24.3584   -9.4231   21.9115 C   0  0  0  0  0  0
  -23.6288   -8.2257   22.0712 C   0  0  0  0  0  0
  -22.4277   -8.0263   21.3522 C   0  0  0  0  0  0
  -21.9879   -9.0213   20.4618 C   0  0  0  0  0  0
  -22.7172  -10.2119   20.2998 C   0  0  0  0  0  0
  -21.6872   -6.0723   22.5293 C   0  0  0  0  0  0
  -21.4003   -6.5629   23.8232 C   0  0  0  0  0  0
  -21.3669   -5.6776   24.9198 C   0  0  0  0  0  0
  -21.6077   -4.3043   24.7225 C   0  0  0  0  0  0
  -21.8815   -3.8132   23.4339 C   0  0  0  0  0  0
  -21.9182   -4.6952   22.3397 C   0  0  0  0  0  0
  -22.7823  -13.5208   21.1916 C   0  0  0  0  0  0
  -22.1658   -4.2155   21.0970 F   0  0  0  0  0  0
  -21.5651   -3.4498   25.7722 F   0  0  0  0  0  0
  -29.9957  -13.4405   20.4317 N   0  0  0  0  0  0
  -26.2915  -12.9398   20.3345 N   0  0  0  0  0  0
  -25.9298  -11.6525   20.5751 N   0  0  0  0  0  0
  -22.0488  -12.8160   22.0473 N   0  0  0  0  0  0
  -25.4116  -15.1927   20.4104 N   0  0  0  0  0  0
  -31.8274  -14.7476   20.1857 O   0  0  0  0  0  0
  -21.6671   -6.8835   21.4235 O   0  0  0  0  0  0
  -22.3497  -14.5498   20.6769 O   0  0  0  0  0  0
  -24.6175  -31.8685   23.2024 C   0  0  0  0  0  0
  -25.9059  -32.4822   23.8347 C   0  0  1  0  0  0
  -27.2566  -27.3852   20.1238 C   0  0  0  0  0  0
  -25.5856  -33.8622   24.2280 N   0  0  0  0  0  0
  -23.4129  -30.4837   21.5419 C   0  0  2  0  0  0
  -24.8712  -28.9368   20.1208 C   0  0  0  0  0  0
  -22.7456  -29.4659   22.4967 C   0  0  0  0  0  0
  -18.0279  -28.1366   22.8486 C   0  0  0  0  0  0
  -24.1489  -36.7328   23.2648 C   0  0  0  0  0  0
  -25.9460  -30.8151   21.3688 C   0  0  0  0  0  0
  -26.0312  -29.4374   20.7326 C   0  0  0  0  0  0
  -27.2279  -28.6674   20.7416 C   0  0  0  0  0  0
  -26.0818  -26.9220   19.5013 C   0  0  0  0  0  0
  -24.8938  -27.6784   19.4989 C   0  0  0  0  0  0
  -23.6309  -29.8050   20.1617 C   0  0  0  0  0  0
  -25.4097  -36.3114   24.0353 C   0  0  1  0  0  0
  -20.5877  -28.3677   23.1277 C   0  0  2  0  0  0
  -20.6748  -26.9400   22.5405 C   0  0  0  0  0  0
  -19.5718  -26.6371   21.5217 C   0  0  0  0  0  0
  -18.1908  -26.7917   22.1641 C   0  0  0  0  0  0
  -19.1540  -28.8848   23.2879 C   0  0  0  0  0  0
  -18.9478  -30.1458   23.8899 C   0  0  0  0  0  0
  -17.6467  -30.6589   24.0573 C   0  0  0  0  0  0
  -25.9038  -34.9492   23.5135 C   0  0  0  0  0  0
  -16.5344  -29.9097   23.6311 C   0  0  0  0  0  0
  -16.7272  -28.6502   23.0346 C   0  0  0  0  0  0
  -26.4439  -31.6585   25.0690 C   0  0  0  0  0  0
  -25.3685  -31.3725   26.1431 C   0  0  0  0  0  0
  -27.0239  -30.2998   24.6076 C   0  0  0  0  0  0
  -27.5982  -32.4323   25.7476 C   0  0  0  0  0  0
  -27.5590  -37.1807   24.8461 C   0  0  0  0  0  0
  -21.4182  -29.3032   22.3716 N   0  0  0  0  0  0
  -26.4294  -37.3813   23.9431 N   0  0  0  0  0  0
  -24.6765  -31.0721   22.0952 N   0  0  0  0  0  0
  -23.4204  -28.8252   23.3074 O   0  0  0  0  0  0
  -28.3768  -26.5753   19.9808 O   0  0  0  0  0  0
  -26.5636  -34.8965   22.4706 O   0  0  0  0  0  0
  -23.5355  -32.1462   23.7383 O   0  0  0  0  0  0
  -29.8533  -19.5784   21.8319 C   0  0  0  0  0  0
  -30.0078  -18.4407   21.0557 C   0  0  0  0  0  0
  -29.6537  -18.8701   19.7333 C   0  0  0  0  0  0
  -29.4251  -20.2387   19.7537 C   0  0  0  0  0  0
  -29.1480  -21.1798   18.6212 C   0  0  0  0  0  0
  -30.7093  -18.1477   17.5394 C   0  0  0  0  0  0
  -28.1543  -17.9877   17.9009 C   0  0  0  0  0  0
  -29.2303  -24.7772   23.2123 C   0  0  0  0  0  0
  -30.5400  -17.0290   21.5282 C   0  0  0  0  0  0
  -29.4618  -23.4294   21.0393 C   0  0  0  0  0  0
  -28.9922  -22.0211   21.6300 C   0  0  0  0  0  0
  -29.1500  -26.1420   21.1143 C   0  0  0  0  0  0
  -29.5562  -17.9471   18.5361 C   0  0  0  0  0  0
  -28.8197  -24.7169   21.7268 C   0  0  2  0  0  0
  -29.4514  -20.6913   21.0704 N   0  0  0  0  0  0
  -29.9723  -15.7127   21.0587 N   0  0  0  0  0  0
  -31.4617  -12.5337   19.1582 H   0  0  0  0  0  0
  -30.3372  -11.4204   19.8928 H   0  0  0  0  0  0
  -29.7672  -11.8266   17.4579 H   0  0  0  0  0  0
  -29.6148  -13.5372   17.7760 H   0  0  0  0  0  0
  -27.8742  -11.3049   18.8513 H   0  0  0  0  0  0
  -27.3619  -12.5953   17.7949 H   0  0  0  0  0  0
  -27.6544  -14.2636   19.5282 H   0  0  0  0  0  0
  -28.7023  -12.0794   21.3937 H   0  0  0  0  0  0
  -28.4211  -13.7360   21.8391 H   0  0  0  0  0  0
  -25.2712   -9.5785   22.4701 H   0  0  0  0  0  0
  -24.0046   -7.4654   22.7399 H   0  0  0  0  0  0
  -21.0832   -8.8641   19.8911 H   0  0  0  0  0  0
  -22.3526  -10.9626   19.6115 H   0  0  0  0  0  0
  -21.1978   -7.6142   23.9727 H   0  0  0  0  0  0
  -21.1531   -6.0520   25.9117 H   0  0  0  0  0  0
  -22.0582   -2.7584   23.2839 H   0  0  0  0  0  0
  -22.4101  -11.9805   22.4835 H   0  0  0  0  0  0
  -21.1113  -13.1164   22.2698 H   0  0  0  0  0  0
  -24.6324  -15.8359   20.5130 H   0  0  0  0  0  0
  -26.2628  -15.6494   20.1053 H   0  0  0  0  0  0
  -26.7151  -32.5571   23.1145 H   0  0  0  0  0  0
  -24.9880  -33.9737   25.0333 H   0  0  0  0  0  0
  -22.7036  -31.3005   21.3903 H   0  0  0  0  0  0
  -23.3767  -35.9640   23.3286 H   0  0  0  0  0  0
  -24.3602  -36.8963   22.2069 H   0  0  0  0  0  0
  -23.7203  -37.6517   23.6666 H   0  0  0  0  0  0
  -26.0571  -31.5767   20.5950 H   0  0  0  0  0  0
  -26.8305  -30.8822   21.9894 H   0  0  0  0  0  0
  -28.1234  -29.0657   21.1979 H   0  0  0  0  0  0
  -26.0989  -25.9606   19.0063 H   0  0  0  0  0  0
  -24.0107  -27.2854   19.0160 H   0  0  0  0  0  0
  -23.7426  -30.5726   19.3950 H   0  0  0  0  0  0
  -22.7560  -29.2202   19.8687 H   0  0  0  0  0  0
  -25.1275  -36.1989   25.0841 H   0  0  0  0  0  0
  -20.9953  -28.3256   24.1416 H   0  0  0  0  0  0
  -20.5608  -26.2324   23.3644 H   0  0  0  0  0  0
  -21.6621  -26.7419   22.1231 H   0  0  0  0  0  0
  -19.6889  -25.6291   21.1242 H   0  0  0  0  0  0
  -19.6635  -27.3208   20.6767 H   0  0  0  0  0  0
  -17.4167  -26.6677   21.4045 H   0  0  0  0  0  0
  -18.0314  -26.0065   22.9036 H   0  0  0  0  0  0
  -19.7957  -30.7252   24.2286 H   0  0  0  0  0  0
  -17.5026  -31.6275   24.5171 H   0  0  0  0  0  0
  -15.5358  -30.2996   23.7623 H   0  0  0  0  0  0
  -15.8673  -28.0827   22.7042 H   0  0  0  0  0  0
  -24.5858  -30.7087   25.7755 H   0  0  0  0  0  0
  -24.8901  -32.2903   26.4858 H   0  0  0  0  0  0
  -25.8023  -30.8899   27.0192 H   0  0  0  0  0  0
  -26.2772  -29.6817   24.1096 H   0  0  0  0  0  0
  -27.3910  -29.7193   25.4531 H   0  0  0  0  0  0
  -27.8641  -30.4258   23.9265 H   0  0  0  0  0  0
  -27.2554  -33.3610   26.2051 H   0  0  0  0  0  0
  -28.3802  -32.6913   25.0336 H   0  0  0  0  0  0
  -28.0632  -31.8466   26.5419 H   0  0  0  0  0  0
  -28.2586  -38.0133   24.7552 H   0  0  0  0  0  0
  -28.1109  -36.2663   24.6220 H   0  0  0  0  0  0
  -27.2331  -37.1383   25.8872 H   0  0  0  0  0  0
  -20.9391  -29.8779   21.6920 H   0  0  0  0  0  0
  -26.0201  -38.2893   24.1420 H   0  0  0  0  0  0
  -29.9855  -19.7003   22.9019 H   0  0  0  0  0  0
  -29.1503  -20.6752   17.6607 H   0  0  0  0  0  0
  -29.9286  -21.9386   18.5613 H   0  0  0  0  0  0
  -28.1811  -21.6727   18.7271 H   0  0  0  0  0  0
  -31.6703  -17.9382   18.0123 H   0  0  0  0  0  0
  -30.7537  -19.1620   17.1463 H   0  0  0  0  0  0
  -30.6152  -17.4722   16.6909 H   0  0  0  0  0  0
  -27.3808  -17.9471   18.6714 H   0  0  0  0  0  0
  -28.0003  -17.1260   17.2529 H   0  0  0  0  0  0
  -27.9743  -18.8852   17.3079 H   0  0  0  0  0  0
  -28.8376  -23.9424   23.7912 H   0  0  0  0  0  0
  -28.8743  -25.6834   23.7025 H   0  0  0  0  0  0
  -30.3165  -24.7709   23.3081 H   0  0  0  0  0  0
  -31.6103  -17.0436   21.3138 H   0  0  0  0  0  0
  -30.4827  -17.0097   22.6167 H   0  0  0  0  0  0
  -29.2222  -23.4923   19.9816 H   0  0  0  0  0  0
  -30.5490  -23.5026   21.1055 H   0  0  0  0  0  0
  -27.9014  -22.0030   21.5805 H   0  0  0  0  0  0
  -29.2247  -22.0102   22.6969 H   0  0  0  0  0  0
  -30.1980  -26.1397   20.8163 H   0  0  0  0  0  0
  -29.0753  -26.9193   21.8779 H   0  0  0  0  0  0
  -29.6692  -16.9328   18.9013 H   0  0  0  0  0  0
  -27.7323  -24.6089   21.6854 H   0  0  0  0  0  0
  -28.9892  -15.5596   21.2406 H   0  0  0  0  0  0
  1 25  1  0  0  0
  1 30  2  0  0  0
  1 86  1  0  0  0
  2  3  1  0  0  0
  2 25  1  0  0  0
  2 87  1  0  0  0
  2 88  1  0  0  0
  3  4  1  0  0  0
  3 89  1  0  0  0
  3 90  1  0  0  0
  4  5  1  0  0  0
  4 91  1  0  0  0
  4 92  1  0  0  0
  5  6  1  0  0  0
  5 26  1  0  0  0
  5 93  1  0  0  0
  6 25  1  0  0  0
  6 94  1  0  0  0
  6 95  1  0  0  0
  7  8  2  0  0  0
  7 26  1  0  0  0
  7 29  1  0  0  0
  8  9  1  0  0  0
  8 22  1  0  0  0
  9 10  1  0  0  0
  9 27  2  0  0  0
 10 11  2  0  0  0
 10 15  1  0  0  0
 11 12  1  0  0  0
 11 96  1  0  0  0
 12 13  2  0  0  0
 12 97  1  0  0  0
 13 14  1  0  0  0
 13 31  1  0  0  0
 14 15  2  0  0  0
 14 98  1  0  0  0
 15 99  1  0  0  0
 16 17  2  0  0  0
 16 21  1  0  0  0
 16 31  1  0  0  0
 17 18  1  0  0  0
 17100  1  0  0  0
 18 19  2  0  0  0
 18101  1  0  0  0
 19 20  1  0  0  0
 19 24  1  0  0  0
 20 21  2  0  0  0
 20102  1  0  0  0
 21 23  1  0  0  0
 22 28  1  0  0  0
 22 32  2  0  0  0
 26 27  1  0  0  0
 28103  1  0  0  0
 28104  1  0  0  0
 29105  1  0  0  0
 29106  1  0  0  0
 33 34  1  0  0  0
 33 66  1  0  0  0
 33 70  2  0  0  0
 34 36  1  0  0  0
 34 59  1  0  0  0
 34107  1  0  0  0
 35 44  2  0  0  0
 35 45  1  0  0  0
 35 68  1  0  0  0
 36 56  1  0  0  0
 36108  1  0  0  0
 37 39  1  0  0  0
 37 47  1  0  0  0
 37 66  1  0  0  0
 37109  1  0  0  0
 38 43  2  0  0  0
 38 46  1  0  0  0
 38 47  1  0  0  0
 39 64  1  0  0  0
 39 67  2  0  0  0
 40 52  1  0  0  0
 40 53  2  0  0  0
 40 58  1  0  0  0
 41110  1  0  0  0
 41111  1  0  0  0
 41112  1  0  0  0
 41 48  1  0  0  0
 42 43  1  0  0  0
 42 66  1  0  0  0
 42113  1  0  0  0
 42114  1  0  0  0
 43 44  1  0  0  0
 44115  1  0  0  0
 45 46  2  0  0  0
 45116  1  0  0  0
 46117  1  0  0  0
 47118  1  0  0  0
 47119  1  0  0  0
 48 56  1  0  0  0
 48 65  1  0  0  0
 48120  1  0  0  0
 49 50  1  0  0  0
 49 53  1  0  0  0
 49 64  1  0  0  0
 49121  1  0  0  0
 50 51  1  0  0  0
 50122  1  0  0  0
 50123  1  0  0  0
 51 52  1  0  0  0
 51124  1  0  0  0
 51125  1  0  0  0
 52126  1  0  0  0
 52127  1  0  0  0
 53 54  1  0  0  0
 54 55  2  0  0  0
 54128  1  0  0  0
 55 57  1  0  0  0
 55129  1  0  0  0
 56 69  2  0  0  0
 57 58  2  0  0  0
 57130  1  0  0  0
 58131  1  0  0  0
 59 60  1  0  0  0
 59 61  1  0  0  0
 59 62  1  0  0  0
 60132  1  0  0  0
 60133  1  0  0  0
 60134  1  0  0  0
 61135  1  0  0  0
 61136  1  0  0  0
 61137  1  0  0  0
 62138  1  0  0  0
 62139  1  0  0  0
 62140  1  0  0  0
 63 65  1  0  0  0
 63141  1  0  0  0
 63142  1  0  0  0
 63143  1  0  0  0
 64144  1  0  0  0
 65145  1  0  0  0
 68 82  1  0  0  0
 71 72  2  0  0  0
 71 85  1  0  0  0
 71146  1  0  0  0
 72 73  1  0  0  0
 72 79  1  0  0  0
 73 74  2  0  0  0
 73 83  1  0  0  0
 74 75  1  0  0  0
 74 85  1  0  0  0
 75147  1  0  0  0
 75148  1  0  0  0
 75149  1  0  0  0
 76150  1  0  0  0
 76151  1  0  0  0
 76152  1  0  0  0
 76 83  1  0  0  0
 77 83  1  0  0  0
 77153  1  0  0  0
 77154  1  0  0  0
 77155  1  0  0  0
 78156  1  0  0  0
 78157  1  0  0  0
 78158  1  0  0  0
 78 84  1  0  0  0
 79 86  1  0  0  0
 79159  1  0  0  0
 79160  1  0  0  0
 80 81  1  0  0  0
 80 84  1  0  0  0
 80161  1  0  0  0
 80162  1  0  0  0
 81 85  1  0  0  0
 81163  1  0  0  0
 81164  1  0  0  0
 82 84  1  0  0  0
 82165  1  0  0  0
 82166  1  0  0  0
 83167  1  0  0  0
 84168  1  0  0  0
 86169  1  0  0  0
M  ISO  4   1 100  68 101  82 101  86 100
M  END
> <chiral flag>
0

> <version>
0

> <s_m_source_file>
/data/baiqing/PycharmProjects/Reinvent-master-3.2/result/LINK_invent/BTK/process_docking_weight1_custom_sum_contain_oxygen_bond_distance_aromatic_linkinvent_7_9_3/rearranged_h_0097.sdf

> <i_m_source_file_index>
77

> <r_mmod_Potential_Energy-OPLS-2005>
-16.3735103607178

> <r_mmod_Stretch_Energy-OPLS-2005>
75.6251831054688

> <r_mmod_Bend_Energy-OPLS-2005>
164.776779174805

> <r_mmod_Torsional_Energy-OPLS-2005>
243.439102172852

> <r_mmod_Improper_Torsional_Energy-OPLS-2005>
3.90484857559204

> <r_mmod_Van_der_Waal_Energy-OPLS-2005>
113.338676452637

> <r_mmod_Electrostatic_Energy-OPLS-2005>
-449.804351806641

> <r_mmod_Solvation_Energy-OPLS-2005>
-203.13444519043

> <b_mmod_Minimization_Converged-OPLS-2005>
0

> <r_mmod_RMS_Derivative-OPLS-2005>
6.01940822601318

$$$$
78
                    3D
 Structure written by MMmdl.
162170  0  0  1  0            999 V2000
  -30.6096  -14.7727   20.5243 C   0  0  0  0  0  0
  -30.4372  -12.4841   19.4907 C   0  0  0  0  0  0
  -29.5200  -12.5329   18.2459 C   0  0  0  0  0  0
  -28.0459  -12.3365   18.6472 C   0  0  0  0  0  0
  -27.6428  -13.2293   19.8496 C   0  0  2  0  0  0
  -28.6757  -13.1527   20.9907 C   0  0  0  0  0  0
  -25.2515  -13.8182   20.5664 C   0  0  0  0  0  0
  -24.1787  -13.0430   20.9175 C   0  0  0  0  0  0
  -24.6373  -11.6911   20.8716 C   0  0  0  0  0  0
  -23.9050  -10.4293   21.0405 C   0  0  0  0  0  0
  -24.3605   -9.4216   21.9186 C   0  0  0  0  0  0
  -23.6279   -8.2247   22.0754 C   0  0  0  0  0  0
  -22.4264   -8.0283   21.3543 C   0  0  0  0  0  0
  -21.9897   -9.0252   20.4645 C   0  0  0  0  0  0
  -22.7224  -10.2132   20.3052 C   0  0  0  0  0  0
  -21.6861   -6.0738   22.5272 C   0  0  0  0  0  0
  -21.4026   -6.5640   23.8208 C   0  0  0  0  0  0
  -21.3658   -5.6790   24.9166 C   0  0  0  0  0  0
  -21.6036   -4.3051   24.7217 C   0  0  0  0  0  0
  -21.8820   -3.8145   23.4341 C   0  0  0  0  0  0
  -21.9189   -4.6964   22.3396 C   0  0  0  0  0  0
  -22.7818  -13.5225   21.1853 C   0  0  0  0  0  0
  -22.1663   -4.2145   21.0976 F   0  0  0  0  0  0
  -21.5618   -3.4531   25.7731 F   0  0  0  0  0  0
  -29.9869  -13.5362   20.4409 N   0  0  0  0  0  0
  -26.2929  -12.9368   20.3227 N   0  0  0  0  0  0
  -25.9298  -11.6522   20.5694 N   0  0  0  0  0  0
  -22.0451  -12.8224   22.0423 N   0  0  0  0  0  0
  -25.4218  -15.1909   20.4154 N   0  0  0  0  0  0
  -31.7260  -14.9159   20.0140 O   0  0  0  0  0  0
  -21.6637   -6.8875   21.4233 O   0  0  0  0  0  0
  -22.3505  -14.5521   20.6702 O   0  0  0  0  0  0
  -24.6306  -31.8506   23.1947 C   0  0  0  0  0  0
  -25.9132  -32.4727   23.8301 C   0  0  1  0  0  0
  -27.2354  -27.2576   20.1209 C   0  0  0  0  0  0
  -25.5917  -33.8533   24.2222 N   0  0  0  0  0  0
  -23.4272  -30.4719   21.5367 C   0  0  2  0  0  0
  -24.8777  -28.9137   20.1037 C   0  0  0  0  0  0
  -22.7501  -29.4569   22.4887 C   0  0  0  0  0  0
  -18.0299  -28.1386   22.8491 C   0  0  0  0  0  0
  -24.1487  -36.7289   23.2639 C   0  0  0  0  0  0
  -25.9708  -30.7625   21.3712 C   0  0  0  0  0  0
  -26.0450  -29.3824   20.7165 C   0  0  0  0  0  0
  -27.2198  -28.5640   20.7188 C   0  0  0  0  0  0
  -26.0396  -26.8501   19.4838 C   0  0  0  0  0  0
  -24.8811  -27.6564   19.4767 C   0  0  0  0  0  0
  -23.6463  -29.8000   20.1526 C   0  0  0  0  0  0
  -25.4112  -36.3053   24.0320 C   0  0  1  0  0  0
  -20.5896  -28.3691   23.1271 C   0  0  2  0  0  0
  -20.6789  -26.9409   22.5419 C   0  0  0  0  0  0
  -19.5760  -26.6383   21.5221 C   0  0  0  0  0  0
  -18.1937  -26.7929   22.1626 C   0  0  0  0  0  0
  -19.1554  -28.8860   23.2876 C   0  0  0  0  0  0
  -18.9473  -30.1456   23.8898 C   0  0  0  0  0  0
  -17.6470  -30.6588   24.0566 C   0  0  0  0  0  0
  -25.9051  -34.9425   23.5078 C   0  0  0  0  0  0
  -16.5363  -29.9090   23.6326 C   0  0  0  0  0  0
  -16.7286  -28.6505   23.0351 C   0  0  0  0  0  0
  -26.4517  -31.6543   25.0690 C   0  0  0  0  0  0
  -25.3767  -31.3669   26.1432 C   0  0  0  0  0  0
  -27.0352  -30.2959   24.6146 C   0  0  0  0  0  0
  -27.6051  -32.4298   25.7489 C   0  0  0  0  0  0
  -27.5571  -37.1804   24.8461 C   0  0  0  0  0  0
  -21.4203  -29.3028   22.3650 N   0  0  0  0  0  0
  -26.4285  -37.3754   23.9407 N   0  0  0  0  0  0
  -24.6955  -31.0477   22.0909 N   0  0  0  0  0  0
  -23.4206  -28.8122   23.2994 O   0  0  0  0  0  0
  -28.3548  -26.3941   20.2207 O   0  0  0  0  0  0
  -26.5631  -34.8915   22.4653 O   0  0  0  0  0  0
  -23.5465  -32.1312   23.7264 O   0  0  0  0  0  0
  -29.8533  -21.1353   19.6437 C   0  0  0  0  0  0
  -29.8891  -22.7295   19.8716 C   0  0  0  0  0  0
  -28.2482  -20.5477   21.5024 C   0  0  0  0  0  0
  -27.7439  -23.2548   21.2627 C   0  0  0  0  0  0
  -29.6392  -20.2012   20.8967 C   0  0  1  0  0  0
  -28.5401  -23.5681   19.9691 C   0  0  1  0  0  0
  -28.1004  -21.9901   22.1259 C   0  0  2  0  0  0
  -29.7386  -15.9057   22.4943 C   0  0  0  0  0  0
  -30.1896  -18.6476   21.0079 C   0  0  0  0  0  0
  -28.5252  -25.1231   19.4420 C   0  0  0  0  0  0
  -29.5946  -17.2566   20.3937 C   0  0  0  0  0  0
  -29.9135  -15.8781   21.0375 N   0  0  0  0  0  0
  -29.1586  -22.2692   22.8902 F   0  0  0  0  0  0
  -31.4795  -12.6164   19.1942 H   0  0  0  0  0  0
  -30.3897  -11.5032   19.9661 H   0  0  0  0  0  0
  -29.8193  -11.7722   17.5233 H   0  0  0  0  0  0
  -29.6351  -13.4956   17.7444 H   0  0  0  0  0  0
  -27.9118  -11.2863   18.9088 H   0  0  0  0  0  0
  -27.3890  -12.5218   17.7972 H   0  0  0  0  0  0
  -27.6418  -14.2541   19.4784 H   0  0  0  0  0  0
  -28.7154  -12.1471   21.4073 H   0  0  0  0  0  0
  -28.3526  -13.7951   21.8066 H   0  0  0  0  0  0
  -25.2747   -9.5697   22.4772 H   0  0  0  0  0  0
  -23.9990   -7.4637   22.7476 H   0  0  0  0  0  0
  -21.0825   -8.8763   19.8951 H   0  0  0  0  0  0
  -22.3670  -10.9671   19.6167 H   0  0  0  0  0  0
  -21.2039   -7.6148   23.9711 H   0  0  0  0  0  0
  -21.1478   -6.0520   25.9068 H   0  0  0  0  0  0
  -22.0599   -2.7606   23.2834 H   0  0  0  0  0  0
  -22.4044  -11.9893   22.4833 H   0  0  0  0  0  0
  -21.1073  -13.1265   22.2593 H   0  0  0  0  0  0
  -24.6565  -15.8470   20.5322 H   0  0  0  0  0  0
  -26.2854  -15.6361   20.1304 H   0  0  0  0  0  0
  -26.7193  -32.5373   23.1038 H   0  0  0  0  0  0
  -25.0083  -33.9658   25.0380 H   0  0  0  0  0  0
  -22.7235  -31.2935   21.3876 H   0  0  0  0  0  0
  -23.3729  -35.9636   23.3291 H   0  0  0  0  0  0
  -24.3568  -36.8934   22.2053 H   0  0  0  0  0  0
  -23.7280  -37.6504   23.6677 H   0  0  0  0  0  0
  -26.1025  -31.5180   20.5956 H   0  0  0  0  0  0
  -26.8501  -30.8143   22.0010 H   0  0  0  0  0  0
  -28.1127  -28.9203   21.2147 H   0  0  0  0  0  0
  -25.9604  -25.8804   19.0177 H   0  0  0  0  0  0
  -23.9834  -27.2924   18.9972 H   0  0  0  0  0  0
  -23.7731  -30.5727   19.3933 H   0  0  0  0  0  0
  -22.7637  -29.2344   19.8485 H   0  0  0  0  0  0
  -25.1299  -36.1876   25.0812 H   0  0  0  0  0  0
  -20.9998  -28.3288   24.1382 H   0  0  0  0  0  0
  -20.5678  -26.2311   23.3627 H   0  0  0  0  0  0
  -21.6661  -26.7433   22.1214 H   0  0  0  0  0  0
  -19.6922  -25.6291   21.1254 H   0  0  0  0  0  0
  -19.6703  -27.3193   20.6747 H   0  0  0  0  0  0
  -17.4214  -26.6688   21.4020 H   0  0  0  0  0  0
  -18.0331  -26.0068   22.9017 H   0  0  0  0  0  0
  -19.7949  -30.7276   24.2269 H   0  0  0  0  0  0
  -17.5026  -31.6263   24.5170 H   0  0  0  0  0  0
  -15.5362  -30.2994   23.7640 H   0  0  0  0  0  0
  -15.8686  -28.0824   22.7060 H   0  0  0  0  0  0
  -24.5957  -30.6986   25.7789 H   0  0  0  0  0  0
  -24.8954  -32.2831   26.4861 H   0  0  0  0  0  0
  -25.8141  -30.8881   27.0202 H   0  0  0  0  0  0
  -26.2908  -29.6722   24.1185 H   0  0  0  0  0  0
  -27.4049  -29.7210   25.4644 H   0  0  0  0  0  0
  -27.8784  -30.4230   23.9354 H   0  0  0  0  0  0
  -27.2614  -33.3584   26.2061 H   0  0  0  0  0  0
  -28.3885  -32.6882   25.0349 H   0  0  0  0  0  0
  -28.0684  -31.8429   26.5433 H   0  0  0  0  0  0
  -28.2585  -38.0100   24.7482 H   0  0  0  0  0  0
  -28.1074  -36.2632   24.6306 H   0  0  0  0  0  0
  -27.2293  -37.1479   25.8867 H   0  0  0  0  0  0
  -20.9386  -29.8750   21.6852 H   0  0  0  0  0  0
  -26.0147  -38.2819   24.1413 H   0  0  0  0  0  0
  -30.8125  -20.8568   19.2059 H   0  0  0  0  0  0
  -29.1187  -20.8886   18.8760 H   0  0  0  0  0  0
  -30.5192  -22.9642   20.7305 H   0  0  0  0  0  0
  -30.4364  -23.1378   19.0208 H   0  0  0  0  0  0
  -28.0545  -19.8306   22.3010 H   0  0  0  0  0  0
  -27.4644  -20.3798   20.7632 H   0  0  0  0  0  0
  -26.6857  -23.2058   21.0052 H   0  0  0  0  0  0
  -27.8255  -24.1254   21.9156 H   0  0  0  0  0  0
  -30.3424  -20.6522   21.5972 H   0  0  0  0  0  0
  -27.9542  -23.0733   19.1931 H   0  0  0  0  0  0
  -27.2880  -21.9218   22.8516 H   0  0  0  0  0  0
  -30.4841  -16.5487   22.9612 H   0  0  0  0  0  0
  -29.8745  -14.9302   22.9639 H   0  0  0  0  0  0
  -28.7441  -16.2657   22.7616 H   0  0  0  0  0  0
  -31.2384  -18.6741   20.7085 H   0  0  0  0  0  0
  -30.2387  -18.4999   22.0847 H   0  0  0  0  0  0
  -27.8856  -25.1600   18.5626 H   0  0  0  0  0  0
  -29.5068  -25.2709   18.9925 H   0  0  0  0  0  0
  -29.8571  -17.2026   19.3356 H   0  0  0  0  0  0
  -28.5068  -17.3401   20.4022 H   0  0  0  0  0  0
  1 25  1  0  0  0
  1 30  2  0  0  0
  1 82  1  0  0  0
  2  3  1  0  0  0
  2 25  1  0  0  0
  2 84  1  0  0  0
  2 85  1  0  0  0
  3  4  1  0  0  0
  3 86  1  0  0  0
  3 87  1  0  0  0
  4  5  1  0  0  0
  4 88  1  0  0  0
  4 89  1  0  0  0
  5  6  1  0  0  0
  5 26  1  0  0  0
  5 90  1  0  0  0
  6 25  1  0  0  0
  6 91  1  0  0  0
  6 92  1  0  0  0
  7  8  2  0  0  0
  7 26  1  0  0  0
  7 29  1  0  0  0
  8  9  1  0  0  0
  8 22  1  0  0  0
  9 10  1  0  0  0
  9 27  2  0  0  0
 10 11  2  0  0  0
 10 15  1  0  0  0
 11 12  1  0  0  0
 11 93  1  0  0  0
 12 13  2  0  0  0
 12 94  1  0  0  0
 13 14  1  0  0  0
 13 31  1  0  0  0
 14 15  2  0  0  0
 14 95  1  0  0  0
 15 96  1  0  0  0
 16 17  2  0  0  0
 16 21  1  0  0  0
 16 31  1  0  0  0
 17 18  1  0  0  0
 17 97  1  0  0  0
 18 19  2  0  0  0
 18 98  1  0  0  0
 19 20  1  0  0  0
 19 24  1  0  0  0
 20 21  2  0  0  0
 20 99  1  0  0  0
 21 23  1  0  0  0
 22 28  1  0  0  0
 22 32  2  0  0  0
 26 27  1  0  0  0
 28100  1  0  0  0
 28101  1  0  0  0
 29102  1  0  0  0
 29103  1  0  0  0
 33 34  1  0  0  0
 33 66  1  0  0  0
 33 70  2  0  0  0
 34 36  1  0  0  0
 34 59  1  0  0  0
 34104  1  0  0  0
 35 44  2  0  0  0
 35 45  1  0  0  0
 35 68  1  0  0  0
 36 56  1  0  0  0
 36105  1  0  0  0
 37 39  1  0  0  0
 37 47  1  0  0  0
 37 66  1  0  0  0
 37106  1  0  0  0
 38 43  2  0  0  0
 38 46  1  0  0  0
 38 47  1  0  0  0
 39 64  1  0  0  0
 39 67  2  0  0  0
 40 52  1  0  0  0
 40 53  2  0  0  0
 40 58  1  0  0  0
 41107  1  0  0  0
 41108  1  0  0  0
 41109  1  0  0  0
 41 48  1  0  0  0
 42 43  1  0  0  0
 42 66  1  0  0  0
 42110  1  0  0  0
 42111  1  0  0  0
 43 44  1  0  0  0
 44112  1  0  0  0
 45 46  2  0  0  0
 45113  1  0  0  0
 46114  1  0  0  0
 47115  1  0  0  0
 47116  1  0  0  0
 48 56  1  0  0  0
 48 65  1  0  0  0
 48117  1  0  0  0
 49 50  1  0  0  0
 49 53  1  0  0  0
 49 64  1  0  0  0
 49118  1  0  0  0
 50 51  1  0  0  0
 50119  1  0  0  0
 50120  1  0  0  0
 51 52  1  0  0  0
 51121  1  0  0  0
 51122  1  0  0  0
 52123  1  0  0  0
 52124  1  0  0  0
 53 54  1  0  0  0
 54 55  2  0  0  0
 54125  1  0  0  0
 55 57  1  0  0  0
 55126  1  0  0  0
 56 69  2  0  0  0
 57 58  2  0  0  0
 57127  1  0  0  0
 58128  1  0  0  0
 59 60  1  0  0  0
 59 61  1  0  0  0
 59 62  1  0  0  0
 60129  1  0  0  0
 60130  1  0  0  0
 60131  1  0  0  0
 61132  1  0  0  0
 61133  1  0  0  0
 61134  1  0  0  0
 62135  1  0  0  0
 62136  1  0  0  0
 62137  1  0  0  0
 63 65  1  0  0  0
 63138  1  0  0  0
 63139  1  0  0  0
 63140  1  0  0  0
 64141  1  0  0  0
 65142  1  0  0  0
 68 80  1  0  0  0
 71 72  1  0  0  0
 71 75  1  0  0  0
 71143  1  0  0  0
 71144  1  0  0  0
 72 76  1  0  0  0
 72145  1  0  0  0
 72146  1  0  0  0
 73 75  1  0  0  0
 73 77  1  0  0  0
 73147  1  0  0  0
 73148  1  0  0  0
 74 76  1  0  0  0
 74 77  1  0  0  0
 74149  1  0  0  0
 74150  1  0  0  0
 75 79  1  0  0  0
 75151  1  0  0  0
 76 80  1  0  0  0
 76152  1  0  0  0
 77 83  1  0  0  0
 77153  1  0  0  0
 78 82  1  0  0  0
 78154  1  0  0  0
 78155  1  0  0  0
 78156  1  0  0  0
 79 81  1  0  0  0
 79157  1  0  0  0
 79158  1  0  0  0
 80159  1  0  0  0
 80160  1  0  0  0
 81 82  1  0  0  0
 81161  1  0  0  0
 81162  1  0  0  0
M  ISO  4   1 100  68 101  80 101  82 100
M  END
> <chiral flag>
0

> <version>
0

> <s_m_source_file>
/data/baiqing/PycharmProjects/Reinvent-master-3.2/result/LINK_invent/BTK/process_docking_weight1_custom_sum_contain_oxygen_bond_distance_aromatic_linkinvent_7_9_3/rearranged_h_0097.sdf

> <i_m_source_file_index>
78

> <r_mmod_Potential_Energy-OPLS-2005>
526.746276855469

> <r_mmod_Stretch_Energy-OPLS-2005>
147.440856933594

> <r_mmod_Bend_Energy-OPLS-2005>
278.241394042969

> <r_mmod_Torsional_Energy-OPLS-2005>
349.497619628906

> <r_mmod_Improper_Torsional_Energy-OPLS-2005>
4.07401084899902

> <r_mmod_Van_der_Waal_Energy-OPLS-2005>
122.850929260254

> <r_mmod_Electrostatic_Energy-OPLS-2005>
-279.456634521484

> <r_mmod_Solvation_Energy-OPLS-2005>
-186.372756958008

> <b_mmod_Minimization_Converged-OPLS-2005>
0

> <r_mmod_RMS_Derivative-OPLS-2005>
2.6365487575531

$$$$
79
                    3D
 Structure written by MMmdl.
167175  0  0  1  0            999 V2000
  -30.6157  -14.7565   20.5349 C   0  0  0  0  0  0
  -30.4446  -12.4942   19.4753 C   0  0  0  0  0  0
  -29.5183  -12.5310   18.2412 C   0  0  0  0  0  0
  -28.0470  -12.3372   18.6506 C   0  0  0  0  0  0
  -27.6430  -13.2393   19.8488 C   0  0  2  0  0  0
  -28.6805  -13.1748   20.9901 C   0  0  0  0  0  0
  -25.2507  -13.8229   20.5667 C   0  0  0  0  0  0
  -24.1799  -13.0442   20.9163 C   0  0  0  0  0  0
  -24.6417  -11.6938   20.8737 C   0  0  0  0  0  0
  -23.9106  -10.4305   21.0402 C   0  0  0  0  0  0
  -24.3650   -9.4225   21.9163 C   0  0  0  0  0  0
  -23.6317   -8.2278   22.0751 C   0  0  0  0  0  0
  -22.4289   -8.0316   21.3556 C   0  0  0  0  0  0
  -21.9925   -9.0287   20.4643 C   0  0  0  0  0  0
  -22.7283  -10.2152   20.3048 C   0  0  0  0  0  0
  -21.6865   -6.0767   22.5286 C   0  0  0  0  0  0
  -21.4020   -6.5660   23.8224 C   0  0  0  0  0  0
  -21.3645   -5.6798   24.9183 C   0  0  0  0  0  0
  -21.6057   -4.3067   24.7222 C   0  0  0  0  0  0
  -21.8819   -3.8168   23.4340 C   0  0  0  0  0  0
  -21.9201   -4.6992   22.3402 C   0  0  0  0  0  0
  -22.7833  -13.5244   21.1863 C   0  0  0  0  0  0
  -22.1657   -4.2183   21.0973 F   0  0  0  0  0  0
  -21.5618   -3.4533   25.7727 F   0  0  0  0  0  0
  -29.9842  -13.5398   20.4201 N   0  0  0  0  0  0
  -26.2941  -12.9455   20.3242 N   0  0  0  0  0  0
  -25.9351  -11.6579   20.5712 N   0  0  0  0  0  0
  -22.0469  -12.8218   22.0411 N   0  0  0  0  0  0
  -25.4136  -15.1963   20.4132 N   0  0  0  0  0  0
  -31.7909  -14.8731   20.1705 O   0  0  0  0  0  0
  -21.6659   -6.8906   21.4251 O   0  0  0  0  0  0
  -22.3499  -14.5542   20.6735 O   0  0  0  0  0  0
  -24.6284  -31.8553   23.1927 C   0  0  0  0  0  0
  -25.9116  -32.4739   23.8322 C   0  0  1  0  0  0
  -27.2230  -27.2987   20.1579 C   0  0  0  0  0  0
  -25.5913  -33.8542   24.2234 N   0  0  0  0  0  0
  -23.4217  -30.4774   21.5349 C   0  0  2  0  0  0
  -24.8674  -28.9222   20.1130 C   0  0  0  0  0  0
  -22.7482  -29.4614   22.4894 C   0  0  0  0  0  0
  -18.0296  -28.1380   22.8465 C   0  0  0  0  0  0
  -24.1463  -36.7325   23.2641 C   0  0  0  0  0  0
  -25.9622  -30.7865   21.3607 C   0  0  0  0  0  0
  -26.0353  -29.4083   20.7151 C   0  0  0  0  0  0
  -27.2162  -28.6085   20.7250 C   0  0  0  0  0  0
  -26.0370  -26.8633   19.5228 C   0  0  0  0  0  0
  -24.8710  -27.6553   19.5064 C   0  0  0  0  0  0
  -23.6341  -29.8004   20.1552 C   0  0  0  0  0  0
  -25.4085  -36.3060   24.0323 C   0  0  1  0  0  0
  -20.5904  -28.3699   23.1248 C   0  0  2  0  0  0
  -20.6783  -26.9412   22.5399 C   0  0  0  0  0  0
  -19.5754  -26.6373   21.5206 C   0  0  0  0  0  0
  -18.1930  -26.7919   22.1608 C   0  0  0  0  0  0
  -19.1553  -28.8862   23.2847 C   0  0  0  0  0  0
  -18.9462  -30.1459   23.8878 C   0  0  0  0  0  0
  -17.6466  -30.6582   24.0568 C   0  0  0  0  0  0
  -25.9038  -34.9434   23.5081 C   0  0  0  0  0  0
  -16.5362  -29.9078   23.6340 C   0  0  0  0  0  0
  -16.7284  -28.6493   23.0359 C   0  0  0  0  0  0
  -26.4473  -31.6576   25.0718 C   0  0  0  0  0  0
  -25.3685  -31.3770   26.1436 C   0  0  0  0  0  0
  -27.0289  -30.2980   24.6192 C   0  0  0  0  0  0
  -27.6014  -32.4337   25.7502 C   0  0  0  0  0  0
  -27.5551  -37.1798   24.8457 C   0  0  0  0  0  0
  -21.4186  -29.3043   22.3625 N   0  0  0  0  0  0
  -26.4268  -37.3768   23.9404 N   0  0  0  0  0  0
  -24.6902  -31.0580   22.0865 N   0  0  0  0  0  0
  -23.4209  -28.8170   23.2981 O   0  0  0  0  0  0
  -28.3314  -26.4392   20.1974 O   0  0  0  0  0  0
  -26.5616  -34.8908   22.4646 O   0  0  0  0  0  0
  -23.5445  -32.1379   23.7230 O   0  0  0  0  0  0
  -29.5548  -19.9108   21.1039 C   0  0  0  0  0  0
  -28.6604  -20.9716   20.6927 C   0  0  0  0  0  0
  -27.5467  -20.5676   19.8893 C   0  0  0  0  0  0
  -29.3400  -18.5307   20.7503 C   0  0  0  0  0  0
  -27.4253  -19.1731   19.5373 C   0  0  0  0  0  0
  -25.3726  -21.7940   20.5400 C   0  0  0  0  0  0
  -27.0254  -17.5352   17.6270 C   0  0  0  0  0  0
  -25.3127  -19.3166   17.8867 C   0  0  0  0  0  0
  -28.7832  -22.4626   21.2600 C   0  0  0  0  0  0
  -26.5000  -21.6342   19.5110 C   0  0  0  0  0  0
  -30.3139  -17.3163   21.0817 C   0  0  0  0  0  0
  -28.9236  -23.8110   20.3731 C   0  0  0  0  0  0
  -28.1595  -25.1290   20.8814 C   0  0  0  0  0  0
  -26.3531  -18.4860   18.6491 C   0  0  0  0  0  0
  -28.2694  -18.2195   20.0117 N   0  0  0  0  0  0
  -29.8746  -15.8643   20.9073 N   0  0  0  0  0  0
  -31.4779  -12.6534   19.1605 H   0  0  0  0  0  0
  -30.4274  -11.5190   19.9631 H   0  0  0  0  0  0
  -29.8205  -11.7666   17.5254 H   0  0  0  0  0  0
  -29.6306  -13.4888   17.7305 H   0  0  0  0  0  0
  -27.9105  -11.2877   18.9100 H   0  0  0  0  0  0
  -27.3963  -12.5271   17.7970 H   0  0  0  0  0  0
  -27.6350  -14.2615   19.4659 H   0  0  0  0  0  0
  -28.7232  -12.1820   21.4397 H   0  0  0  0  0  0
  -28.3981  -13.8601   21.7917 H   0  0  0  0  0  0
  -25.2814   -9.5728   22.4702 H   0  0  0  0  0  0
  -24.0044   -7.4691   22.7467 H   0  0  0  0  0  0
  -21.0868   -8.8838   19.8941 H   0  0  0  0  0  0
  -22.3773  -10.9694   19.6137 H   0  0  0  0  0  0
  -21.2003   -7.6160   23.9750 H   0  0  0  0  0  0
  -21.1452   -6.0507   25.9085 H   0  0  0  0  0  0
  -22.0599   -2.7631   23.2835 H   0  0  0  0  0  0
  -22.4081  -11.9890   22.4833 H   0  0  0  0  0  0
  -21.1084  -13.1251   22.2572 H   0  0  0  0  0  0
  -24.6387  -15.8383   20.5383 H   0  0  0  0  0  0
  -26.2713  -15.6612   20.1423 H   0  0  0  0  0  0
  -26.7181  -32.5380   23.1076 H   0  0  0  0  0  0
  -25.0050  -33.9720   25.0366 H   0  0  0  0  0  0
  -22.7181  -31.2976   21.3814 H   0  0  0  0  0  0
  -23.3696  -35.9683   23.3293 H   0  0  0  0  0  0
  -24.3573  -36.8967   22.2062 H   0  0  0  0  0  0
  -23.7235  -37.6530   23.6688 H   0  0  0  0  0  0
  -26.0940  -31.5404   20.5833 H   0  0  0  0  0  0
  -26.8452  -30.8419   21.9850 H   0  0  0  0  0  0
  -28.1102  -28.9745   21.2111 H   0  0  0  0  0  0
  -25.9986  -25.8874   19.0586 H   0  0  0  0  0  0
  -23.9728  -27.2776   19.0397 H   0  0  0  0  0  0
  -23.7373  -30.5647   19.3835 H   0  0  0  0  0  0
  -22.7560  -29.2189   19.8718 H   0  0  0  0  0  0
  -25.1235  -36.1928   25.0820 H   0  0  0  0  0  0
  -21.0005  -28.3293   24.1368 H   0  0  0  0  0  0
  -20.5664  -26.2315   23.3611 H   0  0  0  0  0  0
  -21.6648  -26.7414   22.1199 H   0  0  0  0  0  0
  -19.6933  -25.6279   21.1247 H   0  0  0  0  0  0
  -19.6702  -27.3178   20.6736 H   0  0  0  0  0  0
  -17.4200  -26.6660   21.4014 H   0  0  0  0  0  0
  -18.0322  -26.0068   22.9008 H   0  0  0  0  0  0
  -19.7959  -30.7262   24.2221 H   0  0  0  0  0  0
  -17.5044  -31.6262   24.5156 H   0  0  0  0  0  0
  -15.5366  -30.2983   23.7678 H   0  0  0  0  0  0
  -15.8671  -28.0816   22.7094 H   0  0  0  0  0  0
  -24.5845  -30.7119   25.7800 H   0  0  0  0  0  0
  -24.8877  -32.2947   26.4848 H   0  0  0  0  0  0
  -25.7987  -30.8978   27.0232 H   0  0  0  0  0  0
  -26.2848  -29.6751   24.1205 H   0  0  0  0  0  0
  -27.3921  -29.7242   25.4729 H   0  0  0  0  0  0
  -27.8746  -30.4229   23.9424 H   0  0  0  0  0  0
  -27.2617  -33.3674   26.2013 H   0  0  0  0  0  0
  -28.3865  -32.6855   25.0360 H   0  0  0  0  0  0
  -28.0602  -31.8489   26.5487 H   0  0  0  0  0  0
  -28.2551  -38.0105   24.7483 H   0  0  0  0  0  0
  -28.1035  -36.2629   24.6257 H   0  0  0  0  0  0
  -27.2289  -37.1438   25.8868 H   0  0  0  0  0  0
  -20.9361  -29.8779   21.6843 H   0  0  0  0  0  0
  -26.0132  -38.2832   24.1413 H   0  0  0  0  0  0
  -30.4024  -20.1500   21.7320 H   0  0  0  0  0  0
  -25.7712  -22.0303   21.5248 H   0  0  0  0  0  0
  -24.7536  -20.9015   20.6278 H   0  0  0  0  0  0
  -24.7200  -22.6211   20.2565 H   0  0  0  0  0  0
  -27.4473  -16.6588   18.1230 H   0  0  0  0  0  0
  -27.8382  -18.0336   17.0962 H   0  0  0  0  0  0
  -26.3209  -17.1685   16.8804 H   0  0  0  0  0  0
  -24.6872  -19.9123   18.5480 H   0  0  0  0  0  0
  -24.6225  -18.6527   17.3674 H   0  0  0  0  0  0
  -25.7732  -19.9424   17.1213 H   0  0  0  0  0  0
  -29.6168  -22.4710   21.9614 H   0  0  0  0  0  0
  -27.9226  -22.6028   21.9115 H   0  0  0  0  0  0
  -26.1068  -21.5170   18.5151 H   0  0  0  0  0  0
  -26.9406  -22.6094   19.3957 H   0  0  0  0  0  0
  -30.6529  -17.4328   22.1129 H   0  0  0  0  0  0
  -31.2006  -17.4710   20.4651 H   0  0  0  0  0  0
  -28.6646  -23.6448   19.3317 H   0  0  0  0  0  0
  -29.9857  -24.0459   20.3351 H   0  0  0  0  0  0
  -27.0994  -24.8909   20.9727 H   0  0  0  0  0  0
  -28.4937  -25.3048   21.9056 H   0  0  0  0  0  0
  -25.7675  -17.8782   19.3396 H   0  0  0  0  0  0
  -28.9019  -15.7047   21.1127 H   0  0  0  0  0  0
  1 25  1  0  0  0
  1 30  2  0  0  0
  1 86  1  0  0  0
  2  3  1  0  0  0
  2 25  1  0  0  0
  2 87  1  0  0  0
  2 88  1  0  0  0
  3  4  1  0  0  0
  3 89  1  0  0  0
  3 90  1  0  0  0
  4  5  1  0  0  0
  4 91  1  0  0  0
  4 92  1  0  0  0
  5  6  1  0  0  0
  5 26  1  0  0  0
  5 93  1  0  0  0
  6 25  1  0  0  0
  6 94  1  0  0  0
  6 95  1  0  0  0
  7  8  2  0  0  0
  7 26  1  0  0  0
  7 29  1  0  0  0
  8  9  1  0  0  0
  8 22  1  0  0  0
  9 10  1  0  0  0
  9 27  2  0  0  0
 10 11  2  0  0  0
 10 15  1  0  0  0
 11 12  1  0  0  0
 11 96  1  0  0  0
 12 13  2  0  0  0
 12 97  1  0  0  0
 13 14  1  0  0  0
 13 31  1  0  0  0
 14 15  2  0  0  0
 14 98  1  0  0  0
 15 99  1  0  0  0
 16 17  2  0  0  0
 16 21  1  0  0  0
 16 31  1  0  0  0
 17 18  1  0  0  0
 17100  1  0  0  0
 18 19  2  0  0  0
 18101  1  0  0  0
 19 20  1  0  0  0
 19 24  1  0  0  0
 20 21  2  0  0  0
 20102  1  0  0  0
 21 23  1  0  0  0
 22 28  1  0  0  0
 22 32  2  0  0  0
 26 27  1  0  0  0
 28103  1  0  0  0
 28104  1  0  0  0
 29105  1  0  0  0
 29106  1  0  0  0
 33 34  1  0  0  0
 33 66  1  0  0  0
 33 70  2  0  0  0
 34 36  1  0  0  0
 34 59  1  0  0  0
 34107  1  0  0  0
 35 44  2  0  0  0
 35 45  1  0  0  0
 35 68  1  0  0  0
 36 56  1  0  0  0
 36108  1  0  0  0
 37 39  1  0  0  0
 37 47  1  0  0  0
 37 66  1  0  0  0
 37109  1  0  0  0
 38 43  2  0  0  0
 38 46  1  0  0  0
 38 47  1  0  0  0
 39 64  1  0  0  0
 39 67  2  0  0  0
 40 52  1  0  0  0
 40 53  2  0  0  0
 40 58  1  0  0  0
 41110  1  0  0  0
 41111  1  0  0  0
 41112  1  0  0  0
 41 48  1  0  0  0
 42 43  1  0  0  0
 42 66  1  0  0  0
 42113  1  0  0  0
 42114  1  0  0  0
 43 44  1  0  0  0
 44115  1  0  0  0
 45 46  2  0  0  0
 45116  1  0  0  0
 46117  1  0  0  0
 47118  1  0  0  0
 47119  1  0  0  0
 48 56  1  0  0  0
 48 65  1  0  0  0
 48120  1  0  0  0
 49 50  1  0  0  0
 49 53  1  0  0  0
 49 64  1  0  0  0
 49121  1  0  0  0
 50 51  1  0  0  0
 50122  1  0  0  0
 50123  1  0  0  0
 51 52  1  0  0  0
 51124  1  0  0  0
 51125  1  0  0  0
 52126  1  0  0  0
 52127  1  0  0  0
 53 54  1  0  0  0
 54 55  2  0  0  0
 54128  1  0  0  0
 55 57  1  0  0  0
 55129  1  0  0  0
 56 69  2  0  0  0
 57 58  2  0  0  0
 57130  1  0  0  0
 58131  1  0  0  0
 59 60  1  0  0  0
 59 61  1  0  0  0
 59 62  1  0  0  0
 60132  1  0  0  0
 60133  1  0  0  0
 60134  1  0  0  0
 61135  1  0  0  0
 61136  1  0  0  0
 61137  1  0  0  0
 62138  1  0  0  0
 62139  1  0  0  0
 62140  1  0  0  0
 63 65  1  0  0  0
 63141  1  0  0  0
 63142  1  0  0  0
 63143  1  0  0  0
 64144  1  0  0  0
 65145  1  0  0  0
 68 83  1  0  0  0
 71 72  2  0  0  0
 71 74  1  0  0  0
 71146  1  0  0  0
 72 73  1  0  0  0
 72 79  1  0  0  0
 73 75  2  0  0  0
 73 80  1  0  0  0
 74 81  1  0  0  0
 74 85  2  0  0  0
 75 84  1  0  0  0
 75 85  1  0  0  0
 76 80  1  0  0  0
 76147  1  0  0  0
 76148  1  0  0  0
 76149  1  0  0  0
 77150  1  0  0  0
 77151  1  0  0  0
 77152  1  0  0  0
 77 84  1  0  0  0
 78 84  1  0  0  0
 78153  1  0  0  0
 78154  1  0  0  0
 78155  1  0  0  0
 79 82  1  0  0  0
 79156  1  0  0  0
 79157  1  0  0  0
 80158  1  0  0  0
 80159  1  0  0  0
 81 86  1  0  0  0
 81160  1  0  0  0
 81161  1  0  0  0
 82 83  1  0  0  0
 82162  1  0  0  0
 82163  1  0  0  0
 83164  1  0  0  0
 83165  1  0  0  0
 84166  1  0  0  0
 86167  1  0  0  0
M  ISO  4   1 100  68 101  83 101  86 100
M  END
> <chiral flag>
0

> <version>
0

> <s_m_source_file>
/data/baiqing/PycharmProjects/Reinvent-master-3.2/result/LINK_invent/BTK/process_docking_weight1_custom_sum_contain_oxygen_bond_distance_aromatic_linkinvent_7_9_3/rearranged_h_0097.sdf

> <i_m_source_file_index>
79

> <r_mmod_Potential_Energy-OPLS-2005>
-121.150283813477

> <r_mmod_Stretch_Energy-OPLS-2005>
114.783142089844

> <r_mmod_Bend_Energy-OPLS-2005>
186.248916625977

> <r_mmod_Torsional_Energy-OPLS-2005>
228.965209960938

> <r_mmod_Improper_Torsional_Energy-OPLS-2005>
4.10169744491577

> <r_mmod_Van_der_Waal_Energy-OPLS-2005>
151.845718383789

> <r_mmod_Electrostatic_Energy-OPLS-2005>
-681.706481933594

> <r_mmod_Solvation_Energy-OPLS-2005>
-205.461212158203

> <b_mmod_Minimization_Converged-OPLS-2005>
0

> <r_mmod_RMS_Derivative-OPLS-2005>
4.92496204376221

$$$$
80
                    3D
 Structure written by MMmdl.
208216  0  0  1  0            999 V2000
  -30.7828  -14.3579   20.6986 C   0  0  0  0  0  0
  -30.4134  -12.3001   19.3883 C   0  0  0  0  0  0
  -29.4789  -12.5369   18.1891 C   0  0  0  0  0  0
  -28.0057  -12.3861   18.6096 C   0  0  0  0  0  0
  -27.6639  -13.2067   19.8808 C   0  0  2  0  0  0
  -28.7043  -12.9547   20.9940 C   0  0  0  0  0  0
  -25.2601  -13.8168   20.5692 C   0  0  0  0  0  0
  -24.1842  -13.0444   20.9156 C   0  0  0  0  0  0
  -24.6391  -11.6908   20.8719 C   0  0  0  0  0  0
  -23.9051  -10.4298   21.0399 C   0  0  0  0  0  0
  -24.3613   -9.4211   21.9180 C   0  0  0  0  0  0
  -23.6293   -8.2249   22.0751 C   0  0  0  0  0  0
  -22.4271   -8.0284   21.3546 C   0  0  0  0  0  0
  -21.9900   -9.0251   20.4647 C   0  0  0  0  0  0
  -22.7233  -10.2134   20.3053 C   0  0  0  0  0  0
  -21.6858   -6.0735   22.5274 C   0  0  0  0  0  0
  -21.4013   -6.5638   23.8211 C   0  0  0  0  0  0
  -21.3657   -5.6790   24.9171 C   0  0  0  0  0  0
  -21.6048   -4.3055   24.7222 C   0  0  0  0  0  0
  -21.8818   -3.8141   23.4345 C   0  0  0  0  0  0
  -21.9194   -4.6960   22.3401 C   0  0  0  0  0  0
  -22.7869  -13.5254   21.1838 C   0  0  0  0  0  0
  -22.1660   -4.2145   21.0979 F   0  0  0  0  0  0
  -21.5633   -3.4532   25.7737 F   0  0  0  0  0  0
  -30.0477  -13.2430   20.4552 N   0  0  0  0  0  0
  -26.3042  -12.9332   20.3403 N   0  0  0  0  0  0
  -25.9315  -11.6488   20.5770 N   0  0  0  0  0  0
  -22.0519  -12.8237   22.0398 N   0  0  0  0  0  0
  -25.4343  -15.1877   20.4153 N   0  0  0  0  0  0
  -31.7952  -14.6587   20.0587 O   0  0  0  0  0  0
  -21.6640   -6.8876   21.4239 O   0  0  0  0  0  0
  -22.3533  -14.5560   20.6706 O   0  0  0  0  0  0
  -24.6146  -31.8716   23.2114 C   0  0  0  0  0  0
  -25.9054  -32.4847   23.8391 C   0  0  1  0  0  0
  -27.2254  -27.4426   20.0762 C   0  0  0  0  0  0
  -25.5958  -33.8647   24.2309 N   0  0  0  0  0  0
  -23.4002  -30.4996   21.5523 C   0  0  2  0  0  0
  -24.8387  -28.9673   20.1165 C   0  0  0  0  0  0
  -22.7400  -29.4698   22.4969 C   0  0  0  0  0  0
  -18.0281  -28.1381   22.8508 C   0  0  0  0  0  0
  -24.1496  -36.7290   23.2630 C   0  0  0  0  0  0
  -25.9290  -30.8343   21.3674 C   0  0  0  0  0  0
  -26.0010  -29.4711   20.7129 C   0  0  0  0  0  0
  -27.1932  -28.7107   20.6996 C   0  0  0  0  0  0
  -26.0327  -26.9497   19.4928 C   0  0  0  0  0  0
  -24.8477  -27.7011   19.5151 C   0  0  0  0  0  0
  -23.6065  -29.8404   20.1651 C   0  0  0  0  0  0
  -25.4129  -36.3119   24.0335 C   0  0  1  0  0  0
  -20.5871  -28.3684   23.1315 C   0  0  2  0  0  0
  -20.6788  -26.9426   22.5423 C   0  0  0  0  0  0
  -19.5769  -26.6393   21.5229 C   0  0  0  0  0  0
  -18.1937  -26.7934   22.1632 C   0  0  0  0  0  0
  -19.1533  -28.8849   23.2911 C   0  0  0  0  0  0
  -18.9472  -30.1447   23.8923 C   0  0  0  0  0  0
  -17.6483  -30.6585   24.0579 C   0  0  0  0  0  0
  -25.9070  -34.9502   23.5101 C   0  0  0  0  0  0
  -16.5364  -29.9106   23.6330 C   0  0  0  0  0  0
  -16.7286  -28.6503   23.0362 C   0  0  0  0  0  0
  -26.4474  -31.6623   25.0718 C   0  0  0  0  0  0
  -25.3742  -31.3759   26.1456 C   0  0  0  0  0  0
  -27.0277  -30.3065   24.6074 C   0  0  0  0  0  0
  -27.6043  -32.4340   25.7478 C   0  0  0  0  0  0
  -27.5580  -37.1801   24.8465 C   0  0  0  0  0  0
  -21.4120  -29.3058   22.3693 N   0  0  0  0  0  0
  -26.4297  -37.3814   23.9426 N   0  0  0  0  0  0
  -24.6657  -31.0826   22.1017 N   0  0  0  0  0  0
  -23.4173  -28.8221   23.2990 O   0  0  0  0  0  0
  -28.4112  -26.7332   20.0653 O   0  0  0  0  0  0
  -26.5597  -34.8960   22.4636 O   0  0  0  0  0  0
  -23.5341  -32.1439   23.7538 O   0  0  0  0  0  0
  -27.3572  -18.1516   20.7359 C   0  0  0  0  0  0
  -27.4558  -18.7499   22.0168 C   0  0  0  0  0  0
  -28.6007  -17.7660   20.3255 C   0  0  0  0  0  0
  -28.7619  -18.6215   22.4124 C   0  0  0  0  0  0
  -25.3050  -17.2305   23.5981 C   0  0  0  0  0  0
  -26.0025  -20.7767   22.0566 C   0  0  0  0  0  0
  -31.4600  -23.1777   21.2847 C   0  0  0  0  0  0
  -31.4443  -23.2513   23.8008 C   0  0  0  0  0  0
  -26.7506  -19.4851   15.8110 C   0  0  0  0  0  0
  -29.0810  -23.2163   17.0945 C   0  0  0  0  0  0
  -29.0220  -17.2560   18.9726 C   0  0  0  0  0  0
  -29.4161  -19.1320   23.6699 C   0  0  0  0  0  0
  -25.0656  -18.5583   22.8645 C   0  0  0  0  0  0
  -28.3457  -17.9673   17.7799 C   0  0  0  0  0  0
  -29.6337  -20.6585   23.6834 C   0  0  0  0  0  0
  -28.1741  -19.4996   17.9367 C   0  0  0  0  0  0
  -30.5633  -21.1807   22.5693 C   0  0  0  0  0  0
  -27.9671  -24.2900   19.7640 C   0  0  0  0  0  0
  -30.8710  -17.5454   21.4771 C   0  0  0  0  0  0
  -31.0764  -16.2514   22.2951 C   0  0  0  0  0  0
  -27.2171  -23.3831   18.7505 C   0  0  0  0  0  0
  -27.1770  -21.6587   17.0033 C   0  0  0  0  0  0
  -28.5337  -25.6102   19.1824 C   0  0  0  0  0  0
  -26.3238  -19.4424   22.7474 C   0  0  1  0  0  0
  -30.7231  -22.7163   22.5520 C   0  0  0  0  0  0
  -27.7735  -20.2690   16.6562 C   0  0  2  0  0  0
  -29.4622  -17.9477   21.4068 N   0  0  0  0  0  0
  -30.3784  -15.0905   21.7404 N   0  0  0  0  0  0
  -28.0446  -22.4986   17.8763 N   0  3  1  0  0  0
  -31.4554  -12.4012   19.0810 H   0  0  0  0  0  0
  -30.3125  -11.2777   19.7540 H   0  0  0  0  0  0
  -29.7116  -11.8354   17.3869 H   0  0  0  0  0  0
  -29.6444  -13.5351   17.7810 H   0  0  0  0  0  0
  -27.8172  -11.3271   18.7889 H   0  0  0  0  0  0
  -27.3480  -12.6755   17.7889 H   0  0  0  0  0  0
  -27.7158  -14.2608   19.6098 H   0  0  0  0  0  0
  -28.6673  -11.9133   21.3159 H   0  0  0  0  0  0
  -28.4486  -13.5375   21.8789 H   0  0  0  0  0  0
  -25.2761   -9.5690   22.4745 H   0  0  0  0  0  0
  -24.0007   -7.4634   22.7464 H   0  0  0  0  0  0
  -21.0835   -8.8769   19.8952 H   0  0  0  0  0  0
  -22.3691  -10.9669   19.6154 H   0  0  0  0  0  0
  -21.1998   -7.6144   23.9712 H   0  0  0  0  0  0
  -21.1482   -6.0519   25.9079 H   0  0  0  0  0  0
  -22.0601   -2.7600   23.2843 H   0  0  0  0  0  0
  -22.4134  -11.9884   22.4763 H   0  0  0  0  0  0
  -21.1139  -13.1258   22.2628 H   0  0  0  0  0  0
  -24.6876  -15.8486   20.5961 H   0  0  0  0  0  0
  -26.3264  -15.6369   20.2464 H   0  0  0  0  0  0
  -26.7107  -32.5541   23.1140 H   0  0  0  0  0  0
  -25.0278  -33.9798   25.0573 H   0  0  0  0  0  0
  -22.6880  -31.3154   21.4172 H   0  0  0  0  0  0
  -23.3799  -35.9580   23.3309 H   0  0  0  0  0  0
  -24.3606  -36.8878   22.2040 H   0  0  0  0  0  0
  -23.7221  -37.6486   23.6638 H   0  0  0  0  0  0
  -26.0501  -31.6031   20.6016 H   0  0  0  0  0  0
  -26.8127  -30.8776   21.9914 H   0  0  0  0  0  0
  -28.0915  -29.0967   21.1611 H   0  0  0  0  0  0
  -25.9836  -25.9844   19.0199 H   0  0  0  0  0  0
  -23.9498  -27.2974   19.0669 H   0  0  0  0  0  0
  -23.7276  -30.6199   19.4121 H   0  0  0  0  0  0
  -22.7255  -29.2737   19.8549 H   0  0  0  0  0  0
  -25.1306  -36.1955   25.0831 H   0  0  0  0  0  0
  -20.9994  -28.3270   24.1432 H   0  0  0  0  0  0
  -20.5754  -26.2288   23.3619 H   0  0  0  0  0  0
  -21.6648  -26.7513   22.1189 H   0  0  0  0  0  0
  -19.6962  -25.6311   21.1245 H   0  0  0  0  0  0
  -19.6711  -27.3212   20.6771 H   0  0  0  0  0  0
  -17.4230  -26.6737   21.3993 H   0  0  0  0  0  0
  -18.0312  -26.0021   22.8964 H   0  0  0  0  0  0
  -19.7956  -30.7246   24.2297 H   0  0  0  0  0  0
  -17.5052  -31.6272   24.5179 H   0  0  0  0  0  0
  -15.5369  -30.3044   23.7611 H   0  0  0  0  0  0
  -15.8679  -28.0837   22.7088 H   0  0  0  0  0  0
  -24.5966  -30.7032   25.7805 H   0  0  0  0  0  0
  -24.8883  -32.2922   26.4808 H   0  0  0  0  0  0
  -25.8092  -30.9021   27.0265 H   0  0  0  0  0  0
  -26.2780  -29.6864   24.1121 H   0  0  0  0  0  0
  -27.4040  -29.7265   25.4515 H   0  0  0  0  0  0
  -27.8648  -30.4382   23.9214 H   0  0  0  0  0  0
  -27.2664  -33.3661   26.2026 H   0  0  0  0  0  0
  -28.3864  -32.6860   25.0309 H   0  0  0  0  0  0
  -28.0707  -31.8502   26.5415 H   0  0  0  0  0  0
  -28.2597  -38.0090   24.7527 H   0  0  0  0  0  0
  -28.1063  -36.2632   24.6266 H   0  0  0  0  0  0
  -27.2294  -37.1396   25.8859 H   0  0  0  0  0  0
  -20.9271  -29.8769   21.6909 H   0  0  0  0  0  0
  -26.0179  -38.2884   24.1441 H   0  0  0  0  0  0
  -26.4630  -18.0994   20.1299 H   0  0  0  0  0  0
  -24.3729  -16.6770   23.7141 H   0  0  0  0  0  0
  -25.7174  -17.4000   24.5930 H   0  0  0  0  0  0
  -26.0003  -16.5912   23.0526 H   0  0  0  0  0  0
  -26.8836  -21.4176   22.0108 H   0  0  0  0  0  0
  -25.2242  -21.3236   22.5891 H   0  0  0  0  0  0
  -25.6593  -20.6198   21.0332 H   0  0  0  0  0  0
  -31.5082  -24.2668   21.2326 H   0  0  0  0  0  0
  -30.9585  -22.8321   20.3806 H   0  0  0  0  0  0
  -32.4826  -22.7998   21.2584 H   0  0  0  0  0  0
  -31.5659  -24.3339   23.7490 H   0  0  0  0  0  0
  -32.4376  -22.8140   23.9070 H   0  0  0  0  0  0
  -30.8881  -23.0419   24.7142 H   0  0  0  0  0  0
  -27.1662  -18.5560   15.4207 H   0  0  0  0  0  0
  -26.4200  -20.0630   14.9481 H   0  0  0  0  0  0
  -25.8685  -19.2281   16.3992 H   0  0  0  0  0  0
  -29.8929  -23.5515   17.7382 H   0  0  0  0  0  0
  -28.6579  -24.0821   16.5851 H   0  0  0  0  0  0
  -29.5307  -22.5779   16.3348 H   0  0  0  0  0  0
  -28.8325  -16.1860   18.9077 H   0  0  0  0  0  0
  -30.0924  -17.3719   18.8217 H   0  0  0  0  0  0
  -30.3651  -18.6350   23.8633 H   0  0  0  0  0  0
  -28.7926  -18.8642   24.5237 H   0  0  0  0  0  0
  -24.2896  -19.1123   23.3936 H   0  0  0  0  0  0
  -24.6614  -18.3513   21.8725 H   0  0  0  0  0  0
  -27.3595  -17.5241   17.6374 H   0  0  0  0  0  0
  -28.9138  -17.7390   16.8763 H   0  0  0  0  0  0
  -30.0392  -20.9326   24.6560 H   0  0  0  0  0  0
  -28.6687  -21.1599   23.6106 H   0  0  0  0  0  0
  -29.0952  -19.9213   18.3413 H   0  0  0  0  0  0
  -27.4090  -19.6902   18.6878 H   0  0  0  0  0  0
  -30.1641  -20.8612   21.6058 H   0  0  0  0  0  0
  -31.5425  -20.7100   22.6578 H   0  0  0  0  0  0
  -28.7368  -23.7318   20.2923 H   0  0  0  0  0  0
  -27.2449  -24.5518   20.5390 H   0  0  0  0  0  0
  -31.3016  -17.4299   20.4865 H   0  0  0  0  0  0
  -31.4446  -18.3574   21.9234 H   0  0  0  0  0  0
  -30.7264  -16.3963   23.3168 H   0  0  0  0  0  0
  -32.1429  -16.0317   22.3710 H   0  0  0  0  0  0
  -26.5521  -23.9824   18.1287 H   0  0  0  0  0  0
  -26.5663  -22.7306   19.3382 H   0  0  0  0  0  0
  -26.2173  -21.4890   17.4970 H   0  0  0  0  0  0
  -26.9327  -22.2086   16.0924 H   0  0  0  0  0  0
  -28.0972  -25.8477   18.2111 H   0  0  0  0  0  0
  -29.5974  -25.4729   18.9873 H   0  0  0  0  0  0
  -26.6623  -19.6675   23.7591 H   0  0  0  0  0  0
  -29.7256  -23.1589   22.5266 H   0  0  0  0  0  0
  -28.6648  -20.3997   16.0415 H   0  0  0  0  0  0
  -29.5336  -14.7968   22.2081 H   0  0  0  0  0  0
  -28.5275  -21.8514   18.4826 H   0  0  0  0  0  0
  1 25  1  0  0  0
  1 30  2  0  0  0
  1 98  1  0  0  0
  2  3  1  0  0  0
  2 25  1  0  0  0
  2100  1  0  0  0
  2101  1  0  0  0
  3  4  1  0  0  0
  3102  1  0  0  0
  3103  1  0  0  0
  4  5  1  0  0  0
  4104  1  0  0  0
  4105  1  0  0  0
  5  6  1  0  0  0
  5 26  1  0  0  0
  5106  1  0  0  0
  6 25  1  0  0  0
  6107  1  0  0  0
  6108  1  0  0  0
  7  8  2  0  0  0
  7 26  1  0  0  0
  7 29  1  0  0  0
  8  9  1  0  0  0
  8 22  1  0  0  0
  9 10  1  0  0  0
  9 27  2  0  0  0
 10 11  2  0  0  0
 10 15  1  0  0  0
 11 12  1  0  0  0
 11109  1  0  0  0
 12 13  2  0  0  0
 12110  1  0  0  0
 13 14  1  0  0  0
 13 31  1  0  0  0
 14 15  2  0  0  0
 14111  1  0  0  0
 15112  1  0  0  0
 16 17  2  0  0  0
 16 21  1  0  0  0
 16 31  1  0  0  0
 17 18  1  0  0  0
 17113  1  0  0  0
 18 19  2  0  0  0
 18114  1  0  0  0
 19 20  1  0  0  0
 19 24  1  0  0  0
 20 21  2  0  0  0
 20115  1  0  0  0
 21 23  1  0  0  0
 22 28  1  0  0  0
 22 32  2  0  0  0
 26 27  1  0  0  0
 28116  1  0  0  0
 28117  1  0  0  0
 29118  1  0  0  0
 29119  1  0  0  0
 33 34  1  0  0  0
 33 66  1  0  0  0
 33 70  2  0  0  0
 34 36  1  0  0  0
 34 59  1  0  0  0
 34120  1  0  0  0
 35 44  2  0  0  0
 35 45  1  0  0  0
 35 68  1  0  0  0
 36 56  1  0  0  0
 36121  1  0  0  0
 37 39  1  0  0  0
 37 47  1  0  0  0
 37 66  1  0  0  0
 37122  1  0  0  0
 38 43  2  0  0  0
 38 46  1  0  0  0
 38 47  1  0  0  0
 39 64  1  0  0  0
 39 67  2  0  0  0
 40 52  1  0  0  0
 40 53  2  0  0  0
 40 58  1  0  0  0
 41123  1  0  0  0
 41124  1  0  0  0
 41125  1  0  0  0
 41 48  1  0  0  0
 42 43  1  0  0  0
 42 66  1  0  0  0
 42126  1  0  0  0
 42127  1  0  0  0
 43 44  1  0  0  0
 44128  1  0  0  0
 45 46  2  0  0  0
 45129  1  0  0  0
 46130  1  0  0  0
 47131  1  0  0  0
 47132  1  0  0  0
 48 56  1  0  0  0
 48 65  1  0  0  0
 48133  1  0  0  0
 49 50  1  0  0  0
 49 53  1  0  0  0
 49 64  1  0  0  0
 49134  1  0  0  0
 50 51  1  0  0  0
 50135  1  0  0  0
 50136  1  0  0  0
 51 52  1  0  0  0
 51137  1  0  0  0
 51138  1  0  0  0
 52139  1  0  0  0
 52140  1  0  0  0
 53 54  1  0  0  0
 54 55  2  0  0  0
 54141  1  0  0  0
 55 57  1  0  0  0
 55142  1  0  0  0
 56 69  2  0  0  0
 57 58  2  0  0  0
 57143  1  0  0  0
 58144  1  0  0  0
 59 60  1  0  0  0
 59 61  1  0  0  0
 59 62  1  0  0  0
 60145  1  0  0  0
 60146  1  0  0  0
 60147  1  0  0  0
 61148  1  0  0  0
 61149  1  0  0  0
 61150  1  0  0  0
 62151  1  0  0  0
 62152  1  0  0  0
 62153  1  0  0  0
 63 65  1  0  0  0
 63154  1  0  0  0
 63155  1  0  0  0
 63156  1  0  0  0
 64157  1  0  0  0
 65158  1  0  0  0
 68 93  1  0  0  0
 71 72  1  0  0  0
 71 73  2  0  0  0
 71159  1  0  0  0
 72 74  2  0  0  0
 72 94  1  0  0  0
 73 81  1  0  0  0
 73 97  1  0  0  0
 74 82  1  0  0  0
 74 97  1  0  0  0
 75 83  1  0  0  0
 75160  1  0  0  0
 75161  1  0  0  0
 75162  1  0  0  0
 76163  1  0  0  0
 76164  1  0  0  0
 76165  1  0  0  0
 76 94  1  0  0  0
 77166  1  0  0  0
 77167  1  0  0  0
 77168  1  0  0  0
 77 95  1  0  0  0
 78 95  1  0  0  0
 78169  1  0  0  0
 78170  1  0  0  0
 78171  1  0  0  0
 79172  1  0  0  0
 79173  1  0  0  0
 79174  1  0  0  0
 79 96  1  0  0  0
 80175  1  0  0  0
 80176  1  0  0  0
 80177  1  0  0  0
 80 99  1  0  0  0
 81 84  1  0  0  0
 81178  1  0  0  0
 81179  1  0  0  0
 82 85  1  0  0  0
 82180  1  0  0  0
 82181  1  0  0  0
 83 94  1  0  0  0
 83182  1  0  0  0
 83183  1  0  0  0
 84 86  1  0  0  0
 84184  1  0  0  0
 84185  1  0  0  0
 85 87  1  0  0  0
 85186  1  0  0  0
 85187  1  0  0  0
 86 96  1  0  0  0
 86188  1  0  0  0
 86189  1  0  0  0
 87 95  1  0  0  0
 87190  1  0  0  0
 87191  1  0  0  0
 88 91  1  0  0  0
 88 93  1  0  0  0
 88192  1  0  0  0
 88193  1  0  0  0
 89 90  1  0  0  0
 89 97  1  0  0  0
 89194  1  0  0  0
 89195  1  0  0  0
 90 98  1  0  0  0
 90196  1  0  0  0
 90197  1  0  0  0
 91 99  1  0  0  0
 91198  1  0  0  0
 91199  1  0  0  0
 92 96  1  0  0  0
 92 99  1  0  0  0
 92200  1  0  0  0
 92201  1  0  0  0
 93202  1  0  0  0
 93203  1  0  0  0
 94204  1  0  0  0
 95205  1  0  0  0
 96206  1  0  0  0
 98207  1  0  0  0
 99208  1  0  0  0
M  CHG  1  99   1
M  ISO  4   1 100  68 101  93 101  98 100
M  END
> <chiral flag>
0

> <version>
0

> <s_m_source_file>
/data/baiqing/PycharmProjects/Reinvent-master-3.2/result/LINK_invent/BTK/process_docking_weight1_custom_sum_contain_oxygen_bond_distance_aromatic_linkinvent_7_9_3/rearranged_h_0097.sdf

> <i_m_source_file_index>
80

> <r_mmod_Potential_Energy-OPLS-2005>
-194.838638305664

> <r_mmod_Stretch_Energy-OPLS-2005>
38.4089241027832

> <r_mmod_Bend_Energy-OPLS-2005>
122.057609558105

> <r_mmod_Torsional_Energy-OPLS-2005>
264.185333251953

> <r_mmod_Improper_Torsional_Energy-OPLS-2005>
2.22199726104736

> <r_mmod_Van_der_Waal_Energy-OPLS-2005>
103.828025817871

> <r_mmod_Electrostatic_Energy-OPLS-2005>
-337.101196289062

> <r_mmod_Solvation_Energy-OPLS-2005>
-396.822692871094

> <b_mmod_Minimization_Converged-OPLS-2005>
0

> <r_mmod_RMS_Derivative-OPLS-2005>
2.89495468139648

$$$$
81
                    3D
 Structure written by MMmdl.
170178  0  0  1  0            999 V2000
  -30.7433  -14.4349   20.6003 C   0  0  0  0  0  0
  -30.4125  -12.3028   19.4111 C   0  0  0  0  0  0
  -29.4892  -12.5177   18.1966 C   0  0  0  0  0  0
  -28.0134  -12.3724   18.6126 C   0  0  0  0  0  0
  -27.6599  -13.2114   19.8711 C   0  0  2  0  0  0
  -28.7017  -13.0010   20.9939 C   0  0  0  0  0  0
  -25.2584  -13.8173   20.5687 C   0  0  0  0  0  0
  -24.1829  -13.0442   20.9181 C   0  0  0  0  0  0
  -24.6391  -11.6914   20.8705 C   0  0  0  0  0  0
  -23.9053  -10.4299   21.0379 C   0  0  0  0  0  0
  -24.3610   -9.4224   21.9164 C   0  0  0  0  0  0
  -23.6296   -8.2250   22.0744 C   0  0  0  0  0  0
  -22.4270   -8.0276   21.3548 C   0  0  0  0  0  0
  -21.9898   -9.0236   20.4636 C   0  0  0  0  0  0
  -22.7222  -10.2129   20.3038 C   0  0  0  0  0  0
  -21.6855   -6.0726   22.5277 C   0  0  0  0  0  0
  -21.4013   -6.5632   23.8206 C   0  0  0  0  0  0
  -21.3665   -5.6795   24.9170 C   0  0  0  0  0  0
  -21.6051   -4.3055   24.7229 C   0  0  0  0  0  0
  -21.8818   -3.8142   23.4353 C   0  0  0  0  0  0
  -21.9200   -4.6951   22.3403 C   0  0  0  0  0  0
  -22.7859  -13.5243   21.1856 C   0  0  0  0  0  0
  -22.1664   -4.2138   21.0983 F   0  0  0  0  0  0
  -21.5636   -3.4538   25.7746 F   0  0  0  0  0  0
  -30.0372  -13.2848   20.4409 N   0  0  0  0  0  0
  -26.3011  -12.9346   20.3340 N   0  0  0  0  0  0
  -25.9319  -11.6502   20.5725 N   0  0  0  0  0  0
  -22.0490  -12.8216   22.0397 N   0  0  0  0  0  0
  -25.4301  -15.1890   20.4114 N   0  0  0  0  0  0
  -31.8404  -14.6240   20.0693 O   0  0  0  0  0  0
  -21.6650   -6.8863   21.4235 O   0  0  0  0  0  0
  -22.3542  -14.5546   20.6714 O   0  0  0  0  0  0
  -24.6141  -31.8684   23.2103 C   0  0  0  0  0  0
  -25.9039  -32.4820   23.8394 C   0  0  1  0  0  0
  -27.2354  -27.4567   20.0839 C   0  0  0  0  0  0
  -25.5913  -33.8618   24.2321 N   0  0  0  0  0  0
  -23.4024  -30.4920   21.5504 C   0  0  2  0  0  0
  -24.8504  -28.9699   20.1024 C   0  0  0  0  0  0
  -22.7410  -29.4653   22.4981 C   0  0  0  0  0  0
  -18.0280  -28.1379   22.8490 C   0  0  0  0  0  0
  -24.1487  -36.7311   23.2636 C   0  0  0  0  0  0
  -25.9296  -30.8413   21.3619 C   0  0  0  0  0  0
  -26.0097  -29.4831   20.6978 C   0  0  0  0  0  0
  -27.2090  -28.7353   20.6837 C   0  0  0  0  0  0
  -26.0670  -26.9694   19.4574 C   0  0  0  0  0  0
  -24.8731  -27.7121   19.4764 C   0  0  0  0  0  0
  -23.6088  -29.8292   20.1622 C   0  0  0  0  0  0
  -25.4107  -36.3099   24.0330 C   0  0  1  0  0  0
  -20.5867  -28.3661   23.1319 C   0  0  2  0  0  0
  -20.6770  -26.9399   22.5420 C   0  0  0  0  0  0
  -19.5745  -26.6385   21.5218 C   0  0  0  0  0  0
  -18.1922  -26.7928   22.1627 C   0  0  0  0  0  0
  -19.1528  -28.8839   23.2901 C   0  0  0  0  0  0
  -18.9454  -30.1453   23.8899 C   0  0  0  0  0  0
  -17.6452  -30.6584   24.0564 C   0  0  0  0  0  0
  -25.9039  -34.9469   23.5116 C   0  0  0  0  0  0
  -16.5345  -29.9076   23.6344 C   0  0  0  0  0  0
  -16.7265  -28.6503   23.0347 C   0  0  0  0  0  0
  -26.4474  -31.6593   25.0712 C   0  0  0  0  0  0
  -25.3754  -31.3704   26.1472 C   0  0  0  0  0  0
  -27.0305  -30.3034   24.6084 C   0  0  0  0  0  0
  -27.6040  -32.4325   25.7482 C   0  0  0  0  0  0
  -27.5576  -37.1804   24.8460 C   0  0  0  0  0  0
  -21.4136  -29.3021   22.3715 N   0  0  0  0  0  0
  -26.4285  -37.3788   23.9412 N   0  0  0  0  0  0
  -24.6667  -31.0801   22.1000 N   0  0  0  0  0  0
  -23.4188  -28.8192   23.3016 O   0  0  0  0  0  0
  -28.3522  -26.6520   20.1825 O   0  0  0  0  0  0
  -26.5589  -34.8918   22.4669 O   0  0  0  0  0  0
  -23.5338  -32.1432   23.7511 O   0  0  0  0  0  0
  -29.7412  -18.9500   22.2599 C   0  0  0  0  0  0
  -29.3743  -19.3289   24.6024 C   0  0  0  0  0  0
  -29.3485  -19.8403   23.2860 C   0  0  0  0  0  0
  -30.1706  -17.6362   22.5757 C   0  0  0  0  0  0
  -30.1699  -17.2485   23.9395 C   0  0  0  0  0  0
  -32.1993  -15.9050   24.6742 C   0  0  0  0  0  0
  -28.8711  -22.1950   24.2353 C   0  0  0  0  0  0
  -27.9590  -25.9376   22.4737 C   0  0  0  0  0  0
  -30.7279  -16.7537   21.4517 C   0  0  0  0  0  0
  -30.6848  -15.9044   24.4418 C   0  0  0  0  0  0
  -29.1661  -24.3635   20.8739 C   0  0  0  0  0  0
  -28.5371  -22.9775   21.2036 C   0  0  0  0  0  0
  -28.8177  -21.2672   22.9977 C   0  0  1  0  0  0
  -28.1054  -25.4891   21.0025 C   0  0  2  0  0  0
  -29.7764  -18.0832   24.9204 N   0  0  0  0  0  0
  -30.1459  -15.4146   21.2993 N   0  0  0  0  0  0
  -29.4416  -21.9741   21.8390 N   0  3  0  0  0  0
  -31.4587  -12.3856   19.1111 H   0  0  0  0  0  0
  -30.2976  -11.2924   19.8034 H   0  0  0  0  0  0
  -29.7303  -11.8024   17.4086 H   0  0  0  0  0  0
  -29.6583  -13.5080   17.7713 H   0  0  0  0  0  0
  -27.8277  -11.3146   18.8044 H   0  0  0  0  0  0
  -27.3621  -12.6482   17.7818 H   0  0  0  0  0  0
  -27.7026  -14.2585   19.5733 H   0  0  0  0  0  0
  -28.6692  -11.9730   21.3540 H   0  0  0  0  0  0
  -28.4611  -13.6195   21.8603 H   0  0  0  0  0  0
  -25.2751   -9.5714   22.4736 H   0  0  0  0  0  0
  -24.0016   -7.4646   22.7461 H   0  0  0  0  0  0
  -21.0839   -8.8742   19.8932 H   0  0  0  0  0  0
  -22.3668  -10.9655   19.6142 H   0  0  0  0  0  0
  -21.1988   -7.6138   23.9705 H   0  0  0  0  0  0
  -21.1492   -6.0521   25.9078 H   0  0  0  0  0  0
  -22.0592   -2.7599   23.2859 H   0  0  0  0  0  0
  -22.4119  -11.9906   22.4828 H   0  0  0  0  0  0
  -21.1077  -13.1191   22.2541 H   0  0  0  0  0  0
  -24.6644  -15.8444   20.5198 H   0  0  0  0  0  0
  -26.2879  -15.6285   20.1005 H   0  0  0  0  0  0
  -26.7103  -32.5531   23.1156 H   0  0  0  0  0  0
  -25.0089  -33.9784   25.0482 H   0  0  0  0  0  0
  -22.6901  -31.3087   21.4139 H   0  0  0  0  0  0
  -23.3741  -35.9652   23.3309 H   0  0  0  0  0  0
  -24.3581  -36.8923   22.2049 H   0  0  0  0  0  0
  -23.7252  -37.6521   23.6650 H   0  0  0  0  0  0
  -26.0454  -31.6151   20.6016 H   0  0  0  0  0  0
  -26.8150  -30.8868   21.9835 H   0  0  0  0  0  0
  -28.0968  -29.1154   21.1699 H   0  0  0  0  0  0
  -26.0714  -26.0024   18.9755 H   0  0  0  0  0  0
  -23.9839  -27.3132   19.0080 H   0  0  0  0  0  0
  -23.7085  -30.6073   19.4046 H   0  0  0  0  0  0
  -22.7347  -29.2453   19.8681 H   0  0  0  0  0  0
  -25.1287  -36.1953   25.0822 H   0  0  0  0  0  0
  -20.9968  -28.3226   24.1436 H   0  0  0  0  0  0
  -20.5688  -26.2261   23.3603 H   0  0  0  0  0  0
  -21.6634  -26.7447   22.1193 H   0  0  0  0  0  0
  -19.6901  -25.6300   21.1234 H   0  0  0  0  0  0
  -19.6684  -27.3203   20.6754 H   0  0  0  0  0  0
  -17.4196  -26.6691   21.4022 H   0  0  0  0  0  0
  -18.0308  -26.0066   22.9017 H   0  0  0  0  0  0
  -19.7928  -30.7279   24.2245 H   0  0  0  0  0  0
  -17.5006  -31.6257   24.5173 H   0  0  0  0  0  0
  -15.5344  -30.2971   23.7676 H   0  0  0  0  0  0
  -15.8671  -28.0828   22.7049 H   0  0  0  0  0  0
  -24.5907  -30.7074   25.7815 H   0  0  0  0  0  0
  -24.8977  -32.2867   26.4946 H   0  0  0  0  0  0
  -25.8123  -30.8850   27.0207 H   0  0  0  0  0  0
  -26.2839  -29.6790   24.1162 H   0  0  0  0  0  0
  -27.4103  -29.7274   25.4532 H   0  0  0  0  0  0
  -27.8662  -30.4352   23.9209 H   0  0  0  0  0  0
  -27.2631  -33.3597   26.2100 H   0  0  0  0  0  0
  -28.3827  -32.6940   25.0306 H   0  0  0  0  0  0
  -28.0730  -31.8438   26.5372 H   0  0  0  0  0  0
  -28.2587  -38.0105   24.7515 H   0  0  0  0  0  0
  -28.1078  -36.2642   24.6275 H   0  0  0  0  0  0
  -27.2297  -37.1436   25.8861 H   0  0  0  0  0  0
  -20.9297  -29.8737   21.6933 H   0  0  0  0  0  0
  -26.0172  -38.2861   24.1427 H   0  0  0  0  0  0
  -29.7306  -19.2760   21.2296 H   0  0  0  0  0  0
  -29.0504  -19.9093   25.4511 H   0  0  0  0  0  0
  -32.4958  -16.7164   25.3398 H   0  0  0  0  0  0
  -32.7418  -16.0199   23.7367 H   0  0  0  0  0  0
  -32.5142  -14.9662   25.1290 H   0  0  0  0  0  0
  -28.2126  -21.8522   25.0337 H   0  0  0  0  0  0
  -28.5433  -23.2061   24.0069 H   0  0  0  0  0  0
  -29.8832  -22.2726   24.6353 H   0  0  0  0  0  0
  -27.7453  -25.1000   23.1325 H   0  0  0  0  0  0
  -27.1365  -26.6396   22.6087 H   0  0  0  0  0  0
  -28.8683  -26.4212   22.8333 H   0  0  0  0  0  0
  -31.8047  -16.6754   21.6159 H   0  0  0  0  0  0
  -30.6199  -17.2696   20.4948 H   0  0  0  0  0  0
  -30.1875  -15.6685   25.3844 H   0  0  0  0  0  0
  -30.4090  -15.0921   23.7743 H   0  0  0  0  0  0
  -29.5697  -24.3402   19.8604 H   0  0  0  0  0  0
  -30.0099  -24.5876   21.5262 H   0  0  0  0  0  0
  -28.1113  -22.5432   20.2985 H   0  0  0  0  0  0
  -27.6764  -23.1348   21.8540 H   0  0  0  0  0  0
  -27.7675  -21.1042   22.7520 H   0  0  0  0  0  0
  -27.1615  -25.0394   20.6944 H   0  0  0  0  0  0
  -29.2178  -15.2404   21.6522 H   0  0  0  0  0  0
  -30.2933  -22.4178   22.1428 H   0  0  0  0  0  0
  -29.6905  -21.3110   21.1236 H   0  0  0  0  0  0
  1 25  1  0  0  0
  1 30  2  0  0  0
  1 86  1  0  0  0
  2  3  1  0  0  0
  2 25  1  0  0  0
  2 88  1  0  0  0
  2 89  1  0  0  0
  3  4  1  0  0  0
  3 90  1  0  0  0
  3 91  1  0  0  0
  4  5  1  0  0  0
  4 92  1  0  0  0
  4 93  1  0  0  0
  5  6  1  0  0  0
  5 26  1  0  0  0
  5 94  1  0  0  0
  6 25  1  0  0  0
  6 95  1  0  0  0
  6 96  1  0  0  0
  7  8  2  0  0  0
  7 26  1  0  0  0
  7 29  1  0  0  0
  8  9  1  0  0  0
  8 22  1  0  0  0
  9 10  1  0  0  0
  9 27  2  0  0  0
 10 11  2  0  0  0
 10 15  1  0  0  0
 11 12  1  0  0  0
 11 97  1  0  0  0
 12 13  2  0  0  0
 12 98  1  0  0  0
 13 14  1  0  0  0
 13 31  1  0  0  0
 14 15  2  0  0  0
 14 99  1  0  0  0
 15100  1  0  0  0
 16 17  2  0  0  0
 16 21  1  0  0  0
 16 31  1  0  0  0
 17 18  1  0  0  0
 17101  1  0  0  0
 18 19  2  0  0  0
 18102  1  0  0  0
 19 20  1  0  0  0
 19 24  1  0  0  0
 20 21  2  0  0  0
 20103  1  0  0  0
 21 23  1  0  0  0
 22 28  1  0  0  0
 22 32  2  0  0  0
 26 27  1  0  0  0
 28104  1  0  0  0
 28105  1  0  0  0
 29106  1  0  0  0
 29107  1  0  0  0
 33 34  1  0  0  0
 33 66  1  0  0  0
 33 70  2  0  0  0
 34 36  1  0  0  0
 34 59  1  0  0  0
 34108  1  0  0  0
 35 44  2  0  0  0
 35 45  1  0  0  0
 35 68  1  0  0  0
 36 56  1  0  0  0
 36109  1  0  0  0
 37 39  1  0  0  0
 37 47  1  0  0  0
 37 66  1  0  0  0
 37110  1  0  0  0
 38 43  2  0  0  0
 38 46  1  0  0  0
 38 47  1  0  0  0
 39 64  1  0  0  0
 39 67  2  0  0  0
 40 52  1  0  0  0
 40 53  2  0  0  0
 40 58  1  0  0  0
 41111  1  0  0  0
 41112  1  0  0  0
 41113  1  0  0  0
 41 48  1  0  0  0
 42 43  1  0  0  0
 42 66  1  0  0  0
 42114  1  0  0  0
 42115  1  0  0  0
 43 44  1  0  0  0
 44116  1  0  0  0
 45 46  2  0  0  0
 45117  1  0  0  0
 46118  1  0  0  0
 47119  1  0  0  0
 47120  1  0  0  0
 48 56  1  0  0  0
 48 65  1  0  0  0
 48121  1  0  0  0
 49 50  1  0  0  0
 49 53  1  0  0  0
 49 64  1  0  0  0
 49122  1  0  0  0
 50 51  1  0  0  0
 50123  1  0  0  0
 50124  1  0  0  0
 51 52  1  0  0  0
 51125  1  0  0  0
 51126  1  0  0  0
 52127  1  0  0  0
 52128  1  0  0  0
 53 54  1  0  0  0
 54 55  2  0  0  0
 54129  1  0  0  0
 55 57  1  0  0  0
 55130  1  0  0  0
 56 69  2  0  0  0
 57 58  2  0  0  0
 57131  1  0  0  0
 58132  1  0  0  0
 59 60  1  0  0  0
 59 61  1  0  0  0
 59 62  1  0  0  0
 60133  1  0  0  0
 60134  1  0  0  0
 60135  1  0  0  0
 61136  1  0  0  0
 61137  1  0  0  0
 61138  1  0  0  0
 62139  1  0  0  0
 62140  1  0  0  0
 62141  1  0  0  0
 63 65  1  0  0  0
 63142  1  0  0  0
 63143  1  0  0  0
 63144  1  0  0  0
 64145  1  0  0  0
 65146  1  0  0  0
 68 84  1  0  0  0
 71 73  2  0  0  0
 71 74  1  0  0  0
 71147  1  0  0  0
 72 73  1  0  0  0
 72 85  2  0  0  0
 72148  1  0  0  0
 73 83  1  0  0  0
 74 75  2  0  0  0
 74 79  1  0  0  0
 75 80  1  0  0  0
 75 85  1  0  0  0
 76 80  1  0  0  0
 76149  1  0  0  0
 76150  1  0  0  0
 76151  1  0  0  0
 77152  1  0  0  0
 77153  1  0  0  0
 77154  1  0  0  0
 77 83  1  0  0  0
 78155  1  0  0  0
 78156  1  0  0  0
 78157  1  0  0  0
 78 84  1  0  0  0
 79 86  1  0  0  0
 79158  1  0  0  0
 79159  1  0  0  0
 80160  1  0  0  0
 80161  1  0  0  0
 81 82  1  0  0  0
 81 84  1  0  0  0
 81162  1  0  0  0
 81163  1  0  0  0
 82 87  1  0  0  0
 82164  1  0  0  0
 82165  1  0  0  0
 83 87  1  0  0  0
 83166  1  0  0  0
 84167  1  0  0  0
 86168  1  0  0  0
 87169  1  0  0  0
 87170  1  0  0  0
M  CHG  1  87   1
M  ISO  4   1 100  68 101  84 101  86 100
M  END
> <chiral flag>
0

> <version>
0

> <s_m_source_file>
/data/baiqing/PycharmProjects/Reinvent-master-3.2/result/LINK_invent/BTK/process_docking_weight1_custom_sum_contain_oxygen_bond_distance_aromatic_linkinvent_7_9_3/rearranged_h_0097.sdf

> <i_m_source_file_index>
81

> <r_mmod_Potential_Energy-OPLS-2005>
-299.694244384766

> <r_mmod_Stretch_Energy-OPLS-2005>
40.3922233581543

> <r_mmod_Bend_Energy-OPLS-2005>
102.901016235352

> <r_mmod_Torsional_Energy-OPLS-2005>
235.313140869141

> <r_mmod_Improper_Torsional_Energy-OPLS-2005>
3.22339415550232

> <r_mmod_Van_der_Waal_Energy-OPLS-2005>
167.437469482422

> <r_mmod_Electrostatic_Energy-OPLS-2005>
-387.982116699219

> <r_mmod_Solvation_Energy-OPLS-2005>
-474.696990966797

> <b_mmod_Minimization_Converged-OPLS-2005>
0

> <r_mmod_RMS_Derivative-OPLS-2005>
2.1600296497345

$$$$
82
                    3D
 Structure written by MMmdl.
166174  0  0  1  0            999 V2000
  -30.6934  -14.4942   20.5430 C   0  0  0  0  0  0
  -30.4206  -12.3113   19.4286 C   0  0  0  0  0  0
  -29.5004  -12.5075   18.2060 C   0  0  0  0  0  0
  -28.0233  -12.3553   18.6194 C   0  0  0  0  0  0
  -27.6579  -13.2065   19.8670 C   0  0  2  0  0  0
  -28.6998  -13.0090   20.9920 C   0  0  0  0  0  0
  -25.2513  -13.8070   20.5578 C   0  0  0  0  0  0
  -24.1807  -13.0373   20.9175 C   0  0  0  0  0  0
  -24.6380  -11.6860   20.8719 C   0  0  0  0  0  0
  -23.9018  -10.4271   21.0379 C   0  0  0  0  0  0
  -24.3580   -9.4192   21.9147 C   0  0  0  0  0  0
  -23.6260   -8.2229   22.0719 C   0  0  0  0  0  0
  -22.4246   -8.0252   21.3518 C   0  0  0  0  0  0
  -21.9878   -9.0218   20.4613 C   0  0  0  0  0  0
  -22.7181  -10.2119   20.3037 C   0  0  0  0  0  0
  -21.6849   -6.0682   22.5259 C   0  0  0  0  0  0
  -21.3984   -6.5585   23.8193 C   0  0  0  0  0  0
  -21.3684   -5.6741   24.9170 C   0  0  0  0  0  0
  -21.6084   -4.3002   24.7234 C   0  0  0  0  0  0
  -21.8821   -3.8093   23.4345 C   0  0  0  0  0  0
  -21.9202   -4.6905   22.3403 C   0  0  0  0  0  0
  -22.7839  -13.5193   21.1835 C   0  0  0  0  0  0
  -22.1672   -4.2089   21.0977 F   0  0  0  0  0  0
  -21.5679   -3.4510   25.7759 F   0  0  0  0  0  0
  -30.0316  -13.3085   20.4383 N   0  0  0  0  0  0
  -26.3001  -12.9291   20.3314 N   0  0  0  0  0  0
  -25.9313  -11.6453   20.5736 N   0  0  0  0  0  0
  -22.0456  -12.8212   22.0397 N   0  0  0  0  0  0
  -25.4048  -15.1754   20.3830 N   0  0  0  0  0  0
  -31.8238  -14.6667   20.0812 O   0  0  0  0  0  0
  -21.6629   -6.8832   21.4218 O   0  0  0  0  0  0
  -22.3576  -14.5545   20.6710 O   0  0  0  0  0  0
  -24.6135  -31.8676   23.2037 C   0  0  0  0  0  0
  -25.9044  -32.4807   23.8303 C   0  0  1  0  0  0
  -27.2580  -27.4435   20.0717 C   0  0  0  0  0  0
  -25.5925  -33.8591   24.2284 N   0  0  0  0  0  0
  -23.4005  -30.4865   21.5460 C   0  0  2  0  0  0
  -24.8518  -28.9461   20.1099 C   0  0  0  0  0  0
  -22.7377  -29.4681   22.4994 C   0  0  0  0  0  0
  -18.0259  -28.1401   22.8488 C   0  0  0  0  0  0
  -24.1494  -36.7256   23.2625 C   0  0  0  0  0  0
  -25.9291  -30.8268   21.3632 C   0  0  0  0  0  0
  -26.0047  -29.4609   20.7121 C   0  0  0  0  0  0
  -27.2023  -28.7084   20.7014 C   0  0  0  0  0  0
  -26.0826  -26.9360   19.4725 C   0  0  0  0  0  0
  -24.8839  -27.6818   19.4926 C   0  0  0  0  0  0
  -23.6067  -29.8074   20.1643 C   0  0  0  0  0  0
  -25.4126  -36.3078   24.0325 C   0  0  1  0  0  0
  -20.5841  -28.3679   23.1327 C   0  0  2  0  0  0
  -20.6758  -26.9421   22.5430 C   0  0  0  0  0  0
  -19.5740  -26.6402   21.5216 C   0  0  0  0  0  0
  -18.1914  -26.7943   22.1617 C   0  0  0  0  0  0
  -19.1502  -28.8851   23.2914 C   0  0  0  0  0  0
  -18.9451  -30.1468   23.8925 C   0  0  0  0  0  0
  -17.6456  -30.6619   24.0564 C   0  0  0  0  0  0
  -25.9063  -34.9461   23.5107 C   0  0  0  0  0  0
  -16.5347  -29.9130   23.6327 C   0  0  0  0  0  0
  -16.7247  -28.6531   23.0359 C   0  0  0  0  0  0
  -26.4491  -31.6578   25.0612 C   0  0  0  0  0  0
  -25.3746  -31.3730   26.1347 C   0  0  0  0  0  0
  -27.0330  -30.3011   24.6023 C   0  0  0  0  0  0
  -27.6089  -32.4254   25.7389 C   0  0  0  0  0  0
  -27.5596  -37.1784   24.8468 C   0  0  0  0  0  0
  -21.4105  -29.3022   22.3709 N   0  0  0  0  0  0
  -26.4303  -37.3769   23.9415 N   0  0  0  0  0  0
  -24.6646  -31.0753   22.0965 N   0  0  0  0  0  0
  -23.4137  -28.8274   23.3074 O   0  0  0  0  0  0
  -28.4632  -26.7642   20.0998 O   0  0  0  0  0  0
  -26.5613  -34.8917   22.4667 O   0  0  0  0  0  0
  -23.5329  -32.1474   23.7439 O   0  0  0  0  0  0
  -27.1598  -18.2014   19.2803 C   0  0  0  0  0  0
  -27.8315  -17.4371   20.2629 C   0  0  0  0  0  0
  -28.0937  -18.9497   18.6248 C   0  0  0  0  0  0
  -29.1655  -17.6994   20.1771 C   0  0  0  0  0  0
  -27.8716  -19.7960   17.4099 C   0  0  0  0  0  0
  -29.4178  -24.2919   21.2042 C   0  0  0  0  0  0
  -30.2755  -16.9630   20.9020 C   0  0  0  0  0  0
  -30.5887  -19.4849   19.0233 C   0  0  0  0  0  0
  -30.5104  -20.9749   18.5531 C   0  0  0  0  0  0
  -29.5669  -23.2742   18.8634 C   0  0  0  0  0  0
  -28.7837  -25.7192   19.1657 C   0  0  0  0  0  0
  -28.8107  -24.2866   19.7850 C   0  0  2  0  0  0
  -29.3215  -18.7742   19.2805 N   0  0  0  0  0  0
  -29.9734  -15.5247   21.0274 N   0  0  0  0  0  0
  -29.6842  -21.8820   19.3993 N   0  3  0  0  0  0
  -31.4707  -12.3905   19.1397 H   0  0  0  0  0  0
  -30.2989  -11.3041   19.8300 H   0  0  0  0  0  0
  -29.7462  -11.7766   17.4349 H   0  0  0  0  0  0
  -29.6631  -13.4890   17.7578 H   0  0  0  0  0  0
  -27.8547  -11.3000   18.8363 H   0  0  0  0  0  0
  -27.3666  -12.5990   17.7830 H   0  0  0  0  0  0
  -27.6930  -14.2502   19.5547 H   0  0  0  0  0  0
  -28.6767  -11.9800   21.3539 H   0  0  0  0  0  0
  -28.4619  -13.6299   21.8567 H   0  0  0  0  0  0
  -25.2759   -9.5650   22.4667 H   0  0  0  0  0  0
  -24.0001   -7.4606   22.7409 H   0  0  0  0  0  0
  -21.0825   -8.8712   19.8883 H   0  0  0  0  0  0
  -22.3638  -10.9648   19.6131 H   0  0  0  0  0  0
  -21.1889   -7.6080   23.9705 H   0  0  0  0  0  0
  -21.1548   -6.0444   25.9087 H   0  0  0  0  0  0
  -22.0584   -2.7552   23.2862 H   0  0  0  0  0  0
  -22.4098  -11.9930   22.4875 H   0  0  0  0  0  0
  -21.1048  -13.1222   22.2559 H   0  0  0  0  0  0
  -24.6040  -15.7963   20.4156 H   0  0  0  0  0  0
  -26.2303  -15.6126   19.9918 H   0  0  0  0  0  0
  -26.7099  -32.5540   23.1039 H   0  0  0  0  0  0
  -25.0021  -33.9727   25.0390 H   0  0  0  0  0  0
  -22.6893  -31.3046   21.4030 H   0  0  0  0  0  0
  -23.3768  -35.9572   23.3302 H   0  0  0  0  0  0
  -24.3575  -36.8844   22.2027 H   0  0  0  0  0  0
  -23.7226  -37.6450   23.6634 H   0  0  0  0  0  0
  -26.0520  -31.5972   20.6010 H   0  0  0  0  0  0
  -26.8140  -30.8740   21.9872 H   0  0  0  0  0  0
  -28.0917  -29.1052   21.1724 H   0  0  0  0  0  0
  -26.0766  -25.9659   18.9979 H   0  0  0  0  0  0
  -23.9947  -27.2781   19.0306 H   0  0  0  0  0  0
  -23.7007  -30.5760   19.3966 H   0  0  0  0  0  0
  -22.7352  -29.2139   19.8783 H   0  0  0  0  0  0
  -25.1321  -36.1909   25.0809 H   0  0  0  0  0  0
  -20.9948  -28.3263   24.1438 H   0  0  0  0  0  0
  -20.5674  -26.2279   23.3611 H   0  0  0  0  0  0
  -21.6638  -26.7476   22.1229 H   0  0  0  0  0  0
  -19.6920  -25.6317   21.1237 H   0  0  0  0  0  0
  -19.6708  -27.3214   20.6755 H   0  0  0  0  0  0
  -17.4200  -26.6681   21.4024 H   0  0  0  0  0  0
  -18.0345  -26.0097   22.9020 H   0  0  0  0  0  0
  -19.7930  -30.7277   24.2302 H   0  0  0  0  0  0
  -17.5016  -31.6291   24.5185 H   0  0  0  0  0  0
  -15.5357  -30.3059   23.7638 H   0  0  0  0  0  0
  -15.8629  -28.0866   22.7089 H   0  0  0  0  0  0
  -24.5934  -30.7071   25.7667 H   0  0  0  0  0  0
  -24.8929  -32.2911   26.4700 H   0  0  0  0  0  0
  -25.8053  -30.8926   27.0149 H   0  0  0  0  0  0
  -26.2905  -29.6768   24.1025 H   0  0  0  0  0  0
  -27.4071  -29.7249   25.4504 H   0  0  0  0  0  0
  -27.8743  -30.4304   23.9215 H   0  0  0  0  0  0
  -27.2754  -33.3567   26.1976 H   0  0  0  0  0  0
  -28.3904  -32.6777   25.0207 H   0  0  0  0  0  0
  -28.0749  -31.8329   26.5274 H   0  0  0  0  0  0
  -28.2636  -38.0066   24.7545 H   0  0  0  0  0  0
  -28.1102  -36.2614   24.6312 H   0  0  0  0  0  0
  -27.2321  -37.1436   25.8873 H   0  0  0  0  0  0
  -20.9274  -29.8634   21.6835 H   0  0  0  0  0  0
  -26.0194  -38.2849   24.1418 H   0  0  0  0  0  0
  -26.1020  -18.1713   19.0521 H   0  0  0  0  0  0
  -27.3917  -16.7221   20.9404 H   0  0  0  0  0  0
  -26.9360  -19.5212   16.9216 H   0  0  0  0  0  0
  -28.6594  -19.6500   16.6693 H   0  0  0  0  0  0
  -27.7944  -20.8552   17.6542 H   0  0  0  0  0  0
  -29.2486  -23.3388   21.7029 H   0  0  0  0  0  0
  -28.9555  -25.0470   21.8389 H   0  0  0  0  0  0
  -30.4923  -24.4832   21.1933 H   0  0  0  0  0  0
  -31.2330  -17.1108   20.4032 H   0  0  0  0  0  0
  -30.3841  -17.3717   21.9073 H   0  0  0  0  0  0
  -31.1716  -19.4603   19.9441 H   0  0  0  0  0  0
  -31.1583  -18.9028   18.2969 H   0  0  0  0  0  0
  -30.1797  -21.0351   17.5192 H   0  0  0  0  0  0
  -31.5236  -21.3747   18.5271 H   0  0  0  0  0  0
  -30.5757  -23.6479   18.6765 H   0  0  0  0  0  0
  -29.0758  -23.2418   17.8891 H   0  0  0  0  0  0
  -28.1682  -25.7558   18.2661 H   0  0  0  0  0  0
  -29.7863  -25.9636   18.8153 H   0  0  0  0  0  0
  -27.7712  -23.9691   19.8717 H   0  0  0  0  0  0
  -29.0584  -15.2981   21.3845 H   0  0  0  0  0  0
  -30.1148  -21.9202   20.3087 H   0  0  0  0  0  0
  -28.7666  -21.4792   19.5151 H   0  0  0  0  0  0
  1 25  1  0  0  0
  1 30  2  0  0  0
  1 84  1  0  0  0
  2  3  1  0  0  0
  2 25  1  0  0  0
  2 86  1  0  0  0
  2 87  1  0  0  0
  3  4  1  0  0  0
  3 88  1  0  0  0
  3 89  1  0  0  0
  4  5  1  0  0  0
  4 90  1  0  0  0
  4 91  1  0  0  0
  5  6  1  0  0  0
  5 26  1  0  0  0
  5 92  1  0  0  0
  6 25  1  0  0  0
  6 93  1  0  0  0
  6 94  1  0  0  0
  7  8  2  0  0  0
  7 26  1  0  0  0
  7 29  1  0  0  0
  8  9  1  0  0  0
  8 22  1  0  0  0
  9 10  1  0  0  0
  9 27  2  0  0  0
 10 11  2  0  0  0
 10 15  1  0  0  0
 11 12  1  0  0  0
 11 95  1  0  0  0
 12 13  2  0  0  0
 12 96  1  0  0  0
 13 14  1  0  0  0
 13 31  1  0  0  0
 14 15  2  0  0  0
 14 97  1  0  0  0
 15 98  1  0  0  0
 16 17  2  0  0  0
 16 21  1  0  0  0
 16 31  1  0  0  0
 17 18  1  0  0  0
 17 99  1  0  0  0
 18 19  2  0  0  0
 18100  1  0  0  0
 19 20  1  0  0  0
 19 24  1  0  0  0
 20 21  2  0  0  0
 20101  1  0  0  0
 21 23  1  0  0  0
 22 28  1  0  0  0
 22 32  2  0  0  0
 26 27  1  0  0  0
 28102  1  0  0  0
 28103  1  0  0  0
 29104  1  0  0  0
 29105  1  0  0  0
 33 34  1  0  0  0
 33 66  1  0  0  0
 33 70  2  0  0  0
 34 36  1  0  0  0
 34 59  1  0  0  0
 34106  1  0  0  0
 35 44  2  0  0  0
 35 45  1  0  0  0
 35 68  1  0  0  0
 36 56  1  0  0  0
 36107  1  0  0  0
 37 39  1  0  0  0
 37 47  1  0  0  0
 37 66  1  0  0  0
 37108  1  0  0  0
 38 43  2  0  0  0
 38 46  1  0  0  0
 38 47  1  0  0  0
 39 64  1  0  0  0
 39 67  2  0  0  0
 40 52  1  0  0  0
 40 53  2  0  0  0
 40 58  1  0  0  0
 41109  1  0  0  0
 41110  1  0  0  0
 41111  1  0  0  0
 41 48  1  0  0  0
 42 43  1  0  0  0
 42 66  1  0  0  0
 42112  1  0  0  0
 42113  1  0  0  0
 43 44  1  0  0  0
 44114  1  0  0  0
 45 46  2  0  0  0
 45115  1  0  0  0
 46116  1  0  0  0
 47117  1  0  0  0
 47118  1  0  0  0
 48 56  1  0  0  0
 48 65  1  0  0  0
 48119  1  0  0  0
 49 50  1  0  0  0
 49 53  1  0  0  0
 49 64  1  0  0  0
 49120  1  0  0  0
 50 51  1  0  0  0
 50121  1  0  0  0
 50122  1  0  0  0
 51 52  1  0  0  0
 51123  1  0  0  0
 51124  1  0  0  0
 52125  1  0  0  0
 52126  1  0  0  0
 53 54  1  0  0  0
 54 55  2  0  0  0
 54127  1  0  0  0
 55 57  1  0  0  0
 55128  1  0  0  0
 56 69  2  0  0  0
 57 58  2  0  0  0
 57129  1  0  0  0
 58130  1  0  0  0
 59 60  1  0  0  0
 59 61  1  0  0  0
 59 62  1  0  0  0
 60131  1  0  0  0
 60132  1  0  0  0
 60133  1  0  0  0
 61134  1  0  0  0
 61135  1  0  0  0
 61136  1  0  0  0
 62137  1  0  0  0
 62138  1  0  0  0
 62139  1  0  0  0
 63 65  1  0  0  0
 63140  1  0  0  0
 63141  1  0  0  0
 63142  1  0  0  0
 64143  1  0  0  0
 65144  1  0  0  0
 68 81  1  0  0  0
 71 72  1  0  0  0
 71 73  2  0  0  0
 71145  1  0  0  0
 72 74  2  0  0  0
 72146  1  0  0  0
 73 75  1  0  0  0
 73 83  1  0  0  0
 74 77  1  0  0  0
 74 83  1  0  0  0
 75147  1  0  0  0
 75148  1  0  0  0
 75149  1  0  0  0
 76150  1  0  0  0
 76151  1  0  0  0
 76152  1  0  0  0
 76 82  1  0  0  0
 77 84  1  0  0  0
 77153  1  0  0  0
 77154  1  0  0  0
 78 79  1  0  0  0
 78 83  1  0  0  0
 78155  1  0  0  0
 78156  1  0  0  0
 79 85  1  0  0  0
 79157  1  0  0  0
 79158  1  0  0  0
 80 82  1  0  0  0
 80 85  1  0  0  0
 80159  1  0  0  0
 80160  1  0  0  0
 81 82  1  0  0  0
 81161  1  0  0  0
 81162  1  0  0  0
 82163  1  0  0  0
 84164  1  0  0  0
 85165  1  0  0  0
 85166  1  0  0  0
M  CHG  1  85   1
M  ISO  4   1 100  68 101  81 101  84 100
M  END
> <chiral flag>
0

> <version>
0

> <s_m_source_file>
/data/baiqing/PycharmProjects/Reinvent-master-3.2/result/LINK_invent/BTK/process_docking_weight1_custom_sum_contain_oxygen_bond_distance_aromatic_linkinvent_7_9_3/rearranged_h_0097.sdf

> <i_m_source_file_index>
82

> <r_mmod_Potential_Energy-OPLS-2005>
-291.907470703125

> <r_mmod_Stretch_Energy-OPLS-2005>
43.0877151489258

> <r_mmod_Bend_Energy-OPLS-2005>
121.017738342285

> <r_mmod_Torsional_Energy-OPLS-2005>
232.552230834961

> <r_mmod_Improper_Torsional_Energy-OPLS-2005>
5.17625045776367

> <r_mmod_Van_der_Waal_Energy-OPLS-2005>
125.804824829102

> <r_mmod_Electrostatic_Energy-OPLS-2005>
-370.33984375

> <r_mmod_Solvation_Energy-OPLS-2005>
-464.387390136719

> <b_mmod_Minimization_Converged-OPLS-2005>
0

> <r_mmod_RMS_Derivative-OPLS-2005>
4.07393932342529

$$$$
83
                    3D
 Structure written by MMmdl.
166174  0  0  1  0            999 V2000
  -30.6871  -14.5430   20.5225 C   0  0  0  0  0  0
  -30.4172  -12.3380   19.4472 C   0  0  0  0  0  0
  -29.5024  -12.4969   18.2160 C   0  0  0  0  0  0
  -28.0233  -12.3528   18.6255 C   0  0  0  0  0  0
  -27.6518  -13.2189   19.8597 C   0  0  2  0  0  0
  -28.6911  -13.0648   20.9923 C   0  0  0  0  0  0
  -25.2537  -13.8187   20.5652 C   0  0  0  0  0  0
  -24.1810  -13.0442   20.9167 C   0  0  0  0  0  0
  -24.6384  -11.6916   20.8713 C   0  0  0  0  0  0
  -23.9064  -10.4294   21.0400 C   0  0  0  0  0  0
  -24.3616   -9.4213   21.9182 C   0  0  0  0  0  0
  -23.6306   -8.2243   22.0763 C   0  0  0  0  0  0
  -22.4278   -8.0283   21.3556 C   0  0  0  0  0  0
  -21.9905   -9.0248   20.4665 C   0  0  0  0  0  0
  -22.7227  -10.2127   20.3065 C   0  0  0  0  0  0
  -21.6857   -6.0746   22.5279 C   0  0  0  0  0  0
  -21.4018   -6.5646   23.8209 C   0  0  0  0  0  0
  -21.3648   -5.6793   24.9165 C   0  0  0  0  0  0
  -21.6043   -4.3050   24.7216 C   0  0  0  0  0  0
  -21.8812   -3.8158   23.4328 C   0  0  0  0  0  0
  -21.9189   -4.6979   22.3392 C   0  0  0  0  0  0
  -22.7831  -13.5238   21.1817 C   0  0  0  0  0  0
  -22.1661   -4.2161   21.0969 F   0  0  0  0  0  0
  -21.5625   -3.4545   25.7738 F   0  0  0  0  0  0
  -30.0131  -13.3621   20.4266 N   0  0  0  0  0  0
  -26.2970  -12.9376   20.3278 N   0  0  0  0  0  0
  -25.9314  -11.6522   20.5730 N   0  0  0  0  0  0
  -22.0453  -12.8260   22.0383 N   0  0  0  0  0  0
  -25.4263  -15.1920   20.4053 N   0  0  0  0  0  0
  -31.8521  -14.6555   20.1352 O   0  0  0  0  0  0
  -21.6644   -6.8886   21.4247 O   0  0  0  0  0  0
  -22.3504  -14.5527   20.6644 O   0  0  0  0  0  0
  -24.6188  -31.8679   23.2073 C   0  0  0  0  0  0
  -25.9068  -32.4826   23.8392 C   0  0  1  0  0  0
  -27.2187  -27.3819   20.1144 C   0  0  0  0  0  0
  -25.5906  -33.8621   24.2311 N   0  0  0  0  0  0
  -23.4089  -30.4930   21.5491 C   0  0  2  0  0  0
  -24.8549  -28.9576   20.1145 C   0  0  0  0  0  0
  -22.7433  -29.4668   22.4963 C   0  0  0  0  0  0
  -18.0281  -28.1373   22.8496 C   0  0  0  0  0  0
  -24.1496  -36.7296   23.2638 C   0  0  0  0  0  0
  -25.9458  -30.8182   21.3725 C   0  0  0  0  0  0
  -26.0198  -29.4512   20.7144 C   0  0  0  0  0  0
  -27.2078  -28.6734   20.7063 C   0  0  0  0  0  0
  -26.0374  -26.9267   19.4901 C   0  0  0  0  0  0
  -24.8614  -27.6967   19.4980 C   0  0  0  0  0  0
  -23.6196  -29.8294   20.1630 C   0  0  0  0  0  0
  -25.4116  -36.3103   24.0333 C   0  0  1  0  0  0
  -20.5874  -28.3670   23.1302 C   0  0  2  0  0  0
  -20.6776  -26.9401   22.5413 C   0  0  0  0  0  0
  -19.5750  -26.6383   21.5215 C   0  0  0  0  0  0
  -18.1923  -26.7921   22.1624 C   0  0  0  0  0  0
  -19.1529  -28.8836   23.2899 C   0  0  0  0  0  0
  -18.9450  -30.1436   23.8920 C   0  0  0  0  0  0
  -17.6455  -30.6586   24.0557 C   0  0  0  0  0  0
  -25.9040  -34.9479   23.5117 C   0  0  0  0  0  0
  -16.5350  -29.9083   23.6327 C   0  0  0  0  0  0
  -16.7272  -28.6494   23.0363 C   0  0  0  0  0  0
  -26.4463  -31.6626   25.0745 C   0  0  0  0  0  0
  -25.3702  -31.3764   26.1475 C   0  0  0  0  0  0
  -27.0288  -30.3057   24.6176 C   0  0  0  0  0  0
  -27.6051  -32.4346   25.7489 C   0  0  0  0  0  0
  -27.5587  -37.1795   24.8454 C   0  0  0  0  0  0
  -21.4155  -29.3040   22.3701 N   0  0  0  0  0  0
  -26.4294  -37.3790   23.9410 N   0  0  0  0  0  0
  -24.6760  -31.0746   22.1004 N   0  0  0  0  0  0
  -23.4191  -28.8215   23.3021 O   0  0  0  0  0  0
  -28.3531  -26.5819   20.1269 O   0  0  0  0  0  0
  -26.5607  -34.8935   22.4681 O   0  0  0  0  0  0
  -23.5365  -32.1449   23.7436 O   0  0  0  0  0  0
  -29.7133  -19.4004   20.0886 C   0  0  0  0  0  0
  -29.6733  -18.2424   20.8442 C   0  0  0  0  0  0
  -28.2023  -19.7313   21.6669 C   0  0  0  0  0  0
  -27.7683  -20.7270   23.9469 C   0  0  0  0  0  0
  -31.4181  -25.9396   20.0844 C   0  0  0  0  0  0
  -30.5674  -17.0060   20.8174 C   0  0  0  0  0  0
  -27.1790  -20.3232   22.5891 C   0  0  0  0  0  0
  -30.6642  -24.9916   21.0286 C   0  0  0  0  0  0
  -29.3187  -22.8222   20.9628 C   0  0  0  0  0  0
  -28.5775  -21.7177   20.1447 C   0  0  0  0  0  0
  -28.1746  -25.1839   20.5104 C   0  0  0  0  0  0
  -29.4504  -24.2824   20.3716 C   0  0  1  0  0  0
  -28.8254  -20.3148   20.6224 N   0  0  0  0  0  0
  -28.7151  -18.4931   21.7944 N   0  3  0  0  0  0
  -29.9766  -15.6460   20.8713 N   0  0  0  0  0  0
  -31.4658  -12.4228   19.1580 H   0  0  0  0  0  0
  -30.3104  -11.3421   19.8785 H   0  0  0  0  0  0
  -29.7568  -11.7563   17.4565 H   0  0  0  0  0  0
  -29.6667  -13.4724   17.7541 H   0  0  0  0  0  0
  -27.8444  -11.3009   18.8471 H   0  0  0  0  0  0
  -27.3745  -12.5989   17.7847 H   0  0  0  0  0  0
  -27.6774  -14.2564   19.5251 H   0  0  0  0  0  0
  -28.6753  -12.0501   21.3944 H   0  0  0  0  0  0
  -28.4520  -13.7232   21.8277 H   0  0  0  0  0  0
  -25.2770   -9.5701   22.4745 H   0  0  0  0  0  0
  -24.0021   -7.4641   22.7485 H   0  0  0  0  0  0
  -21.0839   -8.8776   19.8974 H   0  0  0  0  0  0
  -22.3706  -10.9663   19.6171 H   0  0  0  0  0  0
  -21.2028   -7.6155   23.9714 H   0  0  0  0  0  0
  -21.1475   -6.0525   25.9068 H   0  0  0  0  0  0
  -22.0608   -2.7626   23.2816 H   0  0  0  0  0  0
  -22.4085  -11.9945   22.4805 H   0  0  0  0  0  0
  -21.1078  -13.1306   22.2582 H   0  0  0  0  0  0
  -24.6518  -15.8424   20.4896 H   0  0  0  0  0  0
  -26.2645  -15.6232   20.0378 H   0  0  0  0  0  0
  -26.7152  -32.5509   23.1160 H   0  0  0  0  0  0
  -25.0057  -33.9792   25.0458 H   0  0  0  0  0  0
  -22.6996  -31.3112   21.4092 H   0  0  0  0  0  0
  -23.3769  -35.9612   23.3291 H   0  0  0  0  0  0
  -24.3600  -36.8923   22.2054 H   0  0  0  0  0  0
  -23.7247  -37.6493   23.6668 H   0  0  0  0  0  0
  -26.0768  -31.5872   20.6092 H   0  0  0  0  0  0
  -26.8254  -30.8604   22.0027 H   0  0  0  0  0  0
  -28.1050  -29.0484   21.1793 H   0  0  0  0  0  0
  -26.0074  -25.9754   18.9822 H   0  0  0  0  0  0
  -23.9684  -27.3115   19.0265 H   0  0  0  0  0  0
  -23.7352  -30.6072   19.4070 H   0  0  0  0  0  0
  -22.7412  -29.2547   19.8630 H   0  0  0  0  0  0
  -25.1295  -36.1954   25.0824 H   0  0  0  0  0  0
  -20.9977  -28.3247   24.1416 H   0  0  0  0  0  0
  -20.5696  -26.2273   23.3602 H   0  0  0  0  0  0
  -21.6646  -26.7451   22.1200 H   0  0  0  0  0  0
  -19.6910  -25.6294   21.1245 H   0  0  0  0  0  0
  -19.6692  -27.3198   20.6748 H   0  0  0  0  0  0
  -17.4199  -26.6686   21.4017 H   0  0  0  0  0  0
  -18.0311  -26.0056   22.9015 H   0  0  0  0  0  0
  -19.7924  -30.7236   24.2317 H   0  0  0  0  0  0
  -17.5013  -31.6275   24.5140 H   0  0  0  0  0  0
  -15.5352  -30.2991   23.7632 H   0  0  0  0  0  0
  -15.8673  -28.0811   22.7086 H   0  0  0  0  0  0
  -24.5851  -30.7151   25.7792 H   0  0  0  0  0  0
  -24.8914  -32.2934   26.4927 H   0  0  0  0  0  0
  -25.8007  -30.8912   27.0241 H   0  0  0  0  0  0
  -26.2851  -29.6834   24.1186 H   0  0  0  0  0  0
  -27.3976  -29.7298   25.4671 H   0  0  0  0  0  0
  -27.8730  -30.4346   23.9396 H   0  0  0  0  0  0
  -27.2691  -33.3641   26.2095 H   0  0  0  0  0  0
  -28.3828  -32.6919   25.0289 H   0  0  0  0  0  0
  -28.0762  -31.8463   26.5370 H   0  0  0  0  0  0
  -28.2584  -38.0112   24.7535 H   0  0  0  0  0  0
  -28.1106  -36.2650   24.6229 H   0  0  0  0  0  0
  -27.2312  -37.1386   25.8856 H   0  0  0  0  0  0
  -20.9310  -29.8742   21.6906 H   0  0  0  0  0  0
  -26.0176  -38.2858   24.1428 H   0  0  0  0  0  0
  -30.3386  -19.6521   19.2421 H   0  0  0  0  0  0
  -26.9955  -21.1360   24.5968 H   0  0  0  0  0  0
  -28.5451  -21.4846   23.8339 H   0  0  0  0  0  0
  -28.2111  -19.8721   24.4579 H   0  0  0  0  0  0
  -32.2397  -26.4282   20.6082 H   0  0  0  0  0  0
  -30.7781  -26.7245   19.6836 H   0  0  0  0  0  0
  -31.8434  -25.3927   19.2424 H   0  0  0  0  0  0
  -31.2651  -17.0932   21.6524 H   0  0  0  0  0  0
  -31.1789  -17.0869   19.9173 H   0  0  0  0  0  0
  -26.4001  -19.5707   22.7174 H   0  0  0  0  0  0
  -26.7136  -21.1776   22.1010 H   0  0  0  0  0  0
  -30.3385  -25.5342   21.9178 H   0  0  0  0  0  0
  -31.3950  -24.2684   21.3913 H   0  0  0  0  0  0
  -30.3241  -22.4227   21.0997 H   0  0  0  0  0  0
  -28.8974  -22.8846   21.9651 H   0  0  0  0  0  0
  -28.9024  -21.7571   19.1040 H   0  0  0  0  0  0
  -27.5026  -21.8990   20.1286 H   0  0  0  0  0  0
  -27.8476  -25.1736   21.5520 H   0  0  0  0  0  0
  -27.3811  -24.7001   19.9430 H   0  0  0  0  0  0
  -29.6712  -24.1719   19.3084 H   0  0  0  0  0  0
  -28.4592  -17.8551   22.5386 H   0  0  0  0  0  0
  -29.0080  -15.5403   21.1248 H   0  0  0  0  0  0
  1 25  1  0  0  0
  1 30  2  0  0  0
  1 85  1  0  0  0
  2  3  1  0  0  0
  2 25  1  0  0  0
  2 86  1  0  0  0
  2 87  1  0  0  0
  3  4  1  0  0  0
  3 88  1  0  0  0
  3 89  1  0  0  0
  4  5  1  0  0  0
  4 90  1  0  0  0
  4 91  1  0  0  0
  5  6  1  0  0  0
  5 26  1  0  0  0
  5 92  1  0  0  0
  6 25  1  0  0  0
  6 93  1  0  0  0
  6 94  1  0  0  0
  7  8  2  0  0  0
  7 26  1  0  0  0
  7 29  1  0  0  0
  8  9  1  0  0  0
  8 22  1  0  0  0
  9 10  1  0  0  0
  9 27  2  0  0  0
 10 11  2  0  0  0
 10 15  1  0  0  0
 11 12  1  0  0  0
 11 95  1  0  0  0
 12 13  2  0  0  0
 12 96  1  0  0  0
 13 14  1  0  0  0
 13 31  1  0  0  0
 14 15  2  0  0  0
 14 97  1  0  0  0
 15 98  1  0  0  0
 16 17  2  0  0  0
 16 21  1  0  0  0
 16 31  1  0  0  0
 17 18  1  0  0  0
 17 99  1  0  0  0
 18 19  2  0  0  0
 18100  1  0  0  0
 19 20  1  0  0  0
 19 24  1  0  0  0
 20 21  2  0  0  0
 20101  1  0  0  0
 21 23  1  0  0  0
 22 28  1  0  0  0
 22 32  2  0  0  0
 26 27  1  0  0  0
 28102  1  0  0  0
 28103  1  0  0  0
 29104  1  0  0  0
 29105  1  0  0  0
 33 34  1  0  0  0
 33 66  1  0  0  0
 33 70  2  0  0  0
 34 36  1  0  0  0
 34 59  1  0  0  0
 34106  1  0  0  0
 35 44  2  0  0  0
 35 45  1  0  0  0
 35 68  1  0  0  0
 36 56  1  0  0  0
 36107  1  0  0  0
 37 39  1  0  0  0
 37 47  1  0  0  0
 37 66  1  0  0  0
 37108  1  0  0  0
 38 43  2  0  0  0
 38 46  1  0  0  0
 38 47  1  0  0  0
 39 64  1  0  0  0
 39 67  2  0  0  0
 40 52  1  0  0  0
 40 53  2  0  0  0
 40 58  1  0  0  0
 41109  1  0  0  0
 41110  1  0  0  0
 41111  1  0  0  0
 41 48  1  0  0  0
 42 43  1  0  0  0
 42 66  1  0  0  0
 42112  1  0  0  0
 42113  1  0  0  0
 43 44  1  0  0  0
 44114  1  0  0  0
 45 46  2  0  0  0
 45115  1  0  0  0
 46116  1  0  0  0
 47117  1  0  0  0
 47118  1  0  0  0
 48 56  1  0  0  0
 48 65  1  0  0  0
 48119  1  0  0  0
 49 50  1  0  0  0
 49 53  1  0  0  0
 49 64  1  0  0  0
 49120  1  0  0  0
 50 51  1  0  0  0
 50121  1  0  0  0
 50122  1  0  0  0
 51 52  1  0  0  0
 51123  1  0  0  0
 51124  1  0  0  0
 52125  1  0  0  0
 52126  1  0  0  0
 53 54  1  0  0  0
 54 55  2  0  0  0
 54127  1  0  0  0
 55 57  1  0  0  0
 55128  1  0  0  0
 56 69  2  0  0  0
 57 58  2  0  0  0
 57129  1  0  0  0
 58130  1  0  0  0
 59 60  1  0  0  0
 59 61  1  0  0  0
 59 62  1  0  0  0
 60131  1  0  0  0
 60132  1  0  0  0
 60133  1  0  0  0
 61134  1  0  0  0
 61135  1  0  0  0
 61136  1  0  0  0
 62137  1  0  0  0
 62138  1  0  0  0
 62139  1  0  0  0
 63 65  1  0  0  0
 63140  1  0  0  0
 63141  1  0  0  0
 63142  1  0  0  0
 64143  1  0  0  0
 65144  1  0  0  0
 68 81  1  0  0  0
 71 72  2  0  0  0
 71 83  1  0  0  0
 71145  1  0  0  0
 72 76  1  0  0  0
 72 84  1  0  0  0
 73 77  1  0  0  0
 73 83  1  0  0  0
 73 84  2  0  0  0
 74 77  1  0  0  0
 74146  1  0  0  0
 74147  1  0  0  0
 74148  1  0  0  0
 75 78  1  0  0  0
 75149  1  0  0  0
 75150  1  0  0  0
 75151  1  0  0  0
 76 85  1  0  0  0
 76152  1  0  0  0
 76153  1  0  0  0
 77154  1  0  0  0
 77155  1  0  0  0
 78156  1  0  0  0
 78157  1  0  0  0
 78 82  1  0  0  0
 79 80  1  0  0  0
 79 82  1  0  0  0
 79158  1  0  0  0
 79159  1  0  0  0
 80 83  1  0  0  0
 80160  1  0  0  0
 80161  1  0  0  0
 81 82  1  0  0  0
 81162  1  0  0  0
 81163  1  0  0  0
 82164  1  0  0  0
 84165  1  0  0  0
 85166  1  0  0  0
M  CHG  1  84   1
M  ISO  4   1 100  68 101  81 101  85 100
M  END
> <chiral flag>
0

> <version>
0

> <s_m_source_file>
/data/baiqing/PycharmProjects/Reinvent-master-3.2/result/LINK_invent/BTK/process_docking_weight1_custom_sum_contain_oxygen_bond_distance_aromatic_linkinvent_7_9_3/rearranged_h_0097.sdf

> <i_m_source_file_index>
83

> <r_mmod_Potential_Energy-OPLS-2005>
-129.545211791992

> <r_mmod_Stretch_Energy-OPLS-2005>
50.0095291137695

> <r_mmod_Bend_Energy-OPLS-2005>
113.650360107422

> <r_mmod_Torsional_Energy-OPLS-2005>
247.929153442383

> <r_mmod_Improper_Torsional_Energy-OPLS-2005>
5.05303382873535

> <r_mmod_Van_der_Waal_Energy-OPLS-2005>
124.391860961914

> <r_mmod_Electrostatic_Energy-OPLS-2005>
-272.659576416016

> <r_mmod_Solvation_Energy-OPLS-2005>
-424.347259521484

> <b_mmod_Minimization_Converged-OPLS-2005>
0

> <r_mmod_RMS_Derivative-OPLS-2005>
2.4639253616333

$$$$
84
                    3D
 Structure written by MMmdl.
177185  0  0  1  0            999 V2000
  -31.0493  -14.2206   20.1844 C   0  0  0  0  0  0
  -30.3396  -12.0854   19.2898 C   0  0  0  0  0  0
  -29.4177  -12.3994   18.1072 C   0  0  0  0  0  0
  -27.9628  -12.3786   18.5940 C   0  0  0  0  0  0
  -27.7061  -13.2279   19.8731 C   0  0  2  0  0  0
  -28.8566  -13.0878   20.9293 C   0  0  0  0  0  0
  -25.2866  -13.8187   20.5891 C   0  0  0  0  0  0
  -24.2084  -13.0454   20.9285 C   0  0  0  0  0  0
  -24.6652  -11.6918   20.8828 C   0  0  0  0  0  0
  -23.9244  -10.4300   21.0441 C   0  0  0  0  0  0
  -24.3702   -9.4176   21.9230 C   0  0  0  0  0  0
  -23.6361   -8.2222   22.0750 C   0  0  0  0  0  0
  -22.4338   -8.0320   21.3530 C   0  0  0  0  0  0
  -22.0031   -9.0331   20.4634 C   0  0  0  0  0  0
  -22.7389  -10.2201   20.3093 C   0  0  0  0  0  0
  -21.6830   -6.0811   22.5283 C   0  0  0  0  0  0
  -21.4016   -6.5694   23.8235 C   0  0  0  0  0  0
  -21.3641   -5.6822   24.9175 C   0  0  0  0  0  0
  -21.6011   -4.3089   24.7208 C   0  0  0  0  0  0
  -21.8790   -3.8208   23.4333 C   0  0  0  0  0  0
  -21.9190   -4.7036   22.3409 C   0  0  0  0  0  0
  -22.8044  -13.5220   21.1809 C   0  0  0  0  0  0
  -22.1663   -4.2223   21.0975 F   0  0  0  0  0  0
  -21.5646   -3.4556   25.7725 F   0  0  0  0  0  0
  -30.1693  -13.1824   20.2321 N   0  0  0  0  0  0
  -26.3496  -12.9480   20.3837 N   0  0  0  0  0  0
  -25.9683  -11.6588   20.6151 N   0  0  0  0  0  0
  -22.0653  -12.8232   22.0319 N   0  0  0  0  0  0
  -25.4472  -15.1896   20.4142 N   0  0  0  0  0  0
  -31.2355  -15.0466   21.0299 O   0  0  0  0  0  0
  -21.6633   -6.8962   21.4252 O   0  0  0  0  0  0
  -22.3732  -14.5521   20.6624 O   0  0  0  0  0  0
  -24.6101  -31.8703   23.2151 C   0  0  0  0  0  0
  -25.9031  -32.4837   23.8410 C   0  0  1  0  0  0
  -27.2429  -27.4696   20.0422 C   0  0  0  0  0  0
  -25.5919  -33.8639   24.2359 N   0  0  0  0  0  0
  -23.3961  -30.4962   21.5570 C   0  0  2  0  0  0
  -24.8395  -28.9627   20.1189 C   0  0  0  0  0  0
  -22.7395  -29.4696   22.5045 C   0  0  0  0  0  0
  -18.0265  -28.1375   22.8507 C   0  0  0  0  0  0
  -24.1483  -36.7308   23.2633 C   0  0  0  0  0  0
  -25.9250  -30.8325   21.3713 C   0  0  0  0  0  0
  -25.9990  -29.4689   20.7188 C   0  0  0  0  0  0
  -27.1951  -28.7207   20.6954 C   0  0  0  0  0  0
  -26.0560  -26.9597   19.4651 C   0  0  0  0  0  0
  -24.8600  -27.6986   19.5031 C   0  0  0  0  0  0
  -23.6001  -29.8283   20.1703 C   0  0  0  0  0  0
  -25.4110  -36.3133   24.0348 C   0  0  1  0  0  0
  -20.5851  -28.3645   23.1333 C   0  0  2  0  0  0
  -20.6755  -26.9391   22.5413 C   0  0  0  0  0  0
  -19.5744  -26.6382   21.5210 C   0  0  0  0  0  0
  -18.1920  -26.7921   22.1630 C   0  0  0  0  0  0
  -19.1514  -28.8840   23.2917 C   0  0  0  0  0  0
  -18.9438  -30.1445   23.8923 C   0  0  0  0  0  0
  -17.6442  -30.6581   24.0564 C   0  0  0  0  0  0
  -25.9033  -34.9495   23.5142 C   0  0  0  0  0  0
  -16.5336  -29.9086   23.6321 C   0  0  0  0  0  0
  -16.7259  -28.6503   23.0354 C   0  0  0  0  0  0
  -26.4452  -31.6619   25.0737 C   0  0  0  0  0  0
  -25.3709  -31.3725   26.1479 C   0  0  0  0  0  0
  -27.0269  -30.3063   24.6114 C   0  0  0  0  0  0
  -27.6047  -32.4324   25.7492 C   0  0  0  0  0  0
  -27.5603  -37.1795   24.8464 C   0  0  0  0  0  0
  -21.4129  -29.3025   22.3762 N   0  0  0  0  0  0
  -26.4296  -37.3826   23.9430 N   0  0  0  0  0  0
  -24.6630  -31.0816   22.1053 N   0  0  0  0  0  0
  -23.4186  -28.8240   23.3086 O   0  0  0  0  0  0
  -28.4515  -26.8060   19.9947 O   0  0  0  0  0  0
  -26.5600  -34.8945   22.4700 O   0  0  0  0  0  0
  -23.5299  -32.1498   23.7539 O   0  0  0  0  0  0
  -33.2901  -20.2665   20.9718 C   0  0  0  0  0  0
  -31.3199  -20.7661   19.6511 C   0  0  0  0  0  0
  -32.3082  -19.8335   20.0575 C   0  0  0  0  0  0
  -33.2696  -21.5979   21.4161 C   0  0  0  0  0  0
  -31.4412  -22.1150   20.0815 C   0  0  0  0  0  0
  -34.2394  -22.0797   22.4753 C   0  0  0  0  0  0
  -30.4166  -20.3598   17.2727 C   0  0  0  0  0  0
  -28.3210  -24.8373   22.3864 C   0  0  0  0  0  0
  -30.1507  -20.2953   18.7828 C   0  0  0  0  0  0
  -30.5939  -23.2564   19.5165 C   0  0  0  0  0  0
  -29.5761  -24.4101   21.6008 C   0  0  0  0  0  0
  -33.3789  -16.3603   19.3923 C   0  0  0  0  0  0
  -28.3085  -24.3826   19.3536 C   0  0  0  0  0  0
  -32.2656  -15.6790   18.5385 C   0  0  0  0  0  0
  -33.4640  -17.8904   19.1800 C   0  0  0  0  0  0
  -28.6805  -25.8382   18.9658 C   0  0  0  0  0  0
  -29.2971  -23.6339   20.2901 C   0  0  1  0  0  0
  -32.3912  -22.5081   20.9561 N   0  0  0  0  0  0
  -31.7229  -14.3951   19.0305 N   0  0  0  0  0  0
  -32.2510  -18.5276   19.6116 O   0  0  0  0  0  0
  -31.3718  -11.9315   18.9626 H   0  0  0  0  0  0
  -30.0604  -11.1402   19.7584 H   0  0  0  0  0  0
  -29.5490  -11.6556   17.3155 H   0  0  0  0  0  0
  -29.6416  -13.3711   17.6669 H   0  0  0  0  0  0
  -27.6950  -11.3368   18.7739 H   0  0  0  0  0  0
  -27.2987  -12.7162   17.7956 H   0  0  0  0  0  0
  -27.7275  -14.2691   19.5489 H   0  0  0  0  0  0
  -28.7945  -12.1323   21.4466 H   0  0  0  0  0  0
  -28.7701  -13.8600   21.6946 H   0  0  0  0  0  0
  -25.2825   -9.5640   22.4845 H   0  0  0  0  0  0
  -24.0018   -7.4598   22.7480 H   0  0  0  0  0  0
  -21.0975   -8.8900   19.8944 H   0  0  0  0  0  0
  -22.3857  -10.9787   19.6246 H   0  0  0  0  0  0
  -21.1974   -7.6184   23.9771 H   0  0  0  0  0  0
  -21.1512   -6.0544   25.9083 H   0  0  0  0  0  0
  -22.0581   -2.7681   23.2795 H   0  0  0  0  0  0
  -22.4233  -11.9895   22.4708 H   0  0  0  0  0  0
  -21.1279  -13.1304   22.2492 H   0  0  0  0  0  0
  -24.6761  -15.8403   20.5198 H   0  0  0  0  0  0
  -26.3140  -15.6346   20.1359 H   0  0  0  0  0  0
  -26.7117  -32.5552   23.1172 H   0  0  0  0  0  0
  -25.0075  -33.9820   25.0515 H   0  0  0  0  0  0
  -22.6834  -31.3123   21.4209 H   0  0  0  0  0  0
  -23.3768  -35.9606   23.3282 H   0  0  0  0  0  0
  -24.3586  -36.8928   22.2047 H   0  0  0  0  0  0
  -23.7176  -37.6494   23.6638 H   0  0  0  0  0  0
  -26.0433  -31.6007   20.6059 H   0  0  0  0  0  0
  -26.8112  -30.8802   21.9922 H   0  0  0  0  0  0
  -28.0934  -29.1119   21.1535 H   0  0  0  0  0  0
  -26.0373  -25.9989   18.9738 H   0  0  0  0  0  0
  -23.9673  -27.2986   19.0439 H   0  0  0  0  0  0
  -23.7062  -30.6037   19.4107 H   0  0  0  0  0  0
  -22.7196  -29.2494   19.8773 H   0  0  0  0  0  0
  -25.1255  -36.2007   25.0836 H   0  0  0  0  0  0
  -20.9948  -28.3206   24.1462 H   0  0  0  0  0  0
  -20.5657  -26.2268   23.3595 H   0  0  0  0  0  0
  -21.6622  -26.7443   22.1211 H   0  0  0  0  0  0
  -19.6894  -25.6301   21.1235 H   0  0  0  0  0  0
  -19.6666  -27.3200   20.6748 H   0  0  0  0  0  0
  -17.4178  -26.6674   21.4043 H   0  0  0  0  0  0
  -18.0332  -26.0054   22.9025 H   0  0  0  0  0  0
  -19.7920  -30.7245   24.2321 H   0  0  0  0  0  0
  -17.5001  -31.6267   24.5141 H   0  0  0  0  0  0
  -15.5355  -30.2979   23.7629 H   0  0  0  0  0  0
  -15.8669  -28.0812   22.7060 H   0  0  0  0  0  0
  -24.5889  -30.7064   25.7820 H   0  0  0  0  0  0
  -24.8866  -32.2868   26.4920 H   0  0  0  0  0  0
  -25.8036  -30.8904   27.0252 H   0  0  0  0  0  0
  -26.2820  -29.6862   24.1109 H   0  0  0  0  0  0
  -27.3982  -29.7263   25.4575 H   0  0  0  0  0  0
  -27.8683  -30.4392   23.9309 H   0  0  0  0  0  0
  -27.2692  -33.3613   26.2109 H   0  0  0  0  0  0
  -28.3819  -32.6897   25.0290 H   0  0  0  0  0  0
  -28.0749  -31.8417   26.5361 H   0  0  0  0  0  0
  -28.2579  -38.0142   24.7599 H   0  0  0  0  0  0
  -28.1145  -36.2676   24.6162 H   0  0  0  0  0  0
  -27.2344  -37.1297   25.8874 H   0  0  0  0  0  0
  -20.9301  -29.8749   21.6963 H   0  0  0  0  0  0
  -26.0191  -38.2900   24.1472 H   0  0  0  0  0  0
  -34.0198  -19.5792   21.3724 H   0  0  0  0  0  0
  -34.6500  -21.2455   23.0469 H   0  0  0  0  0  0
  -33.7252  -22.7348   23.1786 H   0  0  0  0  0  0
  -35.0674  -22.6289   22.0275 H   0  0  0  0  0  0
  -29.5981  -19.8784   16.7325 H   0  0  0  0  0  0
  -31.3410  -19.8477   17.0072 H   0  0  0  0  0  0
  -30.4777  -21.3869   16.9109 H   0  0  0  0  0  0
  -28.6029  -25.4369   23.2509 H   0  0  0  0  0  0
  -27.7520  -23.9807   22.7424 H   0  0  0  0  0  0
  -27.6354  -25.4467   21.7989 H   0  0  0  0  0  0
  -29.2507  -20.8660   19.0147 H   0  0  0  0  0  0
  -29.9093  -19.2688   19.0568 H   0  0  0  0  0  0
  -30.3512  -22.9990   18.4891 H   0  0  0  0  0  0
  -31.2336  -24.1378   19.4313 H   0  0  0  0  0  0
  -30.1961  -23.7985   22.2609 H   0  0  0  0  0  0
  -30.1683  -25.2977   21.3743 H   0  0  0  0  0  0
  -34.3455  -15.9169   19.1467 H   0  0  0  0  0  0
  -33.2575  -16.1783   20.4598 H   0  0  0  0  0  0
  -28.2281  -23.8128   18.4270 H   0  0  0  0  0  0
  -27.3059  -24.3528   19.7736 H   0  0  0  0  0  0
  -32.6439  -15.5181   17.5284 H   0  0  0  0  0  0
  -31.4195  -16.3618   18.4347 H   0  0  0  0  0  0
  -33.6298  -18.1079   18.1214 H   0  0  0  0  0  0
  -34.3423  -18.2626   19.7046 H   0  0  0  0  0  0
  -28.1586  -26.1277   18.0514 H   0  0  0  0  0  0
  -29.7373  -25.8825   18.7049 H   0  0  0  0  0  0
  -28.8052  -22.6955   20.5544 H   0  0  0  0  0  0
  -31.5902  -13.6576   18.3476 H   0  0  0  0  0  0
  1 25  1  0  0  0
  1 30  2  0  0  0
  1 89  1  0  0  0
  2  3  1  0  0  0
  2 25  1  0  0  0
  2 91  1  0  0  0
  2 92  1  0  0  0
  3  4  1  0  0  0
  3 93  1  0  0  0
  3 94  1  0  0  0
  4  5  1  0  0  0
  4 95  1  0  0  0
  4 96  1  0  0  0
  5  6  1  0  0  0
  5 26  1  0  0  0
  5 97  1  0  0  0
  6 25  1  0  0  0
  6 98  1  0  0  0
  6 99  1  0  0  0
  7  8  2  0  0  0
  7 26  1  0  0  0
  7 29  1  0  0  0
  8  9  1  0  0  0
  8 22  1  0  0  0
  9 10  1  0  0  0
  9 27  2  0  0  0
 10 11  2  0  0  0
 10 15  1  0  0  0
 11 12  1  0  0  0
 11100  1  0  0  0
 12 13  2  0  0  0
 12101  1  0  0  0
 13 14  1  0  0  0
 13 31  1  0  0  0
 14 15  2  0  0  0
 14102  1  0  0  0
 15103  1  0  0  0
 16 17  2  0  0  0
 16 21  1  0  0  0
 16 31  1  0  0  0
 17 18  1  0  0  0
 17104  1  0  0  0
 18 19  2  0  0  0
 18105  1  0  0  0
 19 20  1  0  0  0
 19 24  1  0  0  0
 20 21  2  0  0  0
 20106  1  0  0  0
 21 23  1  0  0  0
 22 28  1  0  0  0
 22 32  2  0  0  0
 26 27  1  0  0  0
 28107  1  0  0  0
 28108  1  0  0  0
 29109  1  0  0  0
 29110  1  0  0  0
 33 34  1  0  0  0
 33 66  1  0  0  0
 33 70  2  0  0  0
 34 36  1  0  0  0
 34 59  1  0  0  0
 34111  1  0  0  0
 35 44  2  0  0  0
 35 45  1  0  0  0
 35 68  1  0  0  0
 36 56  1  0  0  0
 36112  1  0  0  0
 37 39  1  0  0  0
 37 47  1  0  0  0
 37 66  1  0  0  0
 37113  1  0  0  0
 38 43  2  0  0  0
 38 46  1  0  0  0
 38 47  1  0  0  0
 39 64  1  0  0  0
 39 67  2  0  0  0
 40 52  1  0  0  0
 40 53  2  0  0  0
 40 58  1  0  0  0
 41114  1  0  0  0
 41115  1  0  0  0
 41116  1  0  0  0
 41 48  1  0  0  0
 42 43  1  0  0  0
 42 66  1  0  0  0
 42117  1  0  0  0
 42118  1  0  0  0
 43 44  1  0  0  0
 44119  1  0  0  0
 45 46  2  0  0  0
 45120  1  0  0  0
 46121  1  0  0  0
 47122  1  0  0  0
 47123  1  0  0  0
 48 56  1  0  0  0
 48 65  1  0  0  0
 48124  1  0  0  0
 49 50  1  0  0  0
 49 53  1  0  0  0
 49 64  1  0  0  0
 49125  1  0  0  0
 50 51  1  0  0  0
 50126  1  0  0  0
 50127  1  0  0  0
 51 52  1  0  0  0
 51128  1  0  0  0
 51129  1  0  0  0
 52130  1  0  0  0
 52131  1  0  0  0
 53 54  1  0  0  0
 54 55  2  0  0  0
 54132  1  0  0  0
 55 57  1  0  0  0
 55133  1  0  0  0
 56 69  2  0  0  0
 57 58  2  0  0  0
 57134  1  0  0  0
 58135  1  0  0  0
 59 60  1  0  0  0
 59 61  1  0  0  0
 59 62  1  0  0  0
 60136  1  0  0  0
 60137  1  0  0  0
 60138  1  0  0  0
 61139  1  0  0  0
 61140  1  0  0  0
 61141  1  0  0  0
 62142  1  0  0  0
 62143  1  0  0  0
 62144  1  0  0  0
 63 65  1  0  0  0
 63145  1  0  0  0
 63146  1  0  0  0
 63147  1  0  0  0
 64148  1  0  0  0
 65149  1  0  0  0
 68 86  1  0  0  0
 71 73  2  0  0  0
 71 74  1  0  0  0
 71150  1  0  0  0
 72 73  1  0  0  0
 72 75  2  0  0  0
 72 79  1  0  0  0
 73 90  1  0  0  0
 74 76  1  0  0  0
 74 88  2  0  0  0
 75 80  1  0  0  0
 75 88  1  0  0  0
 76151  1  0  0  0
 76152  1  0  0  0
 76153  1  0  0  0
 77 79  1  0  0  0
 77154  1  0  0  0
 77155  1  0  0  0
 77156  1  0  0  0
 78 81  1  0  0  0
 78157  1  0  0  0
 78158  1  0  0  0
 78159  1  0  0  0
 79160  1  0  0  0
 79161  1  0  0  0
 80162  1  0  0  0
 80163  1  0  0  0
 80 87  1  0  0  0
 81 87  1  0  0  0
 81164  1  0  0  0
 81165  1  0  0  0
 82 84  1  0  0  0
 82 85  1  0  0  0
 82166  1  0  0  0
 82167  1  0  0  0
 83 86  1  0  0  0
 83 87  1  0  0  0
 83168  1  0  0  0
 83169  1  0  0  0
 84 89  1  0  0  0
 84170  1  0  0  0
 84171  1  0  0  0
 85 90  1  0  0  0
 85172  1  0  0  0
 85173  1  0  0  0
 86174  1  0  0  0
 86175  1  0  0  0
 87176  1  0  0  0
 89177  1  0  0  0
M  ISO  4   1 100  68 101  86 101  89 100
M  END
> <chiral flag>
0

> <version>
0

> <s_m_source_file>
/data/baiqing/PycharmProjects/Reinvent-master-3.2/result/LINK_invent/BTK/process_docking_weight1_custom_sum_contain_oxygen_bond_distance_aromatic_linkinvent_7_9_3/rearranged_h_0097.sdf

> <i_m_source_file_index>
84

> <r_mmod_Potential_Energy-OPLS-2005>
58.5023193359375

> <r_mmod_Stretch_Energy-OPLS-2005>
47.1833229064941

> <r_mmod_Bend_Energy-OPLS-2005>
132.970367431641

> <r_mmod_Torsional_Energy-OPLS-2005>
244.354446411133

> <r_mmod_Improper_Torsional_Energy-OPLS-2005>
3.64476132392883

> <r_mmod_Van_der_Waal_Energy-OPLS-2005>
167.250549316406

> <r_mmod_Electrostatic_Energy-OPLS-2005>
-517.138549804688

> <r_mmod_Solvation_Energy-OPLS-2005>
-222.458618164062

> <b_mmod_Minimization_Converged-OPLS-2005>
0

> <r_mmod_RMS_Derivative-OPLS-2005>
5.5264778137207

$$$$
85
                    3D
 Structure written by MMmdl.
169177  0  0  1  0            999 V2000
  -30.6440  -14.7250   20.4585 C   0  0  0  0  0  0
  -30.4242  -12.4438   19.4748 C   0  0  0  0  0  0
  -29.5049  -12.5014   18.2360 C   0  0  0  0  0  0
  -28.0325  -12.3273   18.6528 C   0  0  0  0  0  0
  -27.6386  -13.2327   19.8501 C   0  0  2  0  0  0
  -28.6855  -13.1793   20.9855 C   0  0  0  0  0  0
  -25.2438  -13.8113   20.5658 C   0  0  0  0  0  0
  -24.1769  -13.0376   20.9248 C   0  0  0  0  0  0
  -24.6387  -11.6873   20.8787 C   0  0  0  0  0  0
  -23.9066  -10.4261   21.0425 C   0  0  0  0  0  0
  -24.3616   -9.4173   21.9196 C   0  0  0  0  0  0
  -23.6284   -8.2216   22.0757 C   0  0  0  0  0  0
  -22.4267   -8.0266   21.3542 C   0  0  0  0  0  0
  -21.9909   -9.0242   20.4646 C   0  0  0  0  0  0
  -22.7243  -10.2116   20.3063 C   0  0  0  0  0  0
  -21.6847   -6.0726   22.5277 C   0  0  0  0  0  0
  -21.4005   -6.5632   23.8209 C   0  0  0  0  0  0
  -21.3656   -5.6787   24.9174 C   0  0  0  0  0  0
  -21.6046   -4.3051   24.7226 C   0  0  0  0  0  0
  -21.8820   -3.8141   23.4347 C   0  0  0  0  0  0
  -21.9189   -4.6956   22.3403 C   0  0  0  0  0  0
  -22.7794  -13.5175   21.1890 C   0  0  0  0  0  0
  -22.1661   -4.2142   21.0979 F   0  0  0  0  0  0
  -21.5632   -3.4535   25.7739 F   0  0  0  0  0  0
  -29.9886  -13.5156   20.3994 N   0  0  0  0  0  0
  -26.2911  -12.9375   20.3291 N   0  0  0  0  0  0
  -25.9322  -11.6518   20.5794 N   0  0  0  0  0  0
  -22.0439  -12.8179   22.0452 N   0  0  0  0  0  0
  -25.3981  -15.1789   20.3884 N   0  0  0  0  0  0
  -31.8336  -14.7905   20.1400 O   0  0  0  0  0  0
  -21.6627   -6.8868   21.4237 O   0  0  0  0  0  0
  -22.3492  -14.5486   20.6730 O   0  0  0  0  0  0
  -24.6288  -31.8569   23.1990 C   0  0  0  0  0  0
  -25.9127  -32.4767   23.8337 C   0  0  1  0  0  0
  -27.2293  -27.2917   20.1335 C   0  0  0  0  0  0
  -25.5922  -33.8570   24.2253 N   0  0  0  0  0  0
  -23.4253  -30.4763   21.5427 C   0  0  2  0  0  0
  -24.8754  -28.9225   20.1151 C   0  0  0  0  0  0
  -22.7492  -29.4595   22.4935 C   0  0  0  0  0  0
  -18.0285  -28.1380   22.8483 C   0  0  0  0  0  0
  -24.1491  -36.7289   23.2643 C   0  0  0  0  0  0
  -25.9676  -30.7790   21.3751 C   0  0  0  0  0  0
  -26.0446  -29.4023   20.7204 C   0  0  0  0  0  0
  -27.2281  -28.6005   20.7146 C   0  0  0  0  0  0
  -26.0405  -26.8665   19.5054 C   0  0  0  0  0  0
  -24.8761  -27.6610   19.4967 C   0  0  0  0  0  0
  -23.6435  -29.8057   20.1602 C   0  0  0  0  0  0
  -25.4118  -36.3079   24.0323 C   0  0  1  0  0  0
  -20.5885  -28.3695   23.1275 C   0  0  2  0  0  0
  -20.6778  -26.9415   22.5409 C   0  0  0  0  0  0
  -19.5752  -26.6372   21.5213 C   0  0  0  0  0  0
  -18.1927  -26.7922   22.1619 C   0  0  0  0  0  0
  -19.1538  -28.8853   23.2872 C   0  0  0  0  0  0
  -18.9466  -30.1453   23.8885 C   0  0  0  0  0  0
  -17.6470  -30.6589   24.0551 C   0  0  0  0  0  0
  -25.9052  -34.9449   23.5092 C   0  0  0  0  0  0
  -16.5360  -29.9085   23.6326 C   0  0  0  0  0  0
  -16.7275  -28.6500   23.0348 C   0  0  0  0  0  0
  -26.4500  -31.6593   25.0727 C   0  0  0  0  0  0
  -25.3727  -31.3736   26.1450 C   0  0  0  0  0  0
  -27.0363  -30.3022   24.6199 C   0  0  0  0  0  0
  -27.6041  -32.4355   25.7500 C   0  0  0  0  0  0
  -27.5582  -37.1799   24.8466 C   0  0  0  0  0  0
  -21.4202  -29.3046   22.3678 N   0  0  0  0  0  0
  -26.4294  -37.3772   23.9407 N   0  0  0  0  0  0
  -24.6924  -31.0546   22.0958 N   0  0  0  0  0  0
  -23.4202  -28.8147   23.3033 O   0  0  0  0  0  0
  -28.3351  -26.4223   20.1366 O   0  0  0  0  0  0
  -26.5627  -34.8922   22.4662 O   0  0  0  0  0  0
  -23.5441  -32.1394   23.7292 O   0  0  0  0  0  0
  -30.0424  -19.9671   20.6806 C   0  0  0  0  0  0
  -28.9487  -20.9259   20.7068 C   0  0  0  0  0  0
  -29.6232  -18.6491   20.5297 C   0  0  0  0  0  0
  -27.8448  -20.1326   20.4412 C   0  0  0  0  0  0
  -30.1336  -21.9342   23.4181 C   0  0  0  0  0  0
  -26.0518  -21.8711   19.7590 C   0  0  0  0  0  0
  -25.6737  -20.3267   21.7103 C   0  0  0  0  0  0
  -27.3770  -17.6212   20.1855 C   0  0  0  0  0  0
  -30.4716  -17.3068   20.4920 C   0  0  0  0  0  0
  -30.1733  -22.7282   22.1021 C   0  0  0  0  0  0
  -28.8406  -23.7236   20.1484 C   0  0  0  0  0  0
  -28.1614  -25.0688   20.7415 C   0  0  0  0  0  0
  -28.9761  -22.4653   21.1571 C   0  0  1  0  0  0
  -26.3716  -20.4924   20.3518 C   0  0  0  0  0  0
  -28.2463  -18.7721   20.3729 N   0  0  0  0  0  0
  -29.9232  -15.8910   20.6547 N   0  0  0  0  0  0
  -31.4675  -12.5512   19.1724 H   0  0  0  0  0  0
  -30.3548  -11.4712   19.9635 H   0  0  0  0  0  0
  -29.7848  -11.7267   17.5209 H   0  0  0  0  0  0
  -29.6328  -13.4548   17.7213 H   0  0  0  0  0  0
  -27.8926  -11.2799   18.9229 H   0  0  0  0  0  0
  -27.3727  -12.5113   17.8042 H   0  0  0  0  0  0
  -27.6298  -14.2522   19.4646 H   0  0  0  0  0  0
  -28.7175  -12.1886   21.4414 H   0  0  0  0  0  0
  -28.4254  -13.8767   21.7836 H   0  0  0  0  0  0
  -25.2759   -9.5647   22.4776 H   0  0  0  0  0  0
  -23.9988   -7.4603   22.7475 H   0  0  0  0  0  0
  -21.0842   -8.8764   19.8952 H   0  0  0  0  0  0
  -22.3704  -10.9660   19.6180 H   0  0  0  0  0  0
  -21.1992   -7.6139   23.9709 H   0  0  0  0  0  0
  -21.1479   -6.0518   25.9076 H   0  0  0  0  0  0
  -22.0604   -2.7602   23.2848 H   0  0  0  0  0  0
  -22.4061  -11.9842   22.4840 H   0  0  0  0  0  0
  -21.1063  -13.1209   22.2671 H   0  0  0  0  0  0
  -24.5935  -15.7954   20.4220 H   0  0  0  0  0  0
  -26.1824  -15.5714   19.8893 H   0  0  0  0  0  0
  -26.7199  -32.5432   23.1087 H   0  0  0  0  0  0
  -25.0076  -33.9703   25.0407 H   0  0  0  0  0  0
  -22.7204  -31.2971   21.3950 H   0  0  0  0  0  0
  -23.3753  -35.9622   23.3305 H   0  0  0  0  0  0
  -24.3574  -36.8916   22.2059 H   0  0  0  0  0  0
  -23.7248  -37.6487   23.6676 H   0  0  0  0  0  0
  -26.1013  -31.5419   20.6067 H   0  0  0  0  0  0
  -26.8450  -30.8296   22.0074 H   0  0  0  0  0  0
  -28.1290  -28.9658   21.1876 H   0  0  0  0  0  0
  -26.0071  -25.8968   19.0285 H   0  0  0  0  0  0
  -23.9820  -27.2863   19.0182 H   0  0  0  0  0  0
  -23.7661  -30.5799   19.4021 H   0  0  0  0  0  0
  -22.7637  -29.2358   19.8574 H   0  0  0  0  0  0
  -25.1302  -36.1922   25.0813 H   0  0  0  0  0  0
  -20.9962  -28.3274   24.1399 H   0  0  0  0  0  0
  -20.5686  -26.2304   23.3616 H   0  0  0  0  0  0
  -21.6643  -26.7450   22.1195 H   0  0  0  0  0  0
  -19.6912  -25.6280   21.1257 H   0  0  0  0  0  0
  -19.6679  -27.3171   20.6733 H   0  0  0  0  0  0
  -17.4199  -26.6667   21.4024 H   0  0  0  0  0  0
  -18.0319  -26.0069   22.9013 H   0  0  0  0  0  0
  -19.7952  -30.7260   24.2250 H   0  0  0  0  0  0
  -17.5035  -31.6267   24.5161 H   0  0  0  0  0  0
  -15.5361  -30.2984   23.7666 H   0  0  0  0  0  0
  -15.8668  -28.0820   22.7064 H   0  0  0  0  0  0
  -24.5884  -30.7103   25.7776 H   0  0  0  0  0  0
  -24.8941  -32.2908   26.4895 H   0  0  0  0  0  0
  -25.8054  -30.8894   27.0218 H   0  0  0  0  0  0
  -26.2951  -29.6750   24.1235 H   0  0  0  0  0  0
  -27.4070  -29.7296   25.4710 H   0  0  0  0  0  0
  -27.8812  -30.4300   23.9430 H   0  0  0  0  0  0
  -27.2622  -33.3653   26.2058 H   0  0  0  0  0  0
  -28.3858  -32.6930   25.0341 H   0  0  0  0  0  0
  -28.0709  -31.8509   26.5433 H   0  0  0  0  0  0
  -28.2594  -38.0104   24.7514 H   0  0  0  0  0  0
  -28.1081  -36.2628   24.6291 H   0  0  0  0  0  0
  -27.2288  -37.1442   25.8865 H   0  0  0  0  0  0
  -20.9397  -29.8785   21.6892 H   0  0  0  0  0  0
  -26.0173  -38.2844   24.1410 H   0  0  0  0  0  0
  -31.0801  -20.2216   20.8491 H   0  0  0  0  0  0
  -30.9629  -22.2228   24.0646 H   0  0  0  0  0  0
  -30.2084  -20.8600   23.2537 H   0  0  0  0  0  0
  -29.2091  -22.1221   23.9636 H   0  0  0  0  0  0
  -26.5378  -22.0077   18.7931 H   0  0  0  0  0  0
  -26.3360  -22.6838   20.4200 H   0  0  0  0  0  0
  -24.9792  -21.9757   19.5941 H   0  0  0  0  0  0
  -25.7800  -19.3122   22.0941 H   0  0  0  0  0  0
  -24.6063  -20.5363   21.6368 H   0  0  0  0  0  0
  -26.0956  -21.0048   22.4527 H   0  0  0  0  0  0
  -27.6125  -17.1336   19.2389 H   0  0  0  0  0  0
  -26.3214  -17.8734   20.1933 H   0  0  0  0  0  0
  -27.5274  -16.9204   21.0054 H   0  0  0  0  0  0
  -31.2558  -17.4037   21.2446 H   0  0  0  0  0  0
  -31.0111  -17.3101   19.5434 H   0  0  0  0  0  0
  -31.1082  -22.5276   21.5776 H   0  0  0  0  0  0
  -30.2124  -23.7857   22.3622 H   0  0  0  0  0  0
  -29.8333  -23.9642   19.7676 H   0  0  0  0  0  0
  -28.2768  -23.4279   19.2659 H   0  0  0  0  0  0
  -28.5300  -25.1943   21.7593 H   0  0  0  0  0  0
  -27.1005  -24.8609   20.8793 H   0  0  0  0  0  0
  -28.0944  -22.5398   21.7933 H   0  0  0  0  0  0
  -25.8923  -19.8191   19.6438 H   0  0  0  0  0  0
  -28.9475  -15.7961   20.8825 H   0  0  0  0  0  0
  1 25  1  0  0  0
  1 30  2  0  0  0
  1 86  1  0  0  0
  2  3  1  0  0  0
  2 25  1  0  0  0
  2 87  1  0  0  0
  2 88  1  0  0  0
  3  4  1  0  0  0
  3 89  1  0  0  0
  3 90  1  0  0  0
  4  5  1  0  0  0
  4 91  1  0  0  0
  4 92  1  0  0  0
  5  6  1  0  0  0
  5 26  1  0  0  0
  5 93  1  0  0  0
  6 25  1  0  0  0
  6 94  1  0  0  0
  6 95  1  0  0  0
  7  8  2  0  0  0
  7 26  1  0  0  0
  7 29  1  0  0  0
  8  9  1  0  0  0
  8 22  1  0  0  0
  9 10  1  0  0  0
  9 27  2  0  0  0
 10 11  2  0  0  0
 10 15  1  0  0  0
 11 12  1  0  0  0
 11 96  1  0  0  0
 12 13  2  0  0  0
 12 97  1  0  0  0
 13 14  1  0  0  0
 13 31  1  0  0  0
 14 15  2  0  0  0
 14 98  1  0  0  0
 15 99  1  0  0  0
 16 17  2  0  0  0
 16 21  1  0  0  0
 16 31  1  0  0  0
 17 18  1  0  0  0
 17100  1  0  0  0
 18 19  2  0  0  0
 18101  1  0  0  0
 19 20  1  0  0  0
 19 24  1  0  0  0
 20 21  2  0  0  0
 20102  1  0  0  0
 21 23  1  0  0  0
 22 28  1  0  0  0
 22 32  2  0  0  0
 26 27  1  0  0  0
 28103  1  0  0  0
 28104  1  0  0  0
 29105  1  0  0  0
 29106  1  0  0  0
 33 34  1  0  0  0
 33 66  1  0  0  0
 33 70  2  0  0  0
 34 36  1  0  0  0
 34 59  1  0  0  0
 34107  1  0  0  0
 35 44  2  0  0  0
 35 45  1  0  0  0
 35 68  1  0  0  0
 36 56  1  0  0  0
 36108  1  0  0  0
 37 39  1  0  0  0
 37 47  1  0  0  0
 37 66  1  0  0  0
 37109  1  0  0  0
 38 43  2  0  0  0
 38 46  1  0  0  0
 38 47  1  0  0  0
 39 64  1  0  0  0
 39 67  2  0  0  0
 40 52  1  0  0  0
 40 53  2  0  0  0
 40 58  1  0  0  0
 41110  1  0  0  0
 41111  1  0  0  0
 41112  1  0  0  0
 41 48  1  0  0  0
 42 43  1  0  0  0
 42 66  1  0  0  0
 42113  1  0  0  0
 42114  1  0  0  0
 43 44  1  0  0  0
 44115  1  0  0  0
 45 46  2  0  0  0
 45116  1  0  0  0
 46117  1  0  0  0
 47118  1  0  0  0
 47119  1  0  0  0
 48 56  1  0  0  0
 48 65  1  0  0  0
 48120  1  0  0  0
 49 50  1  0  0  0
 49 53  1  0  0  0
 49 64  1  0  0  0
 49121  1  0  0  0
 50 51  1  0  0  0
 50122  1  0  0  0
 50123  1  0  0  0
 51 52  1  0  0  0
 51124  1  0  0  0
 51125  1  0  0  0
 52126  1  0  0  0
 52127  1  0  0  0
 53 54  1  0  0  0
 54 55  2  0  0  0
 54128  1  0  0  0
 55 57  1  0  0  0
 55129  1  0  0  0
 56 69  2  0  0  0
 57 58  2  0  0  0
 57130  1  0  0  0
 58131  1  0  0  0
 59 60  1  0  0  0
 59 61  1  0  0  0
 59 62  1  0  0  0
 60132  1  0  0  0
 60133  1  0  0  0
 60134  1  0  0  0
 61135  1  0  0  0
 61136  1  0  0  0
 61137  1  0  0  0
 62138  1  0  0  0
 62139  1  0  0  0
 62140  1  0  0  0
 63 65  1  0  0  0
 63141  1  0  0  0
 63142  1  0  0  0
 63143  1  0  0  0
 64144  1  0  0  0
 65145  1  0  0  0
 68 82  1  0  0  0
 71 72  1  0  0  0
 71 73  2  0  0  0
 71146  1  0  0  0
 72 74  2  0  0  0
 72 83  1  0  0  0
 73 79  1  0  0  0
 73 85  1  0  0  0
 74 84  1  0  0  0
 74 85  1  0  0  0
 75 80  1  0  0  0
 75147  1  0  0  0
 75148  1  0  0  0
 75149  1  0  0  0
 76150  1  0  0  0
 76151  1  0  0  0
 76152  1  0  0  0
 76 84  1  0  0  0
 77 84  1  0  0  0
 77153  1  0  0  0
 77154  1  0  0  0
 77155  1  0  0  0
 78 85  1  0  0  0
 78156  1  0  0  0
 78157  1  0  0  0
 78158  1  0  0  0
 79 86  1  0  0  0
 79159  1  0  0  0
 79160  1  0  0  0
 80161  1  0  0  0
 80162  1  0  0  0
 80 83  1  0  0  0
 81 82  1  0  0  0
 81 83  1  0  0  0
 81163  1  0  0  0
 81164  1  0  0  0
 82165  1  0  0  0
 82166  1  0  0  0
 83167  1  0  0  0
 84168  1  0  0  0
 86169  1  0  0  0
M  ISO  4   1 100  68 101  82 101  86 100
M  END
> <chiral flag>
0

> <version>
0

> <s_m_source_file>
/data/baiqing/PycharmProjects/Reinvent-master-3.2/result/LINK_invent/BTK/process_docking_weight1_custom_sum_contain_oxygen_bond_distance_aromatic_linkinvent_7_9_3/rearranged_h_0097.sdf

> <i_m_source_file_index>
85

> <r_mmod_Potential_Energy-OPLS-2005>
83.5695190429688

> <r_mmod_Stretch_Energy-OPLS-2005>
114.02424621582

> <r_mmod_Bend_Energy-OPLS-2005>
181.946350097656

> <r_mmod_Torsional_Energy-OPLS-2005>
244.05549621582

> <r_mmod_Improper_Torsional_Energy-OPLS-2005>
7.6571249961853

> <r_mmod_Van_der_Waal_Energy-OPLS-2005>
118.683662414551

> <r_mmod_Electrostatic_Energy-OPLS-2005>
-453.294982910156

> <r_mmod_Solvation_Energy-OPLS-2005>
-202.445037841797

> <b_mmod_Minimization_Converged-OPLS-2005>
0

> <r_mmod_RMS_Derivative-OPLS-2005>
1.17057800292969

$$$$
86
                    3D
 Structure written by MMmdl.
164172  0  0  1  0            999 V2000
  -30.6837  -14.4905   20.5761 C   0  0  0  0  0  0
  -30.4429  -12.3196   19.4148 C   0  0  0  0  0  0
  -29.5034  -12.4831   18.2025 C   0  0  0  0  0  0
  -28.0253  -12.3469   18.6235 C   0  0  0  0  0  0
  -27.6678  -13.1967   19.8713 C   0  0  2  0  0  0
  -28.7099  -12.9764   20.9929 C   0  0  0  0  0  0
  -25.2655  -13.8126   20.5704 C   0  0  0  0  0  0
  -24.1903  -13.0443   20.9224 C   0  0  0  0  0  0
  -24.6419  -11.6891   20.8762 C   0  0  0  0  0  0
  -23.9078  -10.4289   21.0415 C   0  0  0  0  0  0
  -24.3618   -9.4207   21.9191 C   0  0  0  0  0  0
  -23.6291   -8.2243   22.0752 C   0  0  0  0  0  0
  -22.4279   -8.0283   21.3537 C   0  0  0  0  0  0
  -21.9911   -9.0269   20.4652 C   0  0  0  0  0  0
  -22.7249  -10.2145   20.3069 C   0  0  0  0  0  0
  -21.6855   -6.0749   22.5286 C   0  0  0  0  0  0
  -21.4003   -6.5644   23.8221 C   0  0  0  0  0  0
  -21.3655   -5.6790   24.9179 C   0  0  0  0  0  0
  -21.6051   -4.3052   24.7224 C   0  0  0  0  0  0
  -21.8822   -3.8153   23.4343 C   0  0  0  0  0  0
  -21.9190   -4.6973   22.3402 C   0  0  0  0  0  0
  -22.7921  -13.5253   21.1874 C   0  0  0  0  0  0
  -22.1672   -4.2176   21.0979 F   0  0  0  0  0  0
  -21.5626   -3.4531   25.7730 F   0  0  0  0  0  0
  -30.0418  -13.2954   20.4442 N   0  0  0  0  0  0
  -26.3072  -12.9285   20.3332 N   0  0  0  0  0  0
  -25.9333  -11.6457   20.5742 N   0  0  0  0  0  0
  -22.0503  -12.8280   22.0391 N   0  0  0  0  0  0
  -25.4418  -15.1842   20.4127 N   0  0  0  0  0  0
  -31.7934  -14.7253   20.0830 O   0  0  0  0  0  0
  -21.6641   -6.8887   21.4242 O   0  0  0  0  0  0
  -22.3639  -14.5555   20.6691 O   0  0  0  0  0  0
  -24.6246  -31.8617   23.2089 C   0  0  0  0  0  0
  -25.9135  -32.4762   23.8370 C   0  0  1  0  0  0
  -27.2402  -27.3835   20.0974 C   0  0  0  0  0  0
  -25.5980  -33.8552   24.2324 N   0  0  0  0  0  0
  -23.4099  -30.4948   21.5467 C   0  0  2  0  0  0
  -24.8564  -28.9572   20.1107 C   0  0  0  0  0  0
  -22.7415  -29.4700   22.4929 C   0  0  0  0  0  0
  -18.0276  -28.1399   22.8484 C   0  0  0  0  0  0
  -24.1490  -36.7310   23.2627 C   0  0  0  0  0  0
  -25.9444  -30.8186   21.3614 C   0  0  0  0  0  0
  -26.0239  -29.4496   20.7068 C   0  0  0  0  0  0
  -27.2170  -28.6758   20.6923 C   0  0  0  0  0  0
  -26.0409  -26.9224   19.4985 C   0  0  0  0  0  0
  -24.8651  -27.6950   19.4992 C   0  0  0  0  0  0
  -23.6193  -29.8316   20.1605 C   0  0  0  0  0  0
  -25.4092  -36.3067   24.0348 C   0  0  1  0  0  0
  -20.5868  -28.3711   23.1274 C   0  0  2  0  0  0
  -20.6787  -26.9438   22.5381 C   0  0  0  0  0  0
  -19.5767  -26.6397   21.5188 C   0  0  0  0  0  0
  -18.1948  -26.7940   22.1608 C   0  0  0  0  0  0
  -19.1528  -28.8863   23.2884 C   0  0  0  0  0  0
  -18.9451  -30.1458   23.8910 C   0  0  0  0  0  0
  -17.6460  -30.6604   24.0564 C   0  0  0  0  0  0
  -25.9032  -34.9434   23.5122 C   0  0  0  0  0  0
  -16.5349  -29.9105   23.6326 C   0  0  0  0  0  0
  -16.7263  -28.6514   23.0358 C   0  0  0  0  0  0
  -26.4522  -31.6539   25.0712 C   0  0  0  0  0  0
  -25.3768  -31.3676   26.1454 C   0  0  0  0  0  0
  -27.0348  -30.2966   24.6131 C   0  0  0  0  0  0
  -27.6143  -32.4204   25.7448 C   0  0  0  0  0  0
  -27.5577  -37.1788   24.8460 C   0  0  0  0  0  0
  -21.4133  -29.3091   22.3664 N   0  0  0  0  0  0
  -26.4274  -37.3762   23.9429 N   0  0  0  0  0  0
  -24.6779  -31.0718   22.0985 N   0  0  0  0  0  0
  -23.4156  -28.8237   23.2999 O   0  0  0  0  0  0
  -28.3979  -26.5988   20.1154 O   0  0  0  0  0  0
  -26.5547  -34.8903   22.4654 O   0  0  0  0  0  0
  -23.5443  -32.1359   23.7507 O   0  0  0  0  0  0
  -29.8305  -20.3413   20.7117 C   0  0  0  0  0  0
  -31.3977  -21.7543   19.5487 C   0  0  0  0  0  0
  -30.1172  -21.5937   20.1041 C   0  0  0  0  0  0
  -30.8118  -19.3074   20.7583 C   0  0  0  0  0  0
  -32.0760  -19.6128   20.1898 C   0  0  0  0  0  0
  -34.0519  -18.7305   21.5300 C   0  0  0  0  0  0
  -29.4342  -18.0131   22.5250 C   0  0  0  0  0  0
  -29.0392  -22.6966   19.9785 C   0  0  0  0  0  0
  -33.2491  -18.6375   20.2257 C   0  0  0  0  0  0
  -29.4535  -24.2090   20.1029 C   0  0  0  0  0  0
  -28.2297  -25.1655   19.9107 C   0  0  0  0  0  0
  -30.5502  -17.9409   21.4628 C   0  0  1  0  0  0
  -32.3510  -20.8006   19.6030 N   0  0  0  0  0  0
  -29.9601  -15.4715   21.1485 N   0  0  0  0  0  0
  -30.3628  -16.7923   20.5259 N   0  3  0  0  0  0
  -31.4804  -12.4480   19.0984 H   0  0  0  0  0  0
  -30.3739  -11.3028   19.8074 H   0  0  0  0  0  0
  -29.7402  -11.7275   17.4518 H   0  0  0  0  0  0
  -29.6740  -13.4494   17.7273 H   0  0  0  0  0  0
  -27.8453  -11.2925   18.8369 H   0  0  0  0  0  0
  -27.3699  -12.6041   17.7917 H   0  0  0  0  0  0
  -27.7128  -14.2419   19.5650 H   0  0  0  0  0  0
  -28.6921  -11.9361   21.3217 H   0  0  0  0  0  0
  -28.4628  -13.5650   21.8783 H   0  0  0  0  0  0
  -25.2751   -9.5701   22.4786 H   0  0  0  0  0  0
  -24.0009   -7.4632   22.7466 H   0  0  0  0  0  0
  -21.0840   -8.8802   19.8957 H   0  0  0  0  0  0
  -22.3699  -10.9700   19.6201 H   0  0  0  0  0  0
  -21.1986   -7.6156   23.9734 H   0  0  0  0  0  0
  -21.1481   -6.0517   25.9081 H   0  0  0  0  0  0
  -22.0600   -2.7623   23.2836 H   0  0  0  0  0  0
  -22.4042  -11.9934   22.4855 H   0  0  0  0  0  0
  -21.1117  -13.1361   22.2507 H   0  0  0  0  0  0
  -24.6773  -15.8393   20.5413 H   0  0  0  0  0  0
  -26.2686  -15.6166   20.0238 H   0  0  0  0  0  0
  -26.7218  -32.5442   23.1134 H   0  0  0  0  0  0
  -25.0206  -33.9664   25.0526 H   0  0  0  0  0  0
  -22.7024  -31.3164   21.4094 H   0  0  0  0  0  0
  -23.3730  -35.9663   23.3239 H   0  0  0  0  0  0
  -24.3628  -36.8954   22.2058 H   0  0  0  0  0  0
  -23.7245  -37.6515   23.6639 H   0  0  0  0  0  0
  -26.0516  -31.5844   20.5906 H   0  0  0  0  0  0
  -26.8349  -30.8754   21.9755 H   0  0  0  0  0  0
  -28.1150  -29.0597   21.1539 H   0  0  0  0  0  0
  -25.9779  -25.9576   19.0198 H   0  0  0  0  0  0
  -23.9708  -27.3102   19.0285 H   0  0  0  0  0  0
  -23.7249  -30.6102   19.4037 H   0  0  0  0  0  0
  -22.7385  -29.2612   19.8620 H   0  0  0  0  0  0
  -25.1245  -36.1918   25.0840 H   0  0  0  0  0  0
  -20.9963  -28.3299   24.1396 H   0  0  0  0  0  0
  -20.5713  -26.2311   23.3570 H   0  0  0  0  0  0
  -21.6660  -26.7501   22.1162 H   0  0  0  0  0  0
  -19.6942  -25.6296   21.1246 H   0  0  0  0  0  0
  -19.6727  -27.3183   20.6704 H   0  0  0  0  0  0
  -17.4194  -26.6650   21.4035 H   0  0  0  0  0  0
  -18.0407  -26.0081   22.9020 H   0  0  0  0  0  0
  -19.7926  -30.7273   24.2297 H   0  0  0  0  0  0
  -17.5013  -31.6290   24.5163 H   0  0  0  0  0  0
  -15.5355  -30.3031   23.7642 H   0  0  0  0  0  0
  -15.8650  -28.0838   22.7103 H   0  0  0  0  0  0
  -24.6102  -30.6786   25.7872 H   0  0  0  0  0  0
  -24.8747  -32.2807   26.4665 H   0  0  0  0  0  0
  -25.8161  -30.9109   27.0335 H   0  0  0  0  0  0
  -26.2893  -29.6670   24.1259 H   0  0  0  0  0  0
  -27.4169  -29.7277   25.4619 H   0  0  0  0  0  0
  -27.8704  -30.4242   23.9247 H   0  0  0  0  0  0
  -27.2897  -33.3626   26.1869 H   0  0  0  0  0  0
  -28.4046  -32.6507   25.0289 H   0  0  0  0  0  0
  -28.0661  -31.8335   26.5453 H   0  0  0  0  0  0
  -28.2549  -38.0124   24.7536 H   0  0  0  0  0  0
  -28.1112  -36.2658   24.6218 H   0  0  0  0  0  0
  -27.2311  -37.1369   25.8864 H   0  0  0  0  0  0
  -20.9284  -29.8797   21.6873 H   0  0  0  0  0  0
  -26.0153  -38.2832   24.1446 H   0  0  0  0  0  0
  -28.8497  -20.1893   21.1387 H   0  0  0  0  0  0
  -31.6627  -22.6634   19.0291 H   0  0  0  0  0  0
  -34.8154  -17.9543   21.5705 H   0  0  0  0  0  0
  -33.4190  -18.6131   22.4094 H   0  0  0  0  0  0
  -34.5516  -19.6934   21.6122 H   0  0  0  0  0  0
  -29.6431  -18.8107   23.2370 H   0  0  0  0  0  0
  -29.3778  -17.0971   23.1133 H   0  0  0  0  0  0
  -28.4495  -18.1831   22.0881 H   0  0  0  0  0  0
  -28.2642  -22.4912   20.7188 H   0  0  0  0  0  0
  -28.5587  -22.5516   19.0100 H   0  0  0  0  0  0
  -33.9180  -18.8464   19.3886 H   0  0  0  0  0  0
  -32.9124  -17.6140   20.0594 H   0  0  0  0  0  0
  -30.2082  -24.4500   19.3529 H   0  0  0  0  0  0
  -29.9130  -24.3907   21.0745 H   0  0  0  0  0  0
  -27.4484  -24.8234   20.5934 H   0  0  0  0  0  0
  -27.8651  -25.0010   18.8962 H   0  0  0  0  0  0
  -31.4446  -17.6931   22.0322 H   0  0  0  0  0  0
  -29.0086  -15.3630   21.4617 H   0  0  0  0  0  0
  -31.2343  -16.5782   20.0521 H   0  0  0  0  0  0
  -29.6850  -17.0291   19.8177 H   0  0  0  0  0  0
  1 25  1  0  0  0
  1 30  2  0  0  0
  1 84  1  0  0  0
  2  3  1  0  0  0
  2 25  1  0  0  0
  2 86  1  0  0  0
  2 87  1  0  0  0
  3  4  1  0  0  0
  3 88  1  0  0  0
  3 89  1  0  0  0
  4  5  1  0  0  0
  4 90  1  0  0  0
  4 91  1  0  0  0
  5  6  1  0  0  0
  5 26  1  0  0  0
  5 92  1  0  0  0
  6 25  1  0  0  0
  6 93  1  0  0  0
  6 94  1  0  0  0
  7  8  2  0  0  0
  7 26  1  0  0  0
  7 29  1  0  0  0
  8  9  1  0  0  0
  8 22  1  0  0  0
  9 10  1  0  0  0
  9 27  2  0  0  0
 10 11  2  0  0  0
 10 15  1  0  0  0
 11 12  1  0  0  0
 11 95  1  0  0  0
 12 13  2  0  0  0
 12 96  1  0  0  0
 13 14  1  0  0  0
 13 31  1  0  0  0
 14 15  2  0  0  0
 14 97  1  0  0  0
 15 98  1  0  0  0
 16 17  2  0  0  0
 16 21  1  0  0  0
 16 31  1  0  0  0
 17 18  1  0  0  0
 17 99  1  0  0  0
 18 19  2  0  0  0
 18100  1  0  0  0
 19 20  1  0  0  0
 19 24  1  0  0  0
 20 21  2  0  0  0
 20101  1  0  0  0
 21 23  1  0  0  0
 22 28  1  0  0  0
 22 32  2  0  0  0
 26 27  1  0  0  0
 28102  1  0  0  0
 28103  1  0  0  0
 29104  1  0  0  0
 29105  1  0  0  0
 33 34  1  0  0  0
 33 66  1  0  0  0
 33 70  2  0  0  0
 34 36  1  0  0  0
 34 59  1  0  0  0
 34106  1  0  0  0
 35 44  2  0  0  0
 35 45  1  0  0  0
 35 68  1  0  0  0
 36 56  1  0  0  0
 36107  1  0  0  0
 37 39  1  0  0  0
 37 47  1  0  0  0
 37 66  1  0  0  0
 37108  1  0  0  0
 38 43  2  0  0  0
 38 46  1  0  0  0
 38 47  1  0  0  0
 39 64  1  0  0  0
 39 67  2  0  0  0
 40 52  1  0  0  0
 40 53  2  0  0  0
 40 58  1  0  0  0
 41109  1  0  0  0
 41110  1  0  0  0
 41111  1  0  0  0
 41 48  1  0  0  0
 42 43  1  0  0  0
 42 66  1  0  0  0
 42112  1  0  0  0
 42113  1  0  0  0
 43 44  1  0  0  0
 44114  1  0  0  0
 45 46  2  0  0  0
 45115  1  0  0  0
 46116  1  0  0  0
 47117  1  0  0  0
 47118  1  0  0  0
 48 56  1  0  0  0
 48 65  1  0  0  0
 48119  1  0  0  0
 49 50  1  0  0  0
 49 53  1  0  0  0
 49 64  1  0  0  0
 49120  1  0  0  0
 50 51  1  0  0  0
 50121  1  0  0  0
 50122  1  0  0  0
 51 52  1  0  0  0
 51123  1  0  0  0
 51124  1  0  0  0
 52125  1  0  0  0
 52126  1  0  0  0
 53 54  1  0  0  0
 54 55  2  0  0  0
 54127  1  0  0  0
 55 57  1  0  0  0
 55128  1  0  0  0
 56 69  2  0  0  0
 57 58  2  0  0  0
 57129  1  0  0  0
 58130  1  0  0  0
 59 60  1  0  0  0
 59 61  1  0  0  0
 59 62  1  0  0  0
 60131  1  0  0  0
 60132  1  0  0  0
 60133  1  0  0  0
 61134  1  0  0  0
 61135  1  0  0  0
 61136  1  0  0  0
 62137  1  0  0  0
 62138  1  0  0  0
 62139  1  0  0  0
 63 65  1  0  0  0
 63140  1  0  0  0
 63141  1  0  0  0
 63142  1  0  0  0
 64143  1  0  0  0
 65144  1  0  0  0
 68 81  1  0  0  0
 71 73  2  0  0  0
 71 74  1  0  0  0
 71145  1  0  0  0
 72 73  1  0  0  0
 72 83  2  0  0  0
 72146  1  0  0  0
 73 78  1  0  0  0
 74 75  2  0  0  0
 74 82  1  0  0  0
 75 79  1  0  0  0
 75 83  1  0  0  0
 76 79  1  0  0  0
 76147  1  0  0  0
 76148  1  0  0  0
 76149  1  0  0  0
 77150  1  0  0  0
 77151  1  0  0  0
 77152  1  0  0  0
 77 82  1  0  0  0
 78 80  1  0  0  0
 78153  1  0  0  0
 78154  1  0  0  0
 79155  1  0  0  0
 79156  1  0  0  0
 80 81  1  0  0  0
 80157  1  0  0  0
 80158  1  0  0  0
 81159  1  0  0  0
 81160  1  0  0  0
 82 85  1  0  0  0
 82161  1  0  0  0
 84 85  1  0  0  0
 84162  1  0  0  0
 85163  1  0  0  0
 85164  1  0  0  0
M  CHG  1  85   1
M  ISO  4   1 100  68 101  81 101  84 100
M  END
> <chiral flag>
0

> <version>
0

> <s_m_source_file>
/data/baiqing/PycharmProjects/Reinvent-master-3.2/result/LINK_invent/BTK/process_docking_weight1_custom_sum_contain_oxygen_bond_distance_aromatic_linkinvent_7_9_3/rearranged_h_0097.sdf

> <i_m_source_file_index>
86

> <r_mmod_Potential_Energy-OPLS-2005>
-458.391052246094

> <r_mmod_Stretch_Energy-OPLS-2005>
53.4004821777344

> <r_mmod_Bend_Energy-OPLS-2005>
113.220863342285

> <r_mmod_Torsional_Energy-OPLS-2005>
193.617935180664

> <r_mmod_Improper_Torsional_Energy-OPLS-2005>
6.55454540252686

> <r_mmod_Van_der_Waal_Energy-OPLS-2005>
165.208236694336

> <r_mmod_Electrostatic_Energy-OPLS-2005>
-542.647338867188

> <r_mmod_Solvation_Energy-OPLS-2005>
-466.108123779297

> <b_mmod_Minimization_Converged-OPLS-2005>
0

> <r_mmod_RMS_Derivative-OPLS-2005>
3.65373468399048

$$$$
87
                    3D
 Structure written by MMmdl.
162170  0  0  1  0            999 V2000
  -30.7392  -14.3693   20.6482 C   0  0  0  0  0  0
  -30.4218  -12.2744   19.3866 C   0  0  0  0  0  0
  -29.4876  -12.5185   18.1847 C   0  0  0  0  0  0
  -28.0097  -12.3807   18.6018 C   0  0  0  0  0  0
  -27.6701  -13.1956   19.8781 C   0  0  2  0  0  0
  -28.7081  -12.9152   20.9871 C   0  0  0  0  0  0
  -25.2649  -13.8130   20.5666 C   0  0  0  0  0  0
  -24.1877  -13.0430   20.9150 C   0  0  0  0  0  0
  -24.6403  -11.6889   20.8706 C   0  0  0  0  0  0
  -23.9053  -10.4289   21.0390 C   0  0  0  0  0  0
  -24.3605   -9.4209   21.9174 C   0  0  0  0  0  0
  -23.6282   -8.2246   22.0751 C   0  0  0  0  0  0
  -22.4265   -8.0283   21.3543 C   0  0  0  0  0  0
  -21.9897   -9.0253   20.4643 C   0  0  0  0  0  0
  -22.7220  -10.2132   20.3047 C   0  0  0  0  0  0
  -21.6857   -6.0739   22.5283 C   0  0  0  0  0  0
  -21.4016   -6.5646   23.8214 C   0  0  0  0  0  0
  -21.3655   -5.6798   24.9177 C   0  0  0  0  0  0
  -21.6037   -4.3059   24.7228 C   0  0  0  0  0  0
  -21.8818   -3.8151   23.4349 C   0  0  0  0  0  0
  -21.9190   -4.6966   22.3405 C   0  0  0  0  0  0
  -22.7901  -13.5250   21.1810 C   0  0  0  0  0  0
  -22.1667   -4.2149   21.0985 F   0  0  0  0  0  0
  -21.5614   -3.4545   25.7740 F   0  0  0  0  0  0
  -30.0525  -13.2143   20.4529 N   0  0  0  0  0  0
  -26.3074  -12.9283   20.3353 N   0  0  0  0  0  0
  -25.9325  -11.6451   20.5721 N   0  0  0  0  0  0
  -22.0535  -12.8265   22.0374 N   0  0  0  0  0  0
  -25.4412  -15.1842   20.4106 N   0  0  0  0  0  0
  -31.7803  -14.6617   20.0536 O   0  0  0  0  0  0
  -21.6634   -6.8878   21.4242 O   0  0  0  0  0  0
  -22.3601  -14.5565   20.6658 O   0  0  0  0  0  0
  -24.6121  -31.8694   23.2144 C   0  0  0  0  0  0
  -25.9033  -32.4821   23.8414 C   0  0  1  0  0  0
  -27.2357  -27.4572   20.0768 C   0  0  0  0  0  0
  -25.5903  -33.8623   24.2338 N   0  0  0  0  0  0
  -23.3965  -30.4951   21.5566 C   0  0  2  0  0  0
  -24.8381  -28.9608   20.1192 C   0  0  0  0  0  0
  -22.7370  -29.4677   22.5031 C   0  0  0  0  0  0
  -18.0260  -28.1373   22.8508 C   0  0  0  0  0  0
  -24.1489  -36.7310   23.2637 C   0  0  0  0  0  0
  -25.9228  -30.8391   21.3631 C   0  0  0  0  0  0
  -25.9992  -29.4769   20.7061 C   0  0  0  0  0  0
  -27.1992  -28.7345   20.6785 C   0  0  0  0  0  0
  -26.0496  -26.9415   19.5032 C   0  0  0  0  0  0
  -24.8562  -27.6889   19.5210 C   0  0  0  0  0  0
  -23.5998  -29.8277   20.1715 C   0  0  0  0  0  0
  -25.4108  -36.3109   24.0340 C   0  0  1  0  0  0
  -20.5845  -28.3650   23.1334 C   0  0  2  0  0  0
  -20.6768  -26.9390   22.5424 C   0  0  0  0  0  0
  -19.5742  -26.6378   21.5230 C   0  0  0  0  0  0
  -18.1913  -26.7923   22.1632 C   0  0  0  0  0  0
  -19.1511  -28.8833   23.2915 C   0  0  0  0  0  0
  -18.9428  -30.1449   23.8916 C   0  0  0  0  0  0
  -17.6430  -30.6581   24.0568 C   0  0  0  0  0  0
  -25.9031  -34.9473   23.5133 C   0  0  0  0  0  0
  -16.5323  -29.9080   23.6331 C   0  0  0  0  0  0
  -16.7255  -28.6498   23.0351 C   0  0  0  0  0  0
  -26.4465  -31.6603   25.0744 C   0  0  0  0  0  0
  -25.3767  -31.3696   26.1527 C   0  0  0  0  0  0
  -27.0256  -30.3048   24.6076 C   0  0  0  0  0  0
  -27.6035  -32.4331   25.7507 C   0  0  0  0  0  0
  -27.5579  -37.1816   24.8469 C   0  0  0  0  0  0
  -21.4105  -29.3029   22.3744 N   0  0  0  0  0  0
  -26.4292  -37.3793   23.9411 N   0  0  0  0  0  0
  -24.6618  -31.0812   22.1033 N   0  0  0  0  0  0
  -23.4132  -28.8229   23.3080 O   0  0  0  0  0  0
  -28.4368  -26.7801   20.0549 O   0  0  0  0  0  0
  -26.5586  -34.8926   22.4692 O   0  0  0  0  0  0
  -23.5328  -32.1446   23.7566 O   0  0  0  0  0  0
  -28.3771  -19.0693   22.9634 C   0  0  0  0  0  0
  -28.4899  -20.4236   23.1127 C   0  0  0  0  0  0
  -29.9018  -20.6192   23.2609 C   0  0  0  0  0  0
  -30.6804  -21.8800   23.4990 C   0  0  0  0  0  0
  -27.3067  -21.3692   23.1751 C   0  0  0  0  0  0
  -27.5739  -22.8685   22.9554 C   0  0  0  0  0  0
  -27.9094  -23.2823   21.5114 C   0  0  0  0  0  0
  -27.9719  -24.8150   21.3974 C   0  0  0  0  0  0
  -29.9897  -17.1126   23.0616 C   0  0  0  0  0  0
  -30.4762  -16.6212   21.6886 C   0  0  0  0  0  0
  -28.4333  -25.3506   20.0326 C   0  0  0  0  0  0
  -30.5727  -19.4732   23.2182 N   0  0  0  0  0  0
  -29.6322  -18.5202   23.0617 N   0  0  0  0  0  0
  -30.1617  -15.2066   21.5129 N   0  0  0  0  0  0
  -31.4659  -12.3746   19.0844 H   0  0  0  0  0  0
  -30.3167  -11.2493   19.7446 H   0  0  0  0  0  0
  -29.7147  -11.8155   17.3819 H   0  0  0  0  0  0
  -29.6644  -13.5140   17.7748 H   0  0  0  0  0  0
  -27.8097  -11.3223   18.7748 H   0  0  0  0  0  0
  -27.3579  -12.6792   17.7798 H   0  0  0  0  0  0
  -27.7354  -14.2512   19.6139 H   0  0  0  0  0  0
  -28.6666  -11.8646   21.2792 H   0  0  0  0  0  0
  -28.4565  -13.4661   21.8936 H   0  0  0  0  0  0
  -25.2753   -9.5687   22.4743 H   0  0  0  0  0  0
  -23.9987   -7.4647   22.7483 H   0  0  0  0  0  0
  -21.0823   -8.8767   19.8965 H   0  0  0  0  0  0
  -22.3672  -10.9667   19.6154 H   0  0  0  0  0  0
  -21.2024   -7.6158   23.9713 H   0  0  0  0  0  0
  -21.1473   -6.0536   25.9075 H   0  0  0  0  0  0
  -22.0597   -2.7614   23.2853 H   0  0  0  0  0  0
  -22.4146  -11.9932   22.4782 H   0  0  0  0  0  0
  -21.1143  -13.1289   22.2539 H   0  0  0  0  0  0
  -24.6771  -15.8427   20.5201 H   0  0  0  0  0  0
  -26.3003  -15.6204   20.0993 H   0  0  0  0  0  0
  -26.7101  -32.5518   23.1171 H   0  0  0  0  0  0
  -25.0099  -33.9797   25.0511 H   0  0  0  0  0  0
  -22.6848  -31.3120   21.4228 H   0  0  0  0  0  0
  -23.3743  -35.9654   23.3309 H   0  0  0  0  0  0
  -24.3582  -36.8902   22.2048 H   0  0  0  0  0  0
  -23.7253  -37.6527   23.6640 H   0  0  0  0  0  0
  -26.0371  -31.6102   20.5999 H   0  0  0  0  0  0
  -26.8092  -30.8838   21.9843 H   0  0  0  0  0  0
  -28.0984  -29.1353   21.1261 H   0  0  0  0  0  0
  -26.0237  -25.9730   19.0279 H   0  0  0  0  0  0
  -23.9610  -27.2789   19.0740 H   0  0  0  0  0  0
  -23.6997  -30.6048   19.4120 H   0  0  0  0  0  0
  -22.7219  -29.2475   19.8827 H   0  0  0  0  0  0
  -25.1284  -36.1974   25.0834 H   0  0  0  0  0  0
  -20.9931  -28.3218   24.1454 H   0  0  0  0  0  0
  -20.5689  -26.2252   23.3602 H   0  0  0  0  0  0
  -21.6632  -26.7459   22.1193 H   0  0  0  0  0  0
  -19.6887  -25.6291   21.1249 H   0  0  0  0  0  0
  -19.6673  -27.3206   20.6768 H   0  0  0  0  0  0
  -17.4180  -26.6676   21.4032 H   0  0  0  0  0  0
  -18.0306  -26.0064   22.9027 H   0  0  0  0  0  0
  -19.7903  -30.7276   24.2270 H   0  0  0  0  0  0
  -17.4974  -31.6260   24.5163 H   0  0  0  0  0  0
  -15.5324  -30.2966   23.7653 H   0  0  0  0  0  0
  -15.8654  -28.0827   22.7041 H   0  0  0  0  0  0
  -24.5944  -30.7009   25.7917 H   0  0  0  0  0  0
  -24.8960  -32.2845   26.5007 H   0  0  0  0  0  0
  -25.8189  -30.8899   27.0273 H   0  0  0  0  0  0
  -26.2760  -29.6876   24.1110 H   0  0  0  0  0  0
  -27.3966  -29.7220   25.4509 H   0  0  0  0  0  0
  -27.8642  -30.4351   23.9227 H   0  0  0  0  0  0
  -27.2616  -33.3604   26.2124 H   0  0  0  0  0  0
  -28.3836  -32.6933   25.0336 H   0  0  0  0  0  0
  -28.0717  -31.8450   26.5407 H   0  0  0  0  0  0
  -28.2606  -38.0101   24.7501 H   0  0  0  0  0  0
  -28.1062  -36.2639   24.6310 H   0  0  0  0  0  0
  -27.2306  -37.1486   25.8873 H   0  0  0  0  0  0
  -20.9251  -29.8706   21.6945 H   0  0  0  0  0  0
  -26.0177  -38.2876   24.1408 H   0  0  0  0  0  0
  -27.5000  -18.4483   22.8401 H   0  0  0  0  0  0
  -30.3181  -22.4055   24.3813 H   0  0  0  0  0  0
  -30.6126  -22.5570   22.6495 H   0  0  0  0  0  0
  -31.7384  -21.6768   23.6668 H   0  0  0  0  0  0
  -26.8374  -21.2672   24.1551 H   0  0  0  0  0  0
  -26.5344  -21.0521   22.4732 H   0  0  0  0  0  0
  -28.3293  -23.2337   23.6484 H   0  0  0  0  0  0
  -26.6611  -23.3954   23.2401 H   0  0  0  0  0  0
  -27.1489  -22.9028   20.8271 H   0  0  0  0  0  0
  -28.8530  -22.8376   21.1976 H   0  0  0  0  0  0
  -28.6409  -25.2064   22.1637 H   0  0  0  0  0  0
  -26.9832  -25.2128   21.6232 H   0  0  0  0  0  0
  -30.7510  -16.9316   23.8215 H   0  0  0  0  0  0
  -29.1061  -16.5577   23.3814 H   0  0  0  0  0  0
  -31.5460  -16.8110   21.5779 H   0  0  0  0  0  0
  -29.9756  -17.1727   20.8910 H   0  0  0  0  0  0
  -27.8578  -24.9350   19.2060 H   0  0  0  0  0  0
  -29.4621  -25.0339   19.8600 H   0  0  0  0  0  0
  -29.3341  -14.8567   21.9717 H   0  0  0  0  0  0
  1 25  1  0  0  0
  1 30  2  0  0  0
  1 84  1  0  0  0
  2  3  1  0  0  0
  2 25  1  0  0  0
  2 85  1  0  0  0
  2 86  1  0  0  0
  3  4  1  0  0  0
  3 87  1  0  0  0
  3 88  1  0  0  0
  4  5  1  0  0  0
  4 89  1  0  0  0
  4 90  1  0  0  0
  5  6  1  0  0  0
  5 26  1  0  0  0
  5 91  1  0  0  0
  6 25  1  0  0  0
  6 92  1  0  0  0
  6 93  1  0  0  0
  7  8  2  0  0  0
  7 26  1  0  0  0
  7 29  1  0  0  0
  8  9  1  0  0  0
  8 22  1  0  0  0
  9 10  1  0  0  0
  9 27  2  0  0  0
 10 11  2  0  0  0
 10 15  1  0  0  0
 11 12  1  0  0  0
 11 94  1  0  0  0
 12 13  2  0  0  0
 12 95  1  0  0  0
 13 14  1  0  0  0
 13 31  1  0  0  0
 14 15  2  0  0  0
 14 96  1  0  0  0
 15 97  1  0  0  0
 16 17  2  0  0  0
 16 21  1  0  0  0
 16 31  1  0  0  0
 17 18  1  0  0  0
 17 98  1  0  0  0
 18 19  2  0  0  0
 18 99  1  0  0  0
 19 20  1  0  0  0
 19 24  1  0  0  0
 20 21  2  0  0  0
 20100  1  0  0  0
 21 23  1  0  0  0
 22 28  1  0  0  0
 22 32  2  0  0  0
 26 27  1  0  0  0
 28101  1  0  0  0
 28102  1  0  0  0
 29103  1  0  0  0
 29104  1  0  0  0
 33 34  1  0  0  0
 33 66  1  0  0  0
 33 70  2  0  0  0
 34 36  1  0  0  0
 34 59  1  0  0  0
 34105  1  0  0  0
 35 44  2  0  0  0
 35 45  1  0  0  0
 35 68  1  0  0  0
 36 56  1  0  0  0
 36106  1  0  0  0
 37 39  1  0  0  0
 37 47  1  0  0  0
 37 66  1  0  0  0
 37107  1  0  0  0
 38 43  2  0  0  0
 38 46  1  0  0  0
 38 47  1  0  0  0
 39 64  1  0  0  0
 39 67  2  0  0  0
 40 52  1  0  0  0
 40 53  2  0  0  0
 40 58  1  0  0  0
 41108  1  0  0  0
 41109  1  0  0  0
 41110  1  0  0  0
 41 48  1  0  0  0
 42 43  1  0  0  0
 42 66  1  0  0  0
 42111  1  0  0  0
 42112  1  0  0  0
 43 44  1  0  0  0
 44113  1  0  0  0
 45 46  2  0  0  0
 45114  1  0  0  0
 46115  1  0  0  0
 47116  1  0  0  0
 47117  1  0  0  0
 48 56  1  0  0  0
 48 65  1  0  0  0
 48118  1  0  0  0
 49 50  1  0  0  0
 49 53  1  0  0  0
 49 64  1  0  0  0
 49119  1  0  0  0
 50 51  1  0  0  0
 50120  1  0  0  0
 50121  1  0  0  0
 51 52  1  0  0  0
 51122  1  0  0  0
 51123  1  0  0  0
 52124  1  0  0  0
 52125  1  0  0  0
 53 54  1  0  0  0
 54 55  2  0  0  0
 54126  1  0  0  0
 55 57  1  0  0  0
 55127  1  0  0  0
 56 69  2  0  0  0
 57 58  2  0  0  0
 57128  1  0  0  0
 58129  1  0  0  0
 59 60  1  0  0  0
 59 61  1  0  0  0
 59 62  1  0  0  0
 60130  1  0  0  0
 60131  1  0  0  0
 60132  1  0  0  0
 61133  1  0  0  0
 61134  1  0  0  0
 61135  1  0  0  0
 62136  1  0  0  0
 62137  1  0  0  0
 62138  1  0  0  0
 63 65  1  0  0  0
 63139  1  0  0  0
 63140  1  0  0  0
 63141  1  0  0  0
 64142  1  0  0  0
 65143  1  0  0  0
 68 81  1  0  0  0
 71 72  2  0  0  0
 71 83  1  0  0  0
 71144  1  0  0  0
 72 73  1  0  0  0
 72 75  1  0  0  0
 73 74  1  0  0  0
 73 82  2  0  0  0
 74145  1  0  0  0
 74146  1  0  0  0
 74147  1  0  0  0
 75 76  1  0  0  0
 75148  1  0  0  0
 75149  1  0  0  0
 76 77  1  0  0  0
 76150  1  0  0  0
 76151  1  0  0  0
 77 78  1  0  0  0
 77152  1  0  0  0
 77153  1  0  0  0
 78 81  1  0  0  0
 78154  1  0  0  0
 78155  1  0  0  0
 79 80  1  0  0  0
 79 83  1  0  0  0
 79156  1  0  0  0
 79157  1  0  0  0
 80 84  1  0  0  0
 80158  1  0  0  0
 80159  1  0  0  0
 81160  1  0  0  0
 81161  1  0  0  0
 82 83  1  0  0  0
 84162  1  0  0  0
M  ISO  4   1 100  68 101  81 101  84 100
M  END
> <chiral flag>
0

> <version>
0

> <s_m_source_file>
/data/baiqing/PycharmProjects/Reinvent-master-3.2/result/LINK_invent/BTK/process_docking_weight1_custom_sum_contain_oxygen_bond_distance_aromatic_linkinvent_7_9_3/rearranged_h_0097.sdf

> <i_m_source_file_index>
87

> <r_mmod_Potential_Energy-OPLS-2005>
-130.360412597656

> <r_mmod_Stretch_Energy-OPLS-2005>
30.9877300262451

> <r_mmod_Bend_Energy-OPLS-2005>
101.960754394531

> <r_mmod_Torsional_Energy-OPLS-2005>
207.566146850586

> <r_mmod_Improper_Torsional_Energy-OPLS-2005>
2.6603684425354

> <r_mmod_Van_der_Waal_Energy-OPLS-2005>
129.7861328125

> <r_mmod_Electrostatic_Energy-OPLS-2005>
-386.664855957031

> <r_mmod_Solvation_Energy-OPLS-2005>
-224.334976196289

> <b_mmod_Minimization_Converged-OPLS-2005>
0

> <r_mmod_RMS_Derivative-OPLS-2005>
1.99813389778137

$$$$
88
                    3D
 Structure written by MMmdl.
163171  0  0  1  0            999 V2000
  -30.6261  -14.7280   20.4730 C   0  0  0  0  0  0
  -30.4295  -12.4502   19.4653 C   0  0  0  0  0  0
  -29.5062  -12.5072   18.2296 C   0  0  0  0  0  0
  -28.0330  -12.3319   18.6458 C   0  0  0  0  0  0
  -27.6405  -13.2322   19.8477 C   0  0  2  0  0  0
  -28.6860  -13.1644   20.9814 C   0  0  0  0  0  0
  -25.2507  -13.8200   20.5686 C   0  0  0  0  0  0
  -24.1802  -13.0442   20.9204 C   0  0  0  0  0  0
  -24.6393  -11.6920   20.8745 C   0  0  0  0  0  0
  -23.9070  -10.4296   21.0405 C   0  0  0  0  0  0
  -24.3621   -9.4211   21.9183 C   0  0  0  0  0  0
  -23.6296   -8.2246   22.0754 C   0  0  0  0  0  0
  -22.4278   -8.0283   21.3545 C   0  0  0  0  0  0
  -21.9912   -9.0256   20.4646 C   0  0  0  0  0  0
  -22.7241  -10.2136   20.3055 C   0  0  0  0  0  0
  -21.6854   -6.0736   22.5279 C   0  0  0  0  0  0
  -21.4016   -6.5640   23.8213 C   0  0  0  0  0  0
  -21.3660   -5.6792   24.9174 C   0  0  0  0  0  0
  -21.6044   -4.3055   24.7225 C   0  0  0  0  0  0
  -21.8820   -3.8146   23.4346 C   0  0  0  0  0  0
  -21.9194   -4.6964   22.3402 C   0  0  0  0  0  0
  -22.7823  -13.5222   21.1865 C   0  0  0  0  0  0
  -22.1661   -4.2149   21.0980 F   0  0  0  0  0  0
  -21.5628   -3.4539   25.7738 F   0  0  0  0  0  0
  -29.9853  -13.5129   20.3951 N   0  0  0  0  0  0
  -26.2932  -12.9408   20.3268 N   0  0  0  0  0  0
  -25.9323  -11.6549   20.5745 N   0  0  0  0  0  0
  -22.0472  -12.8213   22.0424 N   0  0  0  0  0  0
  -25.4186  -15.1925   20.4104 N   0  0  0  0  0  0
  -31.8190  -14.8100   20.1700 O   0  0  0  0  0  0
  -21.6643   -6.8879   21.4241 O   0  0  0  0  0  0
  -22.3503  -14.5522   20.6706 O   0  0  0  0  0  0
  -24.6306  -31.8554   23.1981 C   0  0  0  0  0  0
  -25.9131  -32.4757   23.8329 C   0  0  1  0  0  0
  -27.2188  -27.2704   20.1363 C   0  0  0  0  0  0
  -25.5929  -33.8559   24.2255 N   0  0  0  0  0  0
  -23.4273  -30.4774   21.5413 C   0  0  2  0  0  0
  -24.8752  -28.9220   20.1131 C   0  0  0  0  0  0
  -22.7498  -29.4604   22.4914 C   0  0  0  0  0  0
  -18.0291  -28.1388   22.8485 C   0  0  0  0  0  0
  -24.1488  -36.7282   23.2641 C   0  0  0  0  0  0
  -25.9719  -30.7721   21.3758 C   0  0  0  0  0  0
  -26.0467  -29.3940   20.7206 C   0  0  0  0  0  0
  -27.2255  -28.5820   20.7174 C   0  0  0  0  0  0
  -26.0288  -26.8613   19.5009 C   0  0  0  0  0  0
  -24.8704  -27.6628   19.4916 C   0  0  0  0  0  0
  -23.6458  -29.8088   20.1584 C   0  0  0  0  0  0
  -25.4115  -36.3071   24.0327 C   0  0  1  0  0  0
  -20.5895  -28.3698   23.1269 C   0  0  2  0  0  0
  -20.6778  -26.9416   22.5407 C   0  0  0  0  0  0
  -19.5754  -26.6383   21.5211 C   0  0  0  0  0  0
  -18.1935  -26.7930   22.1625 C   0  0  0  0  0  0
  -19.1545  -28.8860   23.2872 C   0  0  0  0  0  0
  -18.9468  -30.1460   23.8892 C   0  0  0  0  0  0
  -17.6467  -30.6590   24.0563 C   0  0  0  0  0  0
  -25.9055  -34.9441   23.5094 C   0  0  0  0  0  0
  -16.5358  -29.9088   23.6332 C   0  0  0  0  0  0
  -16.7277  -28.6505   23.0354 C   0  0  0  0  0  0
  -26.4501  -31.6581   25.0717 C   0  0  0  0  0  0
  -25.3724  -31.3730   26.1438 C   0  0  0  0  0  0
  -27.0353  -30.2999   24.6199 C   0  0  0  0  0  0
  -27.6051  -32.4325   25.7493 C   0  0  0  0  0  0
  -27.5577  -37.1797   24.8466 C   0  0  0  0  0  0
  -21.4206  -29.3046   22.3657 N   0  0  0  0  0  0
  -26.4289  -37.3770   23.9410 N   0  0  0  0  0  0
  -24.6957  -31.0528   22.0951 N   0  0  0  0  0  0
  -23.4199  -28.8149   23.3017 O   0  0  0  0  0  0
  -28.3070  -26.3723   20.1438 O   0  0  0  0  0  0
  -26.5629  -34.8917   22.4665 O   0  0  0  0  0  0
  -23.5457  -32.1371   23.7282 O   0  0  0  0  0  0
  -29.6499  -19.8519   21.1943 C   0  0  0  0  0  0
  -28.5264  -20.2740   19.3490 C   0  0  0  0  0  0
  -29.6502  -18.6367   20.5047 C   0  0  0  0  0  0
  -28.9084  -18.9404   19.3122 C   0  0  0  0  0  0
  -29.8287  -17.8465   17.2492 C   0  0  0  0  0  0
  -27.3387  -18.2992   17.4201 C   0  0  0  0  0  0
  -28.5942  -25.2300   22.2160 C   0  0  0  0  0  0
  -30.4075  -17.2901   20.9153 C   0  0  0  0  0  0
  -28.7432  -23.6529   20.1488 C   0  0  0  0  0  0
  -28.6356  -22.2903   21.0252 C   0  0  0  0  0  0
  -28.6234  -17.9601   18.1918 C   0  0  0  0  0  0
  -28.1120  -25.0211   20.7722 C   0  0  2  0  0  0
  -28.9693  -20.8875   20.5100 N   0  0  0  0  0  0
  -29.8830  -15.8729   20.7120 N   0  0  0  0  0  0
  -31.4701  -12.5736   19.1605 H   0  0  0  0  0  0
  -30.3733  -11.4733   19.9479 H   0  0  0  0  0  0
  -29.7867  -11.7360   17.5110 H   0  0  0  0  0  0
  -29.6327  -13.4631   17.7187 H   0  0  0  0  0  0
  -27.8905  -11.2832   18.9090 H   0  0  0  0  0  0
  -27.3742  -12.5238   17.7980 H   0  0  0  0  0  0
  -27.6350  -14.2541   19.4677 H   0  0  0  0  0  0
  -28.7206  -12.1668   21.4216 H   0  0  0  0  0  0
  -28.4245  -13.8480   21.7907 H   0  0  0  0  0  0
  -25.2766   -9.5688   22.4758 H   0  0  0  0  0  0
  -24.0005   -7.4638   22.7473 H   0  0  0  0  0  0
  -21.0843   -8.8774   19.8953 H   0  0  0  0  0  0
  -22.3696  -10.9674   19.6164 H   0  0  0  0  0  0
  -21.2010   -7.6149   23.9715 H   0  0  0  0  0  0
  -21.1479   -6.0523   25.9077 H   0  0  0  0  0  0
  -22.0599   -2.7608   23.2847 H   0  0  0  0  0  0
  -22.4091  -11.9878   22.4816 H   0  0  0  0  0  0
  -21.1088  -13.1234   22.2626 H   0  0  0  0  0  0
  -24.6490  -15.8435   20.5222 H   0  0  0  0  0  0
  -26.2627  -15.6358   20.0723 H   0  0  0  0  0  0
  -26.7199  -32.5412   23.1073 H   0  0  0  0  0  0
  -25.0070  -33.9695   25.0397 H   0  0  0  0  0  0
  -22.7237  -31.2993   21.3938 H   0  0  0  0  0  0
  -23.3752  -35.9613   23.3303 H   0  0  0  0  0  0
  -24.3577  -36.8905   22.2055 H   0  0  0  0  0  0
  -23.7239  -37.6482   23.6667 H   0  0  0  0  0  0
  -26.1083  -31.5321   20.6054 H   0  0  0  0  0  0
  -26.8502  -30.8227   22.0078 H   0  0  0  0  0  0
  -28.1256  -28.9389   21.1981 H   0  0  0  0  0  0
  -25.9881  -25.8942   19.0198 H   0  0  0  0  0  0
  -23.9744  -27.2963   19.0097 H   0  0  0  0  0  0
  -23.7708  -30.5835   19.4010 H   0  0  0  0  0  0
  -22.7643  -29.2417   19.8536 H   0  0  0  0  0  0
  -25.1298  -36.1917   25.0820 H   0  0  0  0  0  0
  -20.9989  -28.3278   24.1389 H   0  0  0  0  0  0
  -20.5674  -26.2312   23.3614 H   0  0  0  0  0  0
  -21.6647  -26.7438   22.1205 H   0  0  0  0  0  0
  -19.6917  -25.6292   21.1246 H   0  0  0  0  0  0
  -19.6691  -27.3190   20.6738 H   0  0  0  0  0  0
  -17.4204  -26.6675   21.4028 H   0  0  0  0  0  0
  -18.0338  -26.0074   22.9023 H   0  0  0  0  0  0
  -19.7944  -30.7275   24.2261 H   0  0  0  0  0  0
  -17.5024  -31.6270   24.5164 H   0  0  0  0  0  0
  -15.5359  -30.2991   23.7658 H   0  0  0  0  0  0
  -15.8677  -28.0822   22.7075 H   0  0  0  0  0  0
  -24.5901  -30.7078   25.7766 H   0  0  0  0  0  0
  -24.8915  -32.2900   26.4853 H   0  0  0  0  0  0
  -25.8041  -30.8914   27.0221 H   0  0  0  0  0  0
  -26.2940  -29.6743   24.1214 H   0  0  0  0  0  0
  -27.4031  -29.7265   25.4717 H   0  0  0  0  0  0
  -27.8815  -30.4279   23.9446 H   0  0  0  0  0  0
  -27.2656  -33.3628   26.2058 H   0  0  0  0  0  0
  -28.3869  -32.6880   25.0327 H   0  0  0  0  0  0
  -28.0713  -31.8460   26.5420 H   0  0  0  0  0  0
  -28.2596  -38.0093   24.7511 H   0  0  0  0  0  0
  -28.1072  -36.2624   24.6295 H   0  0  0  0  0  0
  -27.2295  -37.1450   25.8870 H   0  0  0  0  0  0
  -20.9392  -29.8768   21.6860 H   0  0  0  0  0  0
  -26.0167  -38.2843   24.1411 H   0  0  0  0  0  0
  -30.0921  -20.0770   22.1566 H   0  0  0  0  0  0
  -27.9460  -20.8484   18.6386 H   0  0  0  0  0  0
  -30.7217  -17.5290   17.7888 H   0  0  0  0  0  0
  -30.0510  -18.8022   16.7732 H   0  0  0  0  0  0
  -29.6459  -17.1157   16.4611 H   0  0  0  0  0  0
  -26.4794  -18.3498   18.0898 H   0  0  0  0  0  0
  -27.1226  -17.5382   16.6698 H   0  0  0  0  0  0
  -27.4177  -19.2552   16.9018 H   0  0  0  0  0  0
  -28.3451  -24.3829   22.8545 H   0  0  0  0  0  0
  -28.1281  -26.1082   22.6639 H   0  0  0  0  0  0
  -29.6743  -25.3738   22.2529 H   0  0  0  0  0  0
  -30.6343  -17.3739   21.9787 H   0  0  0  0  0  0
  -31.3787  -17.3521   20.4223 H   0  0  0  0  0  0
  -28.2694  -23.4775   19.1831 H   0  0  0  0  0  0
  -29.7962  -23.8260   19.9275 H   0  0  0  0  0  0
  -27.6090  -22.2304   21.3877 H   0  0  0  0  0  0
  -29.2374  -22.4340   21.9226 H   0  0  0  0  0  0
  -28.4675  -16.9841   18.6520 H   0  0  0  0  0  0
  -27.0405  -24.8307   20.8397 H   0  0  0  0  0  0
  -28.8988  -15.7364   20.8825 H   0  0  0  0  0  0
  1 25  1  0  0  0
  1 30  2  0  0  0
  1 84  1  0  0  0
  2  3  1  0  0  0
  2 25  1  0  0  0
  2 85  1  0  0  0
  2 86  1  0  0  0
  3  4  1  0  0  0
  3 87  1  0  0  0
  3 88  1  0  0  0
  4  5  1  0  0  0
  4 89  1  0  0  0
  4 90  1  0  0  0
  5  6  1  0  0  0
  5 26  1  0  0  0
  5 91  1  0  0  0
  6 25  1  0  0  0
  6 92  1  0  0  0
  6 93  1  0  0  0
  7  8  2  0  0  0
  7 26  1  0  0  0
  7 29  1  0  0  0
  8  9  1  0  0  0
  8 22  1  0  0  0
  9 10  1  0  0  0
  9 27  2  0  0  0
 10 11  2  0  0  0
 10 15  1  0  0  0
 11 12  1  0  0  0
 11 94  1  0  0  0
 12 13  2  0  0  0
 12 95  1  0  0  0
 13 14  1  0  0  0
 13 31  1  0  0  0
 14 15  2  0  0  0
 14 96  1  0  0  0
 15 97  1  0  0  0
 16 17  2  0  0  0
 16 21  1  0  0  0
 16 31  1  0  0  0
 17 18  1  0  0  0
 17 98  1  0  0  0
 18 19  2  0  0  0
 18 99  1  0  0  0
 19 20  1  0  0  0
 19 24  1  0  0  0
 20 21  2  0  0  0
 20100  1  0  0  0
 21 23  1  0  0  0
 22 28  1  0  0  0
 22 32  2  0  0  0
 26 27  1  0  0  0
 28101  1  0  0  0
 28102  1  0  0  0
 29103  1  0  0  0
 29104  1  0  0  0
 33 34  1  0  0  0
 33 66  1  0  0  0
 33 70  2  0  0  0
 34 36  1  0  0  0
 34 59  1  0  0  0
 34105  1  0  0  0
 35 44  2  0  0  0
 35 45  1  0  0  0
 35 68  1  0  0  0
 36 56  1  0  0  0
 36106  1  0  0  0
 37 39  1  0  0  0
 37 47  1  0  0  0
 37 66  1  0  0  0
 37107  1  0  0  0
 38 43  2  0  0  0
 38 46  1  0  0  0
 38 47  1  0  0  0
 39 64  1  0  0  0
 39 67  2  0  0  0
 40 52  1  0  0  0
 40 53  2  0  0  0
 40 58  1  0  0  0
 41108  1  0  0  0
 41109  1  0  0  0
 41110  1  0  0  0
 41 48  1  0  0  0
 42 43  1  0  0  0
 42 66  1  0  0  0
 42111  1  0  0  0
 42112  1  0  0  0
 43 44  1  0  0  0
 44113  1  0  0  0
 45 46  2  0  0  0
 45114  1  0  0  0
 46115  1  0  0  0
 47116  1  0  0  0
 47117  1  0  0  0
 48 56  1  0  0  0
 48 65  1  0  0  0
 48118  1  0  0  0
 49 50  1  0  0  0
 49 53  1  0  0  0
 49 64  1  0  0  0
 49119  1  0  0  0
 50 51  1  0  0  0
 50120  1  0  0  0
 50121  1  0  0  0
 51 52  1  0  0  0
 51122  1  0  0  0
 51123  1  0  0  0
 52124  1  0  0  0
 52125  1  0  0  0
 53 54  1  0  0  0
 54 55  2  0  0  0
 54126  1  0  0  0
 55 57  1  0  0  0
 55127  1  0  0  0
 56 69  2  0  0  0
 57 58  2  0  0  0
 57128  1  0  0  0
 58129  1  0  0  0
 59 60  1  0  0  0
 59 61  1  0  0  0
 59 62  1  0  0  0
 60130  1  0  0  0
 60131  1  0  0  0
 60132  1  0  0  0
 61133  1  0  0  0
 61134  1  0  0  0
 61135  1  0  0  0
 62136  1  0  0  0
 62137  1  0  0  0
 62138  1  0  0  0
 63 65  1  0  0  0
 63139  1  0  0  0
 63140  1  0  0  0
 63141  1  0  0  0
 64142  1  0  0  0
 65143  1  0  0  0
 68 82  1  0  0  0
 71 73  2  0  0  0
 71 83  1  0  0  0
 71144  1  0  0  0
 72 74  2  0  0  0
 72 83  1  0  0  0
 72145  1  0  0  0
 73 74  1  0  0  0
 73 78  1  0  0  0
 74 81  1  0  0  0
 75146  1  0  0  0
 75147  1  0  0  0
 75148  1  0  0  0
 75 81  1  0  0  0
 76 81  1  0  0  0
 76149  1  0  0  0
 76150  1  0  0  0
 76151  1  0  0  0
 77152  1  0  0  0
 77153  1  0  0  0
 77154  1  0  0  0
 77 82  1  0  0  0
 78 84  1  0  0  0
 78155  1  0  0  0
 78156  1  0  0  0
 79 80  1  0  0  0
 79 82  1  0  0  0
 79157  1  0  0  0
 79158  1  0  0  0
 80 83  1  0  0  0
 80159  1  0  0  0
 80160  1  0  0  0
 81161  1  0  0  0
 82162  1  0  0  0
 84163  1  0  0  0
M  ISO  4   1 100  68 101  82 101  84 100
M  END
> <chiral flag>
0

> <version>
0

> <s_m_source_file>
/data/baiqing/PycharmProjects/Reinvent-master-3.2/result/LINK_invent/BTK/process_docking_weight1_custom_sum_contain_oxygen_bond_distance_aromatic_linkinvent_7_9_3/rearranged_h_0097.sdf

> <i_m_source_file_index>
88

> <r_mmod_Potential_Energy-OPLS-2005>
63.4054832458496

> <r_mmod_Stretch_Energy-OPLS-2005>
115.026390075684

> <r_mmod_Bend_Energy-OPLS-2005>
175.712219238281

> <r_mmod_Torsional_Energy-OPLS-2005>
235.941970825195

> <r_mmod_Improper_Torsional_Energy-OPLS-2005>
5.16597127914429

> <r_mmod_Van_der_Waal_Energy-OPLS-2005>
106.020652770996

> <r_mmod_Electrostatic_Energy-OPLS-2005>
-449.328704833984

> <r_mmod_Solvation_Energy-OPLS-2005>
-204.731750488281

> <b_mmod_Minimization_Converged-OPLS-2005>
0

> <r_mmod_RMS_Derivative-OPLS-2005>
0.271709233522415

$$$$
89
                    3D
 Structure written by MMmdl.
167175  0  0  1  0            999 V2000
  -30.7373  -14.4738   20.5172 C   0  0  0  0  0  0
  -30.4045  -12.2951   19.4393 C   0  0  0  0  0  0
  -29.4903  -12.4825   18.2126 C   0  0  0  0  0  0
  -28.0142  -12.3422   18.6308 C   0  0  0  0  0  0
  -27.6526  -13.2153   19.8621 C   0  0  2  0  0  0
  -28.6960  -13.0627   20.9939 C   0  0  0  0  0  0
  -25.2541  -13.8184   20.5677 C   0  0  0  0  0  0
  -24.1805  -13.0442   20.9174 C   0  0  0  0  0  0
  -24.6373  -11.6908   20.8726 C   0  0  0  0  0  0
  -23.9050  -10.4294   21.0400 C   0  0  0  0  0  0
  -24.3610   -9.4214   21.9178 C   0  0  0  0  0  0
  -23.6288   -8.2246   22.0751 C   0  0  0  0  0  0
  -22.4274   -8.0277   21.3535 C   0  0  0  0  0  0
  -21.9897   -9.0250   20.4637 C   0  0  0  0  0  0
  -22.7221  -10.2131   20.3042 C   0  0  0  0  0  0
  -21.6856   -6.0724   22.5270 C   0  0  0  0  0  0
  -21.4014   -6.5626   23.8205 C   0  0  0  0  0  0
  -21.3661   -5.6782   24.9164 C   0  0  0  0  0  0
  -21.6049   -4.3049   24.7222 C   0  0  0  0  0  0
  -21.8824   -3.8136   23.4348 C   0  0  0  0  0  0
  -21.9196   -4.6947   22.3396 C   0  0  0  0  0  0
  -22.7832  -13.5224   21.1855 C   0  0  0  0  0  0
  -22.1664   -4.2129   21.0979 F   0  0  0  0  0  0
  -21.5635   -3.4536   25.7742 F   0  0  0  0  0  0
  -30.0251  -13.3207   20.4251 N   0  0  0  0  0  0
  -26.2979  -12.9363   20.3327 N   0  0  0  0  0  0
  -25.9299  -11.6519   20.5747 N   0  0  0  0  0  0
  -22.0502  -12.8197   22.0426 N   0  0  0  0  0  0
  -25.4274  -15.1904   20.4055 N   0  0  0  0  0  0
  -31.9102  -14.5435   20.1463 O   0  0  0  0  0  0
  -21.6647   -6.8870   21.4230 O   0  0  0  0  0  0
  -22.3502  -14.5539   20.6731 O   0  0  0  0  0  0
  -24.6123  -31.8705   23.2097 C   0  0  0  0  0  0
  -25.9018  -32.4834   23.8394 C   0  0  1  0  0  0
  -27.2404  -27.4448   20.1155 C   0  0  0  0  0  0
  -25.5885  -33.8627   24.2348 N   0  0  0  0  0  0
  -23.4017  -30.4923   21.5503 C   0  0  2  0  0  0
  -24.8531  -28.9582   20.1209 C   0  0  0  0  0  0
  -22.7408  -29.4672   22.4985 C   0  0  0  0  0  0
  -18.0284  -28.1373   22.8503 C   0  0  0  0  0  0
  -24.1501  -36.7312   23.2633 C   0  0  0  0  0  0
  -25.9294  -30.8380   21.3662 C   0  0  0  0  0  0
  -26.0088  -29.4684   20.7269 C   0  0  0  0  0  0
  -27.2066  -28.7162   20.7336 C   0  0  0  0  0  0
  -26.0753  -26.9533   19.4942 C   0  0  0  0  0  0
  -24.8779  -27.6957   19.5037 C   0  0  0  0  0  0
  -23.6133  -29.8246   20.1658 C   0  0  0  0  0  0
  -25.4111  -36.3122   24.0352 C   0  0  1  0  0  0
  -20.5878  -28.3660   23.1321 C   0  0  2  0  0  0
  -20.6775  -26.9398   22.5414 C   0  0  0  0  0  0
  -19.5749  -26.6391   21.5211 C   0  0  0  0  0  0
  -18.1929  -26.7925   22.1630 C   0  0  0  0  0  0
  -19.1533  -28.8827   23.2910 C   0  0  0  0  0  0
  -18.9459  -30.1446   23.8901 C   0  0  0  0  0  0
  -17.6461  -30.6572   24.0565 C   0  0  0  0  0  0
  -25.9031  -34.9488   23.5157 C   0  0  0  0  0  0
  -16.5347  -29.9075   23.6329 C   0  0  0  0  0  0
  -16.7274  -28.6497   23.0343 C   0  0  0  0  0  0
  -26.4485  -31.6563   25.0680 C   0  0  0  0  0  0
  -25.3770  -31.3665   26.1455 C   0  0  0  0  0  0
  -27.0299  -30.3016   24.6006 C   0  0  0  0  0  0
  -27.6072  -32.4297   25.7422 C   0  0  0  0  0  0
  -27.5590  -37.1813   24.8474 C   0  0  0  0  0  0
  -21.4136  -29.3023   22.3710 N   0  0  0  0  0  0
  -26.4305  -37.3799   23.9411 N   0  0  0  0  0  0
  -24.6657  -31.0826   22.1002 N   0  0  0  0  0  0
  -23.4181  -28.8228   23.3028 O   0  0  0  0  0  0
  -28.3616  -26.6484   20.0444 O   0  0  0  0  0  0
  -26.5591  -34.8938   22.4717 O   0  0  0  0  0  0
  -23.5319  -32.1438   23.7510 O   0  0  0  0  0  0
  -30.4033  -20.4197   22.0919 C   0  0  0  0  0  0
  -28.6834  -18.4152   21.3415 C   0  0  0  0  0  0
  -30.9473  -19.2312   21.5618 C   0  0  0  0  0  0
  -30.0655  -18.1895   21.1590 C   0  0  0  0  0  0
  -29.0105  -20.5629   22.1836 C   0  0  0  0  0  0
  -32.4564  -19.1391   21.3937 C   0  0  0  0  0  0
  -29.8297  -18.3537   18.2933 C   0  0  0  0  0  0
  -28.3801  -21.8728   22.6668 C   0  0  0  0  0  0
  -30.5858  -17.1355   18.8533 C   0  0  0  0  0  0
  -28.7553  -23.1294   21.8330 C   0  0  0  0  0  0
  -27.7857  -24.3270   22.0310 C   0  0  0  0  0  0
  -28.4143  -25.7048   22.3609 C   0  0  0  0  0  0
  -29.1482  -26.4496   21.2204 C   0  0  0  0  0  0
  -30.5874  -16.9439   20.4029 C   0  0  2  0  0  0
  -28.1666  -19.5692   21.8268 N   0  0  0  0  0  0
  -30.0436  -15.6101   20.7636 N   0  0  0  0  0  0
  -31.4526  -12.3529   19.1400 H   0  0  0  0  0  0
  -30.2731  -11.3013   19.8694 H   0  0  0  0  0  0
  -29.7345  -11.7479   17.4435 H   0  0  0  0  0  0
  -29.6572  -13.4630   17.7647 H   0  0  0  0  0  0
  -27.8404  -11.2896   18.8604 H   0  0  0  0  0  0
  -27.3578  -12.5799   17.7935 H   0  0  0  0  0  0
  -27.6780  -14.2498   19.5186 H   0  0  0  0  0  0
  -28.6639  -12.0565   21.4117 H   0  0  0  0  0  0
  -28.4773  -13.7413   21.8199 H   0  0  0  0  0  0
  -25.2761   -9.5690   22.4746 H   0  0  0  0  0  0
  -24.0001   -7.4638   22.7458 H   0  0  0  0  0  0
  -21.0839   -8.8752   19.8946 H   0  0  0  0  0  0
  -22.3678  -10.9660   19.6144 H   0  0  0  0  0  0
  -21.2011   -7.6135   23.9690 H   0  0  0  0  0  0
  -21.1477   -6.0523   25.9066 H   0  0  0  0  0  0
  -22.0608   -2.7596   23.2855 H   0  0  0  0  0  0
  -22.4133  -11.9840   22.4774 H   0  0  0  0  0  0
  -21.1115  -13.1188   22.2659 H   0  0  0  0  0  0
  -24.6576  -15.8444   20.4966 H   0  0  0  0  0  0
  -26.2710  -15.6212   20.0523 H   0  0  0  0  0  0
  -26.7076  -32.5581   23.1155 H   0  0  0  0  0  0
  -25.0066  -33.9764   25.0518 H   0  0  0  0  0  0
  -22.6886  -31.3063   21.4087 H   0  0  0  0  0  0
  -23.3759  -35.9648   23.3326 H   0  0  0  0  0  0
  -24.3584  -36.8890   22.2034 H   0  0  0  0  0  0
  -23.7267  -37.6532   23.6633 H   0  0  0  0  0  0
  -26.0340  -31.5981   20.5906 H   0  0  0  0  0  0
  -26.8185  -30.9038   21.9808 H   0  0  0  0  0  0
  -28.0952  -29.1186   21.2002 H   0  0  0  0  0  0
  -26.1000  -25.9866   19.0123 H   0  0  0  0  0  0
  -23.9947  -27.2978   19.0238 H   0  0  0  0  0  0
  -23.7224  -30.5982   19.4049 H   0  0  0  0  0  0
  -22.7386  -29.2428   19.8689 H   0  0  0  0  0  0
  -25.1297  -36.1977   25.0845 H   0  0  0  0  0  0
  -20.9987  -28.3239   24.1433 H   0  0  0  0  0  0
  -20.5690  -26.2262   23.3600 H   0  0  0  0  0  0
  -21.6646  -26.7448   22.1191 H   0  0  0  0  0  0
  -19.6907  -25.6307   21.1225 H   0  0  0  0  0  0
  -19.6680  -27.3209   20.6745 H   0  0  0  0  0  0
  -17.4198  -26.6684   21.4028 H   0  0  0  0  0  0
  -18.0322  -26.0055   22.9010 H   0  0  0  0  0  0
  -19.7927  -30.7280   24.2250 H   0  0  0  0  0  0
  -17.4999  -31.6244   24.5173 H   0  0  0  0  0  0
  -15.5344  -30.2966   23.7630 H   0  0  0  0  0  0
  -15.8691  -28.0811   22.7036 H   0  0  0  0  0  0
  -24.5987  -30.6913   25.7855 H   0  0  0  0  0  0
  -24.8904  -32.2815   26.4854 H   0  0  0  0  0  0
  -25.8189  -30.8944   27.0246 H   0  0  0  0  0  0
  -26.2813  -29.6804   24.1073 H   0  0  0  0  0  0
  -27.4097  -29.7238   25.4439 H   0  0  0  0  0  0
  -27.8668  -30.4332   23.9134 H   0  0  0  0  0  0
  -27.2668  -33.3553   26.2079 H   0  0  0  0  0  0
  -28.3815  -32.6927   25.0201 H   0  0  0  0  0  0
  -28.0829  -31.8415   26.5272 H   0  0  0  0  0  0
  -28.2628  -38.0092   24.7504 H   0  0  0  0  0  0
  -28.1081  -36.2627   24.6352 H   0  0  0  0  0  0
  -27.2309  -37.1517   25.8878 H   0  0  0  0  0  0
  -20.9283  -29.8726   21.6929 H   0  0  0  0  0  0
  -26.0217  -38.2895   24.1390 H   0  0  0  0  0  0
  -31.0481  -21.2363   22.3910 H   0  0  0  0  0  0
  -27.9627  -17.6736   21.0304 H   0  0  0  0  0  0
  -32.8676  -18.3362   22.0062 H   0  0  0  0  0  0
  -32.9503  -20.0632   21.6938 H   0  0  0  0  0  0
  -32.7175  -18.9493   20.3529 H   0  0  0  0  0  0
  -29.9398  -18.4053   17.2101 H   0  0  0  0  0  0
  -30.2074  -19.2925   18.6964 H   0  0  0  0  0  0
  -28.7620  -18.2932   18.5054 H   0  0  0  0  0  0
  -28.6594  -22.0294   23.7096 H   0  0  0  0  0  0
  -27.2969  -21.7476   22.6673 H   0  0  0  0  0  0
  -31.6237  -17.2270   18.5286 H   0  0  0  0  0  0
  -30.2184  -16.2416   18.3476 H   0  0  0  0  0  0
  -28.7438  -22.8620   20.7752 H   0  0  0  0  0  0
  -29.7827  -23.4174   22.0552 H   0  0  0  0  0  0
  -27.1098  -24.0939   22.8542 H   0  0  0  0  0  0
  -27.1385  -24.4216   21.1584 H   0  0  0  0  0  0
  -29.0984  -25.5897   23.2024 H   0  0  0  0  0  0
  -27.6204  -26.3561   22.7278 H   0  0  0  0  0  0
  -29.5347  -27.4009   21.5869 H   0  0  0  0  0  0
  -30.0251  -25.8722   20.9297 H   0  0  0  0  0  0
  -31.6350  -16.8800   20.6898 H   0  0  0  0  0  0
  -29.0672  -15.5232   20.9983 H   0  0  0  0  0  0
  1 25  1  0  0  0
  1 30  2  0  0  0
  1 86  1  0  0  0
  2  3  1  0  0  0
  2 25  1  0  0  0
  2 87  1  0  0  0
  2 88  1  0  0  0
  3  4  1  0  0  0
  3 89  1  0  0  0
  3 90  1  0  0  0
  4  5  1  0  0  0
  4 91  1  0  0  0
  4 92  1  0  0  0
  5  6  1  0  0  0
  5 26  1  0  0  0
  5 93  1  0  0  0
  6 25  1  0  0  0
  6 94  1  0  0  0
  6 95  1  0  0  0
  7  8  2  0  0  0
  7 26  1  0  0  0
  7 29  1  0  0  0
  8  9  1  0  0  0
  8 22  1  0  0  0
  9 10  1  0  0  0
  9 27  2  0  0  0
 10 11  2  0  0  0
 10 15  1  0  0  0
 11 12  1  0  0  0
 11 96  1  0  0  0
 12 13  2  0  0  0
 12 97  1  0  0  0
 13 14  1  0  0  0
 13 31  1  0  0  0
 14 15  2  0  0  0
 14 98  1  0  0  0
 15 99  1  0  0  0
 16 17  2  0  0  0
 16 21  1  0  0  0
 16 31  1  0  0  0
 17 18  1  0  0  0
 17100  1  0  0  0
 18 19  2  0  0  0
 18101  1  0  0  0
 19 20  1  0  0  0
 19 24  1  0  0  0
 20 21  2  0  0  0
 20102  1  0  0  0
 21 23  1  0  0  0
 22 28  1  0  0  0
 22 32  2  0  0  0
 26 27  1  0  0  0
 28103  1  0  0  0
 28104  1  0  0  0
 29105  1  0  0  0
 29106  1  0  0  0
 33 34  1  0  0  0
 33 66  1  0  0  0
 33 70  2  0  0  0
 34 36  1  0  0  0
 34 59  1  0  0  0
 34107  1  0  0  0
 35 44  2  0  0  0
 35 45  1  0  0  0
 35 68  1  0  0  0
 36 56  1  0  0  0
 36108  1  0  0  0
 37 39  1  0  0  0
 37 47  1  0  0  0
 37 66  1  0  0  0
 37109  1  0  0  0
 38 43  2  0  0  0
 38 46  1  0  0  0
 38 47  1  0  0  0
 39 64  1  0  0  0
 39 67  2  0  0  0
 40 52  1  0  0  0
 40 53  2  0  0  0
 40 58  1  0  0  0
 41110  1  0  0  0
 41111  1  0  0  0
 41112  1  0  0  0
 41 48  1  0  0  0
 42 43  1  0  0  0
 42 66  1  0  0  0
 42113  1  0  0  0
 42114  1  0  0  0
 43 44  1  0  0  0
 44115  1  0  0  0
 45 46  2  0  0  0
 45116  1  0  0  0
 46117  1  0  0  0
 47118  1  0  0  0
 47119  1  0  0  0
 48 56  1  0  0  0
 48 65  1  0  0  0
 48120  1  0  0  0
 49 50  1  0  0  0
 49 53  1  0  0  0
 49 64  1  0  0  0
 49121  1  0  0  0
 50 51  1  0  0  0
 50122  1  0  0  0
 50123  1  0  0  0
 51 52  1  0  0  0
 51124  1  0  0  0
 51125  1  0  0  0
 52126  1  0  0  0
 52127  1  0  0  0
 53 54  1  0  0  0
 54 55  2  0  0  0
 54128  1  0  0  0
 55 57  1  0  0  0
 55129  1  0  0  0
 56 69  2  0  0  0
 57 58  2  0  0  0
 57130  1  0  0  0
 58131  1  0  0  0
 59 60  1  0  0  0
 59 61  1  0  0  0
 59 62  1  0  0  0
 60132  1  0  0  0
 60133  1  0  0  0
 60134  1  0  0  0
 61135  1  0  0  0
 61136  1  0  0  0
 61137  1  0  0  0
 62138  1  0  0  0
 62139  1  0  0  0
 62140  1  0  0  0
 63 65  1  0  0  0
 63141  1  0  0  0
 63142  1  0  0  0
 63143  1  0  0  0
 64144  1  0  0  0
 65145  1  0  0  0
 68 83  1  0  0  0
 71 73  2  0  0  0
 71 75  1  0  0  0
 71146  1  0  0  0
 72 74  2  0  0  0
 72 85  1  0  0  0
 72147  1  0  0  0
 73 74  1  0  0  0
 73 76  1  0  0  0
 74 84  1  0  0  0
 75 78  1  0  0  0
 75 85  2  0  0  0
 76148  1  0  0  0
 76149  1  0  0  0
 76150  1  0  0  0
 77 79  1  0  0  0
 77151  1  0  0  0
 77152  1  0  0  0
 77153  1  0  0  0
 78 80  1  0  0  0
 78154  1  0  0  0
 78155  1  0  0  0
 79156  1  0  0  0
 79157  1  0  0  0
 79 84  1  0  0  0
 80 81  1  0  0  0
 80158  1  0  0  0
 80159  1  0  0  0
 81 82  1  0  0  0
 81160  1  0  0  0
 81161  1  0  0  0
 82 83  1  0  0  0
 82162  1  0  0  0
 82163  1  0  0  0
 83164  1  0  0  0
 83165  1  0  0  0
 84 86  1  0  0  0
 84166  1  0  0  0
 86167  1  0  0  0
M  ISO  4   1 100  68 101  83 101  86 100
M  END
> <chiral flag>
0

> <version>
0

> <s_m_source_file>
/data/baiqing/PycharmProjects/Reinvent-master-3.2/result/LINK_invent/BTK/process_docking_weight1_custom_sum_contain_oxygen_bond_distance_aromatic_linkinvent_7_9_3/rearranged_h_0097.sdf

> <i_m_source_file_index>
89

> <r_mmod_Potential_Energy-OPLS-2005>
-114.107360839844

> <r_mmod_Stretch_Energy-OPLS-2005>
40.2739868164062

> <r_mmod_Bend_Energy-OPLS-2005>
113.716247558594

> <r_mmod_Torsional_Energy-OPLS-2005>
240.009811401367

> <r_mmod_Improper_Torsional_Energy-OPLS-2005>
7.75490808486938

> <r_mmod_Van_der_Waal_Energy-OPLS-2005>
154.560958862305

> <r_mmod_Electrostatic_Energy-OPLS-2005>
-481.42333984375

> <r_mmod_Solvation_Energy-OPLS-2005>
-207.658248901367

> <b_mmod_Minimization_Converged-OPLS-2005>
0

> <r_mmod_RMS_Derivative-OPLS-2005>
2.73935127258301

$$$$
90
                    3D
 Structure written by MMmdl.
181189  0  0  1  0            999 V2000
  -30.6593  -14.5445   20.5427 C   0  0  0  0  0  0
  -30.4366  -12.3454   19.4382 C   0  0  0  0  0  0
  -29.5125  -12.5260   18.2153 C   0  0  0  0  0  0
  -28.0292  -12.3783   18.6150 C   0  0  0  0  0  0
  -27.6620  -13.2152   19.8716 C   0  0  2  0  0  0
  -28.7020  -13.0102   20.9973 C   0  0  0  0  0  0
  -25.2574  -13.8173   20.5676 C   0  0  0  0  0  0
  -24.1827  -13.0445   20.9183 C   0  0  0  0  0  0
  -24.6385  -11.6912   20.8726 C   0  0  0  0  0  0
  -23.9046  -10.4299   21.0409 C   0  0  0  0  0  0
  -24.3592   -9.4220   21.9196 C   0  0  0  0  0  0
  -23.6278   -8.2253   22.0771 C   0  0  0  0  0  0
  -22.4260   -8.0278   21.3561 C   0  0  0  0  0  0
  -21.9894   -9.0256   20.4663 C   0  0  0  0  0  0
  -22.7223  -10.2139   20.3064 C   0  0  0  0  0  0
  -21.6849   -6.0740   22.5305 C   0  0  0  0  0  0
  -21.4011   -6.5638   23.8242 C   0  0  0  0  0  0
  -21.3655   -5.6780   24.9192 C   0  0  0  0  0  0
  -21.6044   -4.3048   24.7239 C   0  0  0  0  0  0
  -21.8817   -3.8144   23.4352 C   0  0  0  0  0  0
  -21.9194   -4.6966   22.3415 C   0  0  0  0  0  0
  -22.7844  -13.5274   21.1833 C   0  0  0  0  0  0
  -22.1662   -4.2161   21.0994 F   0  0  0  0  0  0
  -21.5627   -3.4518   25.7740 F   0  0  0  0  0  0
  -30.0304  -13.3352   20.4515 N   0  0  0  0  0  0
  -26.3018  -12.9359   20.3302 N   0  0  0  0  0  0
  -25.9318  -11.6503   20.5693 N   0  0  0  0  0  0
  -22.0422  -12.8302   22.0355 N   0  0  0  0  0  0
  -25.4266  -15.1897   20.4140 N   0  0  0  0  0  0
  -31.7916  -14.7328   20.0901 O   0  0  0  0  0  0
  -21.6632   -6.8873   21.4261 O   0  0  0  0  0  0
  -22.3557  -14.5596   20.6684 O   0  0  0  0  0  0
  -24.6211  -31.8615   23.2041 C   0  0  0  0  0  0
  -25.9083  -32.4782   23.8355 C   0  0  1  0  0  0
  -27.2349  -27.3702   20.1249 C   0  0  0  0  0  0
  -25.5907  -33.8583   24.2284 N   0  0  0  0  0  0
  -23.4130  -30.4836   21.5439 C   0  0  2  0  0  0
  -24.8622  -28.9345   20.1178 C   0  0  0  0  0  0
  -22.7444  -29.4638   22.4952 C   0  0  0  0  0  0
  -18.0278  -28.1387   22.8490 C   0  0  0  0  0  0
  -24.1477  -36.7287   23.2645 C   0  0  0  0  0  0
  -25.9476  -30.8089   21.3669 C   0  0  0  0  0  0
  -26.0246  -29.4380   20.7155 C   0  0  0  0  0  0
  -27.2168  -28.6667   20.7055 C   0  0  0  0  0  0
  -26.0534  -26.8908   19.5217 C   0  0  0  0  0  0
  -24.8750  -27.6637   19.5151 C   0  0  0  0  0  0
  -23.6268  -29.8092   20.1617 C   0  0  0  0  0  0
  -25.4102  -36.3085   24.0335 C   0  0  1  0  0  0
  -20.5874  -28.3679   23.1295 C   0  0  2  0  0  0
  -20.6761  -26.9405   22.5418 C   0  0  0  0  0  0
  -19.5744  -26.6392   21.5208 C   0  0  0  0  0  0
  -18.1921  -26.7937   22.1611 C   0  0  0  0  0  0
  -19.1531  -28.8850   23.2890 C   0  0  0  0  0  0
  -18.9461  -30.1453   23.8900 C   0  0  0  0  0  0
  -17.6464  -30.6593   24.0567 C   0  0  0  0  0  0
  -25.9042  -34.9454   23.5115 C   0  0  0  0  0  0
  -16.5353  -29.9097   23.6336 C   0  0  0  0  0  0
  -16.7272  -28.6513   23.0357 C   0  0  0  0  0  0
  -26.4486  -31.6594   25.0722 C   0  0  0  0  0  0
  -25.3731  -31.3749   26.1463 C   0  0  0  0  0  0
  -27.0323  -30.3017   24.6166 C   0  0  0  0  0  0
  -27.6048  -32.4329   25.7487 C   0  0  0  0  0  0
  -27.5574  -37.1788   24.8462 C   0  0  0  0  0  0
  -21.4159  -29.3039   22.3698 N   0  0  0  0  0  0
  -26.4280  -37.3779   23.9421 N   0  0  0  0  0  0
  -24.6788  -31.0679   22.0953 N   0  0  0  0  0  0
  -23.4186  -28.8188   23.3024 O   0  0  0  0  0  0
  -28.3880  -26.5960   20.1087 O   0  0  0  0  0  0
  -26.5615  -34.8922   22.4684 O   0  0  0  0  0  0
  -23.5385  -32.1387   23.7395 O   0  0  0  0  0  0
  -28.3572  -21.7003   20.6360 C   0  0  0  0  0  0
  -29.1708  -20.6026   20.8619 C   0  0  0  0  0  0
  -30.4681  -21.0222   20.4092 C   0  0  0  0  0  0
  -30.3669  -22.3071   19.9109 C   0  0  0  0  0  0
  -31.7401  -20.2095   20.4479 C   0  0  0  0  0  0
  -29.4108  -25.2227   21.7768 C   0  0  0  0  0  0
  -28.2401  -19.6602   22.9495 C   0  0  0  0  0  0
  -27.4338  -18.7628   20.7743 C   0  0  0  0  0  0
  -31.4173  -23.1692   19.2605 C   0  0  0  0  0  0
  -31.4457  -23.0784   17.7211 C   0  0  0  0  0  0
  -31.8515  -21.7001   17.1683 C   0  0  0  0  0  0
  -29.6917  -18.0441   21.7227 C   0  0  0  0  0  0
  -28.4899  -24.0773   19.6261 C   0  0  0  0  0  0
  -30.0168  -17.0152   20.5771 C   0  0  0  0  0  0
  -31.9918  -21.7044   15.6337 C   0  0  0  0  0  0
  -28.3389  -25.2466   20.6758 C   0  0  2  0  0  0
  -28.6857  -19.2672   21.5211 C   0  0  0  0  0  0
  -29.0585  -22.7602   20.0679 N   0  0  0  0  0  0
  -29.8844  -15.5777   20.9594 N   0  0  0  0  0  0
  -32.3276  -20.3747   15.0979 N   0  3  0  0  0  0
  -31.4810  -12.4599   19.1406 H   0  0  0  0  0  0
  -30.3531  -11.3342   19.8392 H   0  0  0  0  0  0
  -29.7667  -11.8001   17.4425 H   0  0  0  0  0  0
  -29.6771  -13.5116   17.7733 H   0  0  0  0  0  0
  -27.8419  -11.3212   18.8053 H   0  0  0  0  0  0
  -27.3871  -12.6546   17.7780 H   0  0  0  0  0  0
  -27.6979  -14.2625   19.5687 H   0  0  0  0  0  0
  -28.6875  -11.9769   21.3468 H   0  0  0  0  0  0
  -28.4560  -13.6168   21.8707 H   0  0  0  0  0  0
  -25.2735   -9.5724   22.4760 H   0  0  0  0  0  0
  -24.0007   -7.4657   22.7492 H   0  0  0  0  0  0
  -21.0834   -8.8780   19.8963 H   0  0  0  0  0  0
  -22.3693  -10.9673   19.6154 H   0  0  0  0  0  0
  -21.1995   -7.6147   23.9747 H   0  0  0  0  0  0
  -21.1473   -6.0505   25.9102 H   0  0  0  0  0  0
  -22.0590   -2.7606   23.2848 H   0  0  0  0  0  0
  -22.3926  -11.9958   22.4824 H   0  0  0  0  0  0
  -21.1059  -13.1439   22.2497 H   0  0  0  0  0  0
  -24.6593  -15.8406   20.5448 H   0  0  0  0  0  0
  -26.2695  -15.6340   20.0745 H   0  0  0  0  0  0
  -26.7155  -32.5467   23.1110 H   0  0  0  0  0  0
  -25.0035  -33.9729   25.0414 H   0  0  0  0  0  0
  -22.7057  -31.3031   21.3986 H   0  0  0  0  0  0
  -23.3745  -35.9613   23.3310 H   0  0  0  0  0  0
  -24.3561  -36.8907   22.2056 H   0  0  0  0  0  0
  -23.7223  -37.6489   23.6660 H   0  0  0  0  0  0
  -26.0751  -31.5731   20.5988 H   0  0  0  0  0  0
  -26.8292  -30.8568   21.9952 H   0  0  0  0  0  0
  -28.1165  -29.0533   21.1642 H   0  0  0  0  0  0
  -26.0439  -25.9157   19.0550 H   0  0  0  0  0  0
  -23.9819  -27.2710   19.0499 H   0  0  0  0  0  0
  -23.7415  -30.5803   19.3987 H   0  0  0  0  0  0
  -22.7494  -29.2315   19.8656 H   0  0  0  0  0  0
  -25.1280  -36.1928   25.0827 H   0  0  0  0  0  0
  -20.9977  -28.3255   24.1410 H   0  0  0  0  0  0
  -20.5654  -26.2290   23.3616 H   0  0  0  0  0  0
  -21.6634  -26.7437   22.1219 H   0  0  0  0  0  0
  -19.6906  -25.6302   21.1240 H   0  0  0  0  0  0
  -19.6698  -27.3203   20.6740 H   0  0  0  0  0  0
  -17.4202  -26.6714   21.3996 H   0  0  0  0  0  0
  -18.0306  -26.0070   22.8994 H   0  0  0  0  0  0
  -19.7940  -30.7265   24.2273 H   0  0  0  0  0  0
  -17.5028  -31.6274   24.5171 H   0  0  0  0  0  0
  -15.5356  -30.3002   23.7663 H   0  0  0  0  0  0
  -15.8671  -28.0840   22.7066 H   0  0  0  0  0  0
  -24.5893  -30.7101   25.7818 H   0  0  0  0  0  0
  -24.8929  -32.2922   26.4878 H   0  0  0  0  0  0
  -25.8063  -30.8947   27.0244 H   0  0  0  0  0  0
  -26.2889  -29.6772   24.1199 H   0  0  0  0  0  0
  -27.4031  -29.7278   25.4671 H   0  0  0  0  0  0
  -27.8756  -30.4308   23.9378 H   0  0  0  0  0  0
  -27.2651  -33.3610   26.2094 H   0  0  0  0  0  0
  -28.3839  -32.6920   25.0307 H   0  0  0  0  0  0
  -28.0742  -31.8440   26.5377 H   0  0  0  0  0  0
  -28.2594  -38.0083   24.7512 H   0  0  0  0  0  0
  -28.1059  -36.2615   24.6265 H   0  0  0  0  0  0
  -27.2300  -37.1432   25.8868 H   0  0  0  0  0  0
  -20.9338  -29.8749   21.6898 H   0  0  0  0  0  0
  -26.0160  -38.2849   24.1435 H   0  0  0  0  0  0
  -27.3003  -21.8177   20.8320 H   0  0  0  0  0  0
  -31.9975  -19.9356   21.4702 H   0  0  0  0  0  0
  -32.5905  -20.7535   20.0429 H   0  0  0  0  0  0
  -31.6260  -19.3069   19.8532 H   0  0  0  0  0  0
  -29.4189  -24.2718   22.3109 H   0  0  0  0  0  0
  -29.2289  -26.0048   22.5131 H   0  0  0  0  0  0
  -30.4077  -25.3833   21.3682 H   0  0  0  0  0  0
  -27.4862  -20.4479   22.9440 H   0  0  0  0  0  0
  -29.0828  -20.0262   23.5385 H   0  0  0  0  0  0
  -27.8056  -18.8200   23.4919 H   0  0  0  0  0  0
  -26.6095  -19.4734   20.8401 H   0  0  0  0  0  0
  -27.0748  -17.8203   21.1906 H   0  0  0  0  0  0
  -27.6316  -18.6068   19.7139 H   0  0  0  0  0  0
  -32.4029  -22.9256   19.6547 H   0  0  0  0  0  0
  -31.2707  -24.2102   19.5449 H   0  0  0  0  0  0
  -32.1450  -23.8274   17.3474 H   0  0  0  0  0  0
  -30.4699  -23.3512   17.3182 H   0  0  0  0  0  0
  -31.1103  -20.9574   17.4680 H   0  0  0  0  0  0
  -32.7970  -21.3952   17.6183 H   0  0  0  0  0  0
  -30.6186  -18.3859   22.1774 H   0  0  0  0  0  0
  -29.2583  -17.4271   22.5105 H   0  0  0  0  0  0
  -29.0967  -24.4475   18.8023 H   0  0  0  0  0  0
  -27.5157  -23.8851   19.1758 H   0  0  0  0  0  0
  -31.0254  -17.1981   20.2068 H   0  0  0  0  0  0
  -29.3647  -17.1776   19.7208 H   0  0  0  0  0  0
  -32.7692  -22.4090   15.3321 H   0  0  0  0  0  0
  -31.0632  -22.0434   15.1707 H   0  0  0  0  0  0
  -27.3850  -25.0972   21.1847 H   0  0  0  0  0  0
  -28.9950  -15.3049   21.3478 H   0  0  0  0  0  0
  -33.1890  -20.0334   15.4854 H   0  0  0  0  0  0
  -32.4372  -20.4285   14.1009 H   0  0  0  0  0  0
  -31.5961  -19.7152   15.2931 H   0  0  0  0  0  0
  1 25  1  0  0  0
  1 30  2  0  0  0
  1 89  1  0  0  0
  2  3  1  0  0  0
  2 25  1  0  0  0
  2 91  1  0  0  0
  2 92  1  0  0  0
  3  4  1  0  0  0
  3 93  1  0  0  0
  3 94  1  0  0  0
  4  5  1  0  0  0
  4 95  1  0  0  0
  4 96  1  0  0  0
  5  6  1  0  0  0
  5 26  1  0  0  0
  5 97  1  0  0  0
  6 25  1  0  0  0
  6 98  1  0  0  0
  6 99  1  0  0  0
  7  8  2  0  0  0
  7 26  1  0  0  0
  7 29  1  0  0  0
  8  9  1  0  0  0
  8 22  1  0  0  0
  9 10  1  0  0  0
  9 27  2  0  0  0
 10 11  2  0  0  0
 10 15  1  0  0  0
 11 12  1  0  0  0
 11100  1  0  0  0
 12 13  2  0  0  0
 12101  1  0  0  0
 13 14  1  0  0  0
 13 31  1  0  0  0
 14 15  2  0  0  0
 14102  1  0  0  0
 15103  1  0  0  0
 16 17  2  0  0  0
 16 21  1  0  0  0
 16 31  1  0  0  0
 17 18  1  0  0  0
 17104  1  0  0  0
 18 19  2  0  0  0
 18105  1  0  0  0
 19 20  1  0  0  0
 19 24  1  0  0  0
 20 21  2  0  0  0
 20106  1  0  0  0
 21 23  1  0  0  0
 22 28  1  0  0  0
 22 32  2  0  0  0
 26 27  1  0  0  0
 28107  1  0  0  0
 28108  1  0  0  0
 29109  1  0  0  0
 29110  1  0  0  0
 33 34  1  0  0  0
 33 66  1  0  0  0
 33 70  2  0  0  0
 34 36  1  0  0  0
 34 59  1  0  0  0
 34111  1  0  0  0
 35 44  2  0  0  0
 35 45  1  0  0  0
 35 68  1  0  0  0
 36 56  1  0  0  0
 36112  1  0  0  0
 37 39  1  0  0  0
 37 47  1  0  0  0
 37 66  1  0  0  0
 37113  1  0  0  0
 38 43  2  0  0  0
 38 46  1  0  0  0
 38 47  1  0  0  0
 39 64  1  0  0  0
 39 67  2  0  0  0
 40 52  1  0  0  0
 40 53  2  0  0  0
 40 58  1  0  0  0
 41114  1  0  0  0
 41115  1  0  0  0
 41116  1  0  0  0
 41 48  1  0  0  0
 42 43  1  0  0  0
 42 66  1  0  0  0
 42117  1  0  0  0
 42118  1  0  0  0
 43 44  1  0  0  0
 44119  1  0  0  0
 45 46  2  0  0  0
 45120  1  0  0  0
 46121  1  0  0  0
 47122  1  0  0  0
 47123  1  0  0  0
 48 56  1  0  0  0
 48 65  1  0  0  0
 48124  1  0  0  0
 49 50  1  0  0  0
 49 53  1  0  0  0
 49 64  1  0  0  0
 49125  1  0  0  0
 50 51  1  0  0  0
 50126  1  0  0  0
 50127  1  0  0  0
 51 52  1  0  0  0
 51128  1  0  0  0
 51129  1  0  0  0
 52130  1  0  0  0
 52131  1  0  0  0
 53 54  1  0  0  0
 54 55  2  0  0  0
 54132  1  0  0  0
 55 57  1  0  0  0
 55133  1  0  0  0
 56 69  2  0  0  0
 57 58  2  0  0  0
 57134  1  0  0  0
 58135  1  0  0  0
 59 60  1  0  0  0
 59 61  1  0  0  0
 59 62  1  0  0  0
 60136  1  0  0  0
 60137  1  0  0  0
 60138  1  0  0  0
 61139  1  0  0  0
 61140  1  0  0  0
 61141  1  0  0  0
 62142  1  0  0  0
 62143  1  0  0  0
 62144  1  0  0  0
 63 65  1  0  0  0
 63145  1  0  0  0
 63146  1  0  0  0
 63147  1  0  0  0
 64148  1  0  0  0
 65149  1  0  0  0
 68 86  1  0  0  0
 71 72  2  0  0  0
 71 88  1  0  0  0
 71150  1  0  0  0
 72 73  1  0  0  0
 72 87  1  0  0  0
 73 74  2  0  0  0
 73 75  1  0  0  0
 74 79  1  0  0  0
 74 88  1  0  0  0
 75151  1  0  0  0
 75152  1  0  0  0
 75153  1  0  0  0
 76154  1  0  0  0
 76155  1  0  0  0
 76156  1  0  0  0
 76 86  1  0  0  0
 77157  1  0  0  0
 77158  1  0  0  0
 77159  1  0  0  0
 77 87  1  0  0  0
 78 87  1  0  0  0
 78160  1  0  0  0
 78161  1  0  0  0
 78162  1  0  0  0
 79 80  1  0  0  0
 79163  1  0  0  0
 79164  1  0  0  0
 80 81  1  0  0  0
 80165  1  0  0  0
 80166  1  0  0  0
 81 85  1  0  0  0
 81167  1  0  0  0
 81168  1  0  0  0
 82 84  1  0  0  0
 82 87  1  0  0  0
 82169  1  0  0  0
 82170  1  0  0  0
 83 86  1  0  0  0
 83 88  1  0  0  0
 83171  1  0  0  0
 83172  1  0  0  0
 84 89  1  0  0  0
 84173  1  0  0  0
 84174  1  0  0  0
 85 90  1  0  0  0
 85175  1  0  0  0
 85176  1  0  0  0
 86177  1  0  0  0
 89178  1  0  0  0
 90179  1  0  0  0
 90180  1  0  0  0
 90181  1  0  0  0
M  CHG  1  90   1
M  ISO  4   1 100  68 101  86 101  89 100
M  END
> <chiral flag>
0

> <version>
0

> <s_m_source_file>
/data/baiqing/PycharmProjects/Reinvent-master-3.2/result/LINK_invent/BTK/process_docking_weight1_custom_sum_contain_oxygen_bond_distance_aromatic_linkinvent_7_9_3/rearranged_h_0097.sdf

> <i_m_source_file_index>
90

> <r_mmod_Potential_Energy-OPLS-2005>
-244.148544311523

> <r_mmod_Stretch_Energy-OPLS-2005>
64.3083801269531

> <r_mmod_Bend_Energy-OPLS-2005>
148.486938476562

> <r_mmod_Torsional_Energy-OPLS-2005>
259.880432128906

> <r_mmod_Improper_Torsional_Energy-OPLS-2005>
6.14342546463013

> <r_mmod_Van_der_Waal_Energy-OPLS-2005>
115.60814666748

> <r_mmod_Electrostatic_Energy-OPLS-2005>
-379.125335693359

> <r_mmod_Solvation_Energy-OPLS-2005>
-483.204315185547

> <b_mmod_Minimization_Converged-OPLS-2005>
0

> <r_mmod_RMS_Derivative-OPLS-2005>
2.42638278007507

$$$$
91
                    3D
 Structure written by MMmdl.
164171  0  0  1  0            999 V2000
  -30.7024  -14.4679   20.6034 C   0  0  0  0  0  0
  -30.4348  -12.3193   19.4096 C   0  0  0  0  0  0
  -29.5002  -12.5191   18.1996 C   0  0  0  0  0  0
  -28.0207  -12.3730   18.6116 C   0  0  0  0  0  0
  -27.6649  -13.2045   19.8734 C   0  0  2  0  0  0
  -28.7077  -12.9706   20.9888 C   0  0  0  0  0  0
  -25.2600  -13.8159   20.5660 C   0  0  0  0  0  0
  -24.1848  -13.0437   20.9162 C   0  0  0  0  0  0
  -24.6398  -11.6904   20.8718 C   0  0  0  0  0  0
  -23.9064  -10.4295   21.0397 C   0  0  0  0  0  0
  -24.3622   -9.4213   21.9176 C   0  0  0  0  0  0
  -23.6301   -8.2251   22.0748 C   0  0  0  0  0  0
  -22.4277   -8.0293   21.3541 C   0  0  0  0  0  0
  -21.9909   -9.0264   20.4642 C   0  0  0  0  0  0
  -22.7238  -10.2139   20.3044 C   0  0  0  0  0  0
  -21.6847   -6.0753   22.5288 C   0  0  0  0  0  0
  -21.4018   -6.5644   23.8229 C   0  0  0  0  0  0
  -21.3658   -5.6788   24.9178 C   0  0  0  0  0  0
  -21.6038   -4.3053   24.7221 C   0  0  0  0  0  0
  -21.8822   -3.8156   23.4339 C   0  0  0  0  0  0
  -21.9195   -4.6980   22.3400 C   0  0  0  0  0  0
  -22.7877  -13.5247   21.1829 C   0  0  0  0  0  0
  -22.1663   -4.2173   21.0978 F   0  0  0  0  0  0
  -21.5622   -3.4531   25.7728 F   0  0  0  0  0  0
  -30.0386  -13.2908   20.4389 N   0  0  0  0  0  0
  -26.3040  -12.9325   20.3343 N   0  0  0  0  0  0
  -25.9322  -11.6487   20.5733 N   0  0  0  0  0  0
  -22.0510  -12.8249   22.0387 N   0  0  0  0  0  0
  -25.4307  -15.1887   20.4076 N   0  0  0  0  0  0
  -31.8230  -14.6875   20.1347 O   0  0  0  0  0  0
  -21.6636   -6.8894   21.4248 O   0  0  0  0  0  0
  -22.3569  -14.5558   20.6681 O   0  0  0  0  0  0
  -24.6134  -31.8690   23.2112 C   0  0  0  0  0  0
  -25.9020  -32.4835   23.8414 C   0  0  1  0  0  0
  -27.2456  -27.4449   20.0963 C   0  0  0  0  0  0
  -25.5865  -33.8628   24.2330 N   0  0  0  0  0  0
  -23.4045  -30.4929   21.5511 C   0  0  2  0  0  0
  -24.8562  -28.9623   20.1207 C   0  0  0  0  0  0
  -22.7419  -29.4657   22.4981 C   0  0  0  0  0  0
  -18.0276  -28.1398   22.8495 C   0  0  0  0  0  0
  -24.1481  -36.7327   23.2641 C   0  0  0  0  0  0
  -25.9340  -30.8376   21.3672 C   0  0  0  0  0  0
  -26.0168  -29.4718   20.7187 C   0  0  0  0  0  0
  -27.2197  -28.7251   20.7065 C   0  0  0  0  0  0
  -26.0675  -26.9543   19.5020 C   0  0  0  0  0  0
  -24.8749  -27.6988   19.5089 C   0  0  0  0  0  0
  -23.6180  -29.8273   20.1665 C   0  0  0  0  0  0
  -25.4100  -36.3114   24.0337 C   0  0  1  0  0  0
  -20.5869  -28.3680   23.1314 C   0  0  2  0  0  0
  -20.6765  -26.9415   22.5413 C   0  0  0  0  0  0
  -19.5741  -26.6408   21.5210 C   0  0  0  0  0  0
  -18.1924  -26.7945   22.1626 C   0  0  0  0  0  0
  -19.1530  -28.8855   23.2911 C   0  0  0  0  0  0
  -18.9455  -30.1462   23.8925 C   0  0  0  0  0  0
  -17.6458  -30.6598   24.0586 C   0  0  0  0  0  0
  -25.9021  -34.9481   23.5131 C   0  0  0  0  0  0
  -16.5349  -29.9101   23.6335 C   0  0  0  0  0  0
  -16.7270  -28.6523   23.0346 C   0  0  0  0  0  0
  -26.4462  -31.6610   25.0734 C   0  0  0  0  0  0
  -25.3728  -31.3733   26.1484 C   0  0  0  0  0  0
  -27.0302  -30.3047   24.6116 C   0  0  0  0  0  0
  -27.6046  -32.4335   25.7477 C   0  0  0  0  0  0
  -27.5579  -37.1817   24.8461 C   0  0  0  0  0  0
  -21.4146  -29.3040   22.3714 N   0  0  0  0  0  0
  -26.4297  -37.3790   23.9404 N   0  0  0  0  0  0
  -24.6685  -31.0801   22.1016 N   0  0  0  0  0  0
  -23.4186  -28.8182   23.3014 O   0  0  0  0  0  0
  -28.3294  -26.5980   20.0037 O   0  0  0  0  0  0
  -26.5605  -34.8931   22.4707 O   0  0  0  0  0  0
  -23.5321  -32.1438   23.7496 O   0  0  0  0  0  0
  -31.6669  -25.6199   21.3792 C   0  0  0  0  0  0
  -31.2405  -20.1359   18.7888 C   0  0  0  0  0  0
  -30.5287  -22.9014   20.6503 C   0  0  0  0  0  0
  -29.8020  -24.2311   20.2866 C   0  0  0  0  0  0
  -30.7280  -17.8161   20.5696 C   0  0  0  0  0  0
  -30.4024  -16.7686   21.6760 C   0  0  0  0  0  0
  -29.8157  -21.6181   20.1459 C   0  0  0  0  0  0
  -30.0432  -19.2061   20.7894 C   0  0  0  0  0  0
  -29.5417  -26.8165   20.7102 C   0  0  0  0  0  0
  -30.1489  -25.4600   21.1841 C   0  0  2  0  0  0
  -29.9966  -15.4244   21.2304 N   0  0  0  0  0  0
  -30.6869  -20.3967   20.1408 N   0  3  1  0  0  0
  -31.4778  -12.4356   19.1088 H   0  0  0  0  0  0
  -30.3503  -11.3049   19.8003 H   0  0  0  0  0  0
  -29.7452  -11.8065   17.4111 H   0  0  0  0  0  0
  -29.6653  -13.5106   17.7733 H   0  0  0  0  0  0
  -27.8283  -11.3159   18.7985 H   0  0  0  0  0  0
  -27.3725  -12.6558   17.7809 H   0  0  0  0  0  0
  -27.7110  -14.2550   19.5846 H   0  0  0  0  0  0
  -28.6884  -11.9276   21.3079 H   0  0  0  0  0  0
  -28.4603  -13.5456   21.8824 H   0  0  0  0  0  0
  -25.2780   -9.5698   22.4734 H   0  0  0  0  0  0
  -24.0020   -7.4639   22.7457 H   0  0  0  0  0  0
  -21.0846   -8.8789   19.8940 H   0  0  0  0  0  0
  -22.3715  -10.9678   19.6146 H   0  0  0  0  0  0
  -21.2016   -7.6155   23.9745 H   0  0  0  0  0  0
  -21.1467   -6.0508   25.9086 H   0  0  0  0  0  0
  -22.0599   -2.7623   23.2824 H   0  0  0  0  0  0
  -22.4102  -11.9921   22.4815 H   0  0  0  0  0  0
  -21.1126  -13.1283   22.2560 H   0  0  0  0  0  0
  -24.6605  -15.8408   20.5091 H   0  0  0  0  0  0
  -26.2840  -15.6315   20.0894 H   0  0  0  0  0  0
  -26.7087  -32.5573   23.1188 H   0  0  0  0  0  0
  -24.9974  -33.9795   25.0441 H   0  0  0  0  0  0
  -22.6929  -31.3091   21.4105 H   0  0  0  0  0  0
  -23.3731  -35.9670   23.3317 H   0  0  0  0  0  0
  -24.3573  -36.8936   22.2052 H   0  0  0  0  0  0
  -23.7247  -37.6542   23.6652 H   0  0  0  0  0  0
  -26.0465  -31.6015   20.5967 H   0  0  0  0  0  0
  -26.8211  -30.8938   21.9859 H   0  0  0  0  0  0
  -28.1076  -29.1437   21.1563 H   0  0  0  0  0  0
  -26.0754  -25.9824   19.0283 H   0  0  0  0  0  0
  -23.9850  -27.2985   19.0427 H   0  0  0  0  0  0
  -23.7293  -30.6028   19.4079 H   0  0  0  0  0  0
  -22.7445  -29.2456   19.8670 H   0  0  0  0  0  0
  -25.1278  -36.1985   25.0831 H   0  0  0  0  0  0
  -20.9981  -28.3252   24.1428 H   0  0  0  0  0  0
  -20.5674  -26.2285   23.3604 H   0  0  0  0  0  0
  -21.6634  -26.7460   22.1199 H   0  0  0  0  0  0
  -19.6895  -25.6326   21.1220 H   0  0  0  0  0  0
  -19.6677  -27.3235   20.6753 H   0  0  0  0  0  0
  -17.4190  -26.6706   21.4030 H   0  0  0  0  0  0
  -18.0328  -26.0095   22.9032 H   0  0  0  0  0  0
  -19.7937  -30.7283   24.2292 H   0  0  0  0  0  0
  -17.5015  -31.6277   24.5196 H   0  0  0  0  0  0
  -15.5353  -30.3015   23.7645 H   0  0  0  0  0  0
  -15.8674  -28.0864   22.7020 H   0  0  0  0  0  0
  -24.5868  -30.7119   25.7818 H   0  0  0  0  0  0
  -24.8960  -32.2903   26.4950 H   0  0  0  0  0  0
  -25.8073  -30.8874   27.0225 H   0  0  0  0  0  0
  -26.2853  -29.6801   24.1165 H   0  0  0  0  0  0
  -27.4068  -29.7284   25.4579 H   0  0  0  0  0  0
  -27.8688  -30.4368   23.9276 H   0  0  0  0  0  0
  -27.2657  -33.3608   26.2104 H   0  0  0  0  0  0
  -28.3808  -32.6943   25.0272 H   0  0  0  0  0  0
  -28.0765  -31.8438   26.5343 H   0  0  0  0  0  0
  -28.2603  -38.0109   24.7506 H   0  0  0  0  0  0
  -28.1074  -36.2645   24.6285 H   0  0  0  0  0  0
  -27.2308  -37.1467   25.8869 H   0  0  0  0  0  0
  -20.9302  -29.8786   21.6960 H   0  0  0  0  0  0
  -26.0188  -38.2873   24.1394 H   0  0  0  0  0  0
  -32.1013  -24.7649   21.8977 H   0  0  0  0  0  0
  -31.8941  -26.5060   21.9733 H   0  0  0  0  0  0
  -32.1777  -25.7240   20.4217 H   0  0  0  0  0  0
  -31.6798  -21.0433   18.3722 H   0  0  0  0  0  0
  -30.4692  -19.7904   18.0992 H   0  0  0  0  0  0
  -32.0342  -19.3900   18.8095 H   0  0  0  0  0  0
  -30.6353  -22.8256   21.7331 H   0  0  0  0  0  0
  -31.5407  -22.9463   20.2454 H   0  0  0  0  0  0
  -28.7240  -24.0689   20.3407 H   0  0  0  0  0  0
  -30.0093  -24.4699   19.2425 H   0  0  0  0  0  0
  -30.4512  -17.4302   19.5879 H   0  0  0  0  0  0
  -31.8117  -17.9358   20.5538 H   0  0  0  0  0  0
  -29.5818  -17.1377   22.2920 H   0  0  0  0  0  0
  -31.2510  -16.6726   22.3555 H   0  0  0  0  0  0
  -29.4165  -21.7864   19.1441 H   0  0  0  0  0  0
  -28.9412  -21.4532   20.7763 H   0  0  0  0  0  0
  -29.9966  -19.4233   21.8577 H   0  0  0  0  0  0
  -29.0089  -19.1268   20.4502 H   0  0  0  0  0  0
  -30.2262  -27.3244   20.0291 H   0  0  0  0  0  0
  -29.4174  -27.4649   21.5775 H   0  0  0  0  0  0
  -29.7142  -25.2548   22.1642 H   0  0  0  0  0  0
  -29.0765  -15.1306   21.5264 H   0  0  0  0  0  0
  -31.4808  -20.6192   20.7237 H   0  0  0  0  0  0
  1 25  1  0  0  0
  1 30  2  0  0  0
  1 81  1  0  0  0
  2  3  1  0  0  0
  2 25  1  0  0  0
  2 83  1  0  0  0
  2 84  1  0  0  0
  3  4  1  0  0  0
  3 85  1  0  0  0
  3 86  1  0  0  0
  4  5  1  0  0  0
  4 87  1  0  0  0
  4 88  1  0  0  0
  5  6  1  0  0  0
  5 26  1  0  0  0
  5 89  1  0  0  0
  6 25  1  0  0  0
  6 90  1  0  0  0
  6 91  1  0  0  0
  7  8  2  0  0  0
  7 26  1  0  0  0
  7 29  1  0  0  0
  8  9  1  0  0  0
  8 22  1  0  0  0
  9 10  1  0  0  0
  9 27  2  0  0  0
 10 11  2  0  0  0
 10 15  1  0  0  0
 11 12  1  0  0  0
 11 92  1  0  0  0
 12 13  2  0  0  0
 12 93  1  0  0  0
 13 14  1  0  0  0
 13 31  1  0  0  0
 14 15  2  0  0  0
 14 94  1  0  0  0
 15 95  1  0  0  0
 16 17  2  0  0  0
 16 21  1  0  0  0
 16 31  1  0  0  0
 17 18  1  0  0  0
 17 96  1  0  0  0
 18 19  2  0  0  0
 18 97  1  0  0  0
 19 20  1  0  0  0
 19 24  1  0  0  0
 20 21  2  0  0  0
 20 98  1  0  0  0
 21 23  1  0  0  0
 22 28  1  0  0  0
 22 32  2  0  0  0
 26 27  1  0  0  0
 28 99  1  0  0  0
 28100  1  0  0  0
 29101  1  0  0  0
 29102  1  0  0  0
 33 34  1  0  0  0
 33 66  1  0  0  0
 33 70  2  0  0  0
 34 36  1  0  0  0
 34 59  1  0  0  0
 34103  1  0  0  0
 35 44  2  0  0  0
 35 45  1  0  0  0
 35 68  1  0  0  0
 36 56  1  0  0  0
 36104  1  0  0  0
 37 39  1  0  0  0
 37 47  1  0  0  0
 37 66  1  0  0  0
 37105  1  0  0  0
 38 43  2  0  0  0
 38 46  1  0  0  0
 38 47  1  0  0  0
 39 64  1  0  0  0
 39 67  2  0  0  0
 40 52  1  0  0  0
 40 53  2  0  0  0
 40 58  1  0  0  0
 41106  1  0  0  0
 41107  1  0  0  0
 41108  1  0  0  0
 41 48  1  0  0  0
 42 43  1  0  0  0
 42 66  1  0  0  0
 42109  1  0  0  0
 42110  1  0  0  0
 43 44  1  0  0  0
 44111  1  0  0  0
 45 46  2  0  0  0
 45112  1  0  0  0
 46113  1  0  0  0
 47114  1  0  0  0
 47115  1  0  0  0
 48 56  1  0  0  0
 48 65  1  0  0  0
 48116  1  0  0  0
 49 50  1  0  0  0
 49 53  1  0  0  0
 49 64  1  0  0  0
 49117  1  0  0  0
 50 51  1  0  0  0
 50118  1  0  0  0
 50119  1  0  0  0
 51 52  1  0  0  0
 51120  1  0  0  0
 51121  1  0  0  0
 52122  1  0  0  0
 52123  1  0  0  0
 53 54  1  0  0  0
 54 55  2  0  0  0
 54124  1  0  0  0
 55 57  1  0  0  0
 55125  1  0  0  0
 56 69  2  0  0  0
 57 58  2  0  0  0
 57126  1  0  0  0
 58127  1  0  0  0
 59 60  1  0  0  0
 59 61  1  0  0  0
 59 62  1  0  0  0
 60128  1  0  0  0
 60129  1  0  0  0
 60130  1  0  0  0
 61131  1  0  0  0
 61132  1  0  0  0
 61133  1  0  0  0
 62134  1  0  0  0
 62135  1  0  0  0
 62136  1  0  0  0
 63 65  1  0  0  0
 63137  1  0  0  0
 63138  1  0  0  0
 63139  1  0  0  0
 64140  1  0  0  0
 65141  1  0  0  0
 68 79  1  0  0  0
 71142  1  0  0  0
 71143  1  0  0  0
 71144  1  0  0  0
 71 80  1  0  0  0
 72145  1  0  0  0
 72146  1  0  0  0
 72147  1  0  0  0
 72 82  1  0  0  0
 73 74  1  0  0  0
 73 77  1  0  0  0
 73148  1  0  0  0
 73149  1  0  0  0
 74 80  1  0  0  0
 74150  1  0  0  0
 74151  1  0  0  0
 75 76  1  0  0  0
 75 78  1  0  0  0
 75152  1  0  0  0
 75153  1  0  0  0
 76 81  1  0  0  0
 76154  1  0  0  0
 76155  1  0  0  0
 77 82  1  0  0  0
 77156  1  0  0  0
 77157  1  0  0  0
 78 82  1  0  0  0
 78158  1  0  0  0
 78159  1  0  0  0
 79 80  1  0  0  0
 79160  1  0  0  0
 79161  1  0  0  0
 80162  1  0  0  0
 81163  1  0  0  0
 82164  1  0  0  0
M  CHG  1  82   1
M  ISO  4   1 100  68 101  79 101  81 100
M  END
> <chiral flag>
0

> <version>
0

> <s_m_source_file>
/data/baiqing/PycharmProjects/Reinvent-master-3.2/result/LINK_invent/BTK/process_docking_weight1_custom_sum_contain_oxygen_bond_distance_aromatic_linkinvent_7_9_3/rearranged_h_0097.sdf

> <i_m_source_file_index>
91

> <r_mmod_Potential_Energy-OPLS-2005>
-114.280212402344

> <r_mmod_Stretch_Energy-OPLS-2005>
40.070613861084

> <r_mmod_Bend_Energy-OPLS-2005>
124.613403320312

> <r_mmod_Torsional_Energy-OPLS-2005>
237.099624633789

> <r_mmod_Improper_Torsional_Energy-OPLS-2005>
2.61633443832397

> <r_mmod_Van_der_Waal_Energy-OPLS-2005>
136.218673706055

> <r_mmod_Electrostatic_Energy-OPLS-2005>
-232.797409057617

> <r_mmod_Solvation_Energy-OPLS-2005>
-435.093688964844

> <b_mmod_Minimization_Converged-OPLS-2005>
0

> <r_mmod_RMS_Derivative-OPLS-2005>
1.77952647209167

$$$$
92
                    3D
 Structure written by MMmdl.
150158  0  0  1  0            999 V2000
  -30.5110  -15.0108   20.4010 C   0  0  0  0  0  0
  -30.4460  -12.6265   19.5015 C   0  0  0  0  0  0
  -29.5251  -12.5306   18.2619 C   0  0  0  0  0  0
  -28.0631  -12.3000   18.6872 C   0  0  0  0  0  0
  -27.6282  -13.2474   19.8344 C   0  0  2  0  0  0
  -28.6703  -13.3031   20.9719 C   0  0  0  0  0  0
  -25.2457  -13.8207   20.5697 C   0  0  0  0  0  0
  -24.1779  -13.0437   20.9234 C   0  0  0  0  0  0
  -24.6395  -11.6921   20.8768 C   0  0  0  0  0  0
  -23.9075  -10.4292   21.0419 C   0  0  0  0  0  0
  -24.3626   -9.4206   21.9194 C   0  0  0  0  0  0
  -23.6300   -8.2240   22.0758 C   0  0  0  0  0  0
  -22.4281   -8.0282   21.3548 C   0  0  0  0  0  0
  -21.9923   -9.0255   20.4647 C   0  0  0  0  0  0
  -22.7252  -10.2133   20.3062 C   0  0  0  0  0  0
  -21.6854   -6.0736   22.5279 C   0  0  0  0  0  0
  -21.4011   -6.5641   23.8215 C   0  0  0  0  0  0
  -21.3658   -5.6796   24.9177 C   0  0  0  0  0  0
  -21.6043   -4.3058   24.7224 C   0  0  0  0  0  0
  -21.8819   -3.8151   23.4346 C   0  0  0  0  0  0
  -21.9190   -4.6967   22.3401 C   0  0  0  0  0  0
  -22.7802  -13.5209   21.1893 C   0  0  0  0  0  0
  -22.1662   -4.2153   21.0981 F   0  0  0  0  0  0
  -21.5629   -3.4540   25.7737 F   0  0  0  0  0  0
  -29.9400  -13.7326   20.3689 N   0  0  0  0  0  0
  -26.2878  -12.9434   20.3232 N   0  0  0  0  0  0
  -25.9324  -11.6566   20.5741 N   0  0  0  0  0  0
  -22.0449  -12.8188   22.0443 N   0  0  0  0  0  0
  -25.4122  -15.1931   20.4066 N   0  0  0  0  0  0
  -31.7217  -15.0701   20.1478 O   0  0  0  0  0  0
  -21.6642   -6.8880   21.4241 O   0  0  0  0  0  0
  -22.3486  -14.5516   20.6745 O   0  0  0  0  0  0
  -24.6474  -31.8397   23.1840 C   0  0  0  0  0  0
  -25.9224  -32.4676   23.8244 C   0  0  1  0  0  0
  -27.2217  -27.0979   20.1591 C   0  0  0  0  0  0
  -25.5962  -33.8487   24.2161 N   0  0  0  0  0  0
  -23.4536  -30.4578   21.5299 C   0  0  2  0  0  0
  -24.9050  -28.8767   20.1105 C   0  0  0  0  0  0
  -22.7588  -29.4527   22.4832 C   0  0  0  0  0  0
  -18.0313  -28.1402   22.8489 C   0  0  0  0  0  0
  -24.1493  -36.7238   23.2643 C   0  0  0  0  0  0
  -26.0127  -30.7020   21.3888 C   0  0  0  0  0  0
  -26.0834  -29.3093   20.7313 C   0  0  0  0  0  0
  -27.2413  -28.4372   20.7361 C   0  0  0  0  0  0
  -26.0151  -26.7757   19.4994 C   0  0  0  0  0  0
  -24.8854  -27.6244   19.4783 C   0  0  0  0  0  0
  -23.6829  -29.7833   20.1511 C   0  0  0  0  0  0
  -25.4130  -36.3020   24.0317 C   0  0  1  0  0  0
  -20.5931  -28.3730   23.1230 C   0  0  2  0  0  0
  -20.6803  -26.9425   22.5409 C   0  0  0  0  0  0
  -19.5770  -26.6386   21.5222 C   0  0  0  0  0  0
  -18.1949  -26.7942   22.1627 C   0  0  0  0  0  0
  -19.1573  -28.8886   23.2852 C   0  0  0  0  0  0
  -18.9484  -30.1481   23.8877 C   0  0  0  0  0  0
  -17.6481  -30.6597   24.0568 C   0  0  0  0  0  0
  -25.9085  -34.9404   23.5051 C   0  0  0  0  0  0
  -16.5370  -29.9088   23.6348 C   0  0  0  0  0  0
  -16.7296  -28.6509   23.0367 C   0  0  0  0  0  0
  -26.4532  -31.6563   25.0706 C   0  0  0  0  0  0
  -25.3706  -31.3789   26.1401 C   0  0  0  0  0  0
  -27.0395  -30.2956   24.6320 C   0  0  0  0  0  0
  -27.6070  -32.4323   25.7483 C   0  0  0  0  0  0
  -27.5575  -37.1776   24.8468 C   0  0  0  0  0  0
  -21.4275  -29.3047   22.3586 N   0  0  0  0  0  0
  -26.4281  -37.3744   23.9415 N   0  0  0  0  0  0
  -24.7249  -31.0218   22.0892 N   0  0  0  0  0  0
  -23.4226  -28.8085   23.2997 O   0  0  0  0  0  0
  -28.2661  -26.0895   20.2341 O   0  0  0  0  0  0
  -26.5666  -34.8909   22.4624 O   0  0  0  0  0  0
  -23.5587  -32.1271   23.7048 O   0  0  0  0  0  0
  -28.7400  -18.7403   20.4234 C   0  0  0  0  0  0
  -29.2334  -20.0716   20.2755 C   0  0  0  0  0  0
  -29.8168  -17.7175   20.4115 C   0  0  0  0  0  0
  -31.6706  -20.7447   20.0199 C   0  0  0  0  0  0
  -28.4954  -21.5542   20.0596 C   0  0  0  0  0  0
  -28.9602  -23.1700   20.3620 C   0  0  0  0  0  0
  -27.9891  -24.5483   20.0512 C   0  0  0  0  0  0
  -30.9390  -18.4324   20.2838 N   0  0  0  0  0  0
  -30.6008  -19.7838   20.1983 N   0  0  0  0  0  0
  -29.6823  -16.1770   20.5181 N   0  0  0  0  0  0
  -31.4752  -12.7986   19.1828 H   0  0  0  0  0  0
  -30.4586  -11.6836   20.0502 H   0  0  0  0  0  0
  -29.8564  -11.7241   17.6059 H   0  0  0  0  0  0
  -29.5966  -13.4499   17.6785 H   0  0  0  0  0  0
  -27.9810  -11.2642   19.0199 H   0  0  0  0  0  0
  -27.3941  -12.3997   17.8312 H   0  0  0  0  0  0
  -27.5831  -14.2411   19.3870 H   0  0  0  0  0  0
  -28.7726  -12.3345   21.4639 H   0  0  0  0  0  0
  -28.3561  -14.0086   21.7428 H   0  0  0  0  0  0
  -25.2769   -9.5678   22.4772 H   0  0  0  0  0  0
  -24.0007   -7.4628   22.7478 H   0  0  0  0  0  0
  -21.0857   -8.8771   19.8950 H   0  0  0  0  0  0
  -22.3718  -10.9668   19.6171 H   0  0  0  0  0  0
  -21.2005   -7.6153   23.9717 H   0  0  0  0  0  0
  -21.1480   -6.0527   25.9078 H   0  0  0  0  0  0
  -22.0597   -2.7612   23.2845 H   0  0  0  0  0  0
  -22.4066  -11.9842   22.4814 H   0  0  0  0  0  0
  -21.1066  -13.1206   22.2658 H   0  0  0  0  0  0
  -24.6338  -15.8377   20.4947 H   0  0  0  0  0  0
  -26.2371  -15.6257   20.0127 H   0  0  0  0  0  0
  -26.7290  -32.5269   23.0970 H   0  0  0  0  0  0
  -25.0116  -33.9599   25.0315 H   0  0  0  0  0  0
  -22.7595  -31.2861   21.3719 H   0  0  0  0  0  0
  -23.3772  -35.9549   23.3286 H   0  0  0  0  0  0
  -24.3580  -36.8887   22.2059 H   0  0  0  0  0  0
  -23.7234  -37.6424   23.6692 H   0  0  0  0  0  0
  -26.1739  -31.4549   20.6160 H   0  0  0  0  0  0
  -26.8810  -30.7523   22.0340 H   0  0  0  0  0  0
  -28.1361  -28.7656   21.2468 H   0  0  0  0  0  0
  -25.9082  -25.8175   19.0148 H   0  0  0  0  0  0
  -23.9862  -27.2875   18.9826 H   0  0  0  0  0  0
  -23.8218  -30.5559   19.3933 H   0  0  0  0  0  0
  -22.7973  -29.2264   19.8396 H   0  0  0  0  0  0
  -25.1319  -36.1833   25.0809 H   0  0  0  0  0  0
  -21.0033  -28.3322   24.1347 H   0  0  0  0  0  0
  -20.5709  -26.2335   23.3630 H   0  0  0  0  0  0
  -21.6666  -26.7435   22.1193 H   0  0  0  0  0  0
  -19.6931  -25.6293   21.1260 H   0  0  0  0  0  0
  -19.6715  -27.3200   20.6756 H   0  0  0  0  0  0
  -17.4224  -26.6711   21.4015 H   0  0  0  0  0  0
  -18.0327  -26.0084   22.9018 H   0  0  0  0  0  0
  -19.7958  -30.7313   24.2227 H   0  0  0  0  0  0
  -17.5028  -31.6274   24.5170 H   0  0  0  0  0  0
  -15.5368  -30.2983   23.7684 H   0  0  0  0  0  0
  -15.8697  -28.0821   22.7090 H   0  0  0  0  0  0
  -24.5895  -30.7117   25.7740 H   0  0  0  0  0  0
  -24.8881  -32.2982   26.4723 H   0  0  0  0  0  0
  -25.7976  -30.9040   27.0243 H   0  0  0  0  0  0
  -26.3022  -29.6673   24.1321 H   0  0  0  0  0  0
  -27.3987  -29.7269   25.4905 H   0  0  0  0  0  0
  -27.8936  -30.4183   23.9664 H   0  0  0  0  0  0
  -27.2697  -33.3689   26.1935 H   0  0  0  0  0  0
  -28.3946  -32.6766   25.0340 H   0  0  0  0  0  0
  -28.0655  -31.8511   26.5491 H   0  0  0  0  0  0
  -28.2592  -38.0073   24.7515 H   0  0  0  0  0  0
  -28.1065  -36.2606   24.6286 H   0  0  0  0  0  0
  -27.2294  -37.1418   25.8869 H   0  0  0  0  0  0
  -20.9482  -29.8745   21.6752 H   0  0  0  0  0  0
  -26.0142  -38.2804   24.1421 H   0  0  0  0  0  0
  -27.6856  -18.5136   20.4958 H   0  0  0  0  0  0
  -31.6808  -21.4426   20.8580 H   0  0  0  0  0  0
  -31.5128  -21.3029   19.0965 H   0  0  0  0  0  0
  -32.6388  -20.2449   19.9676 H   0  0  0  0  0  0
  -27.5346  -21.4614   20.5653 H   0  0  0  0  0  0
  -28.2180  -21.5666   19.0054 H   0  0  0  0  0  0
  -29.8933  -23.3284   19.8217 H   0  0  0  0  0  0
  -29.2406  -23.2177   21.4139 H   0  0  0  0  0  0
  -27.0692  -24.3677   20.6080 H   0  0  0  0  0  0
  -27.7019  -24.4500   19.0042 H   0  0  0  0  0  0
  -28.7278  -15.8989   20.6775 H   0  0  0  0  0  0
  1 25  1  0  0  0
  1 30  2  0  0  0
  1 80  1  0  0  0
  2  3  1  0  0  0
  2 25  1  0  0  0
  2 81  1  0  0  0
  2 82  1  0  0  0
  3  4  1  0  0  0
  3 83  1  0  0  0
  3 84  1  0  0  0
  4  5  1  0  0  0
  4 85  1  0  0  0
  4 86  1  0  0  0
  5  6  1  0  0  0
  5 26  1  0  0  0
  5 87  1  0  0  0
  6 25  1  0  0  0
  6 88  1  0  0  0
  6 89  1  0  0  0
  7  8  2  0  0  0
  7 26  1  0  0  0
  7 29  1  0  0  0
  8  9  1  0  0  0
  8 22  1  0  0  0
  9 10  1  0  0  0
  9 27  2  0  0  0
 10 11  2  0  0  0
 10 15  1  0  0  0
 11 12  1  0  0  0
 11 90  1  0  0  0
 12 13  2  0  0  0
 12 91  1  0  0  0
 13 14  1  0  0  0
 13 31  1  0  0  0
 14 15  2  0  0  0
 14 92  1  0  0  0
 15 93  1  0  0  0
 16 17  2  0  0  0
 16 21  1  0  0  0
 16 31  1  0  0  0
 17 18  1  0  0  0
 17 94  1  0  0  0
 18 19  2  0  0  0
 18 95  1  0  0  0
 19 20  1  0  0  0
 19 24  1  0  0  0
 20 21  2  0  0  0
 20 96  1  0  0  0
 21 23  1  0  0  0
 22 28  1  0  0  0
 22 32  2  0  0  0
 26 27  1  0  0  0
 28 97  1  0  0  0
 28 98  1  0  0  0
 29 99  1  0  0  0
 29100  1  0  0  0
 33 34  1  0  0  0
 33 66  1  0  0  0
 33 70  2  0  0  0
 34 36  1  0  0  0
 34 59  1  0  0  0
 34101  1  0  0  0
 35 44  2  0  0  0
 35 45  1  0  0  0
 35 68  1  0  0  0
 36 56  1  0  0  0
 36102  1  0  0  0
 37 39  1  0  0  0
 37 47  1  0  0  0
 37 66  1  0  0  0
 37103  1  0  0  0
 38 43  2  0  0  0
 38 46  1  0  0  0
 38 47  1  0  0  0
 39 64  1  0  0  0
 39 67  2  0  0  0
 40 52  1  0  0  0
 40 53  2  0  0  0
 40 58  1  0  0  0
 41104  1  0  0  0
 41105  1  0  0  0
 41106  1  0  0  0
 41 48  1  0  0  0
 42 43  1  0  0  0
 42 66  1  0  0  0
 42107  1  0  0  0
 42108  1  0  0  0
 43 44  1  0  0  0
 44109  1  0  0  0
 45 46  2  0  0  0
 45110  1  0  0  0
 46111  1  0  0  0
 47112  1  0  0  0
 47113  1  0  0  0
 48 56  1  0  0  0
 48 65  1  0  0  0
 48114  1  0  0  0
 49 50  1  0  0  0
 49 53  1  0  0  0
 49 64  1  0  0  0
 49115  1  0  0  0
 50 51  1  0  0  0
 50116  1  0  0  0
 50117  1  0  0  0
 51 52  1  0  0  0
 51118  1  0  0  0
 51119  1  0  0  0
 52120  1  0  0  0
 52121  1  0  0  0
 53 54  1  0  0  0
 54 55  2  0  0  0
 54122  1  0  0  0
 55 57  1  0  0  0
 55123  1  0  0  0
 56 69  2  0  0  0
 57 58  2  0  0  0
 57124  1  0  0  0
 58125  1  0  0  0
 59 60  1  0  0  0
 59 61  1  0  0  0
 59 62  1  0  0  0
 60126  1  0  0  0
 60127  1  0  0  0
 60128  1  0  0  0
 61129  1  0  0  0
 61130  1  0  0  0
 61131  1  0  0  0
 62132  1  0  0  0
 62133  1  0  0  0
 62134  1  0  0  0
 63 65  1  0  0  0
 63135  1  0  0  0
 63136  1  0  0  0
 63137  1  0  0  0
 64138  1  0  0  0
 65139  1  0  0  0
 68 77  1  0  0  0
 71 72  2  0  0  0
 71 73  1  0  0  0
 71140  1  0  0  0
 72 75  1  0  0  0
 72 79  1  0  0  0
 73 78  2  0  0  0
 73 80  1  0  0  0
 74 79  1  0  0  0
 74141  1  0  0  0
 74142  1  0  0  0
 74143  1  0  0  0
 75 76  1  0  0  0
 75144  1  0  0  0
 75145  1  0  0  0
 76 77  1  0  0  0
 76146  1  0  0  0
 76147  1  0  0  0
 77148  1  0  0  0
 77149  1  0  0  0
 78 79  1  0  0  0
 80150  1  0  0  0
M  ISO  4   1 100  68 101  77 101  80 100
M  END
> <chiral flag>
0

> <version>
0

> <s_m_source_file>
/data/baiqing/PycharmProjects/Reinvent-master-3.2/result/LINK_invent/BTK/process_docking_weight1_custom_sum_contain_oxygen_bond_distance_aromatic_linkinvent_7_9_3/rearranged_h_0097.sdf

> <i_m_source_file_index>
92

> <r_mmod_Potential_Energy-OPLS-2005>
516.745056152344

> <r_mmod_Stretch_Energy-OPLS-2005>
296.081268310547

> <r_mmod_Bend_Energy-OPLS-2005>
293.156463623047

> <r_mmod_Torsional_Energy-OPLS-2005>
206.805480957031

> <r_mmod_Improper_Torsional_Energy-OPLS-2005>
4.92895793914795

> <r_mmod_Van_der_Waal_Energy-OPLS-2005>
108.089042663574

> <r_mmod_Electrostatic_Energy-OPLS-2005>
-386.326751708984

> <r_mmod_Solvation_Energy-OPLS-2005>
-240.520629882812

> <b_mmod_Minimization_Converged-OPLS-2005>
0

> <r_mmod_RMS_Derivative-OPLS-2005>
1.34849452972412

$$$$
93
                    3D
 Structure written by MMmdl.
170178  0  0  1  0            999 V2000
  -30.5943  -14.5809   20.4986 C   0  0  0  0  0  0
  -30.4253  -12.3641   19.4231 C   0  0  0  0  0  0
  -29.4980  -12.5206   18.2003 C   0  0  0  0  0  0
  -28.0185  -12.3570   18.6014 C   0  0  0  0  0  0
  -27.6422  -13.2003   19.8464 C   0  0  2  0  0  0
  -28.6795  -13.0341   20.9792 C   0  0  0  0  0  0
  -25.2530  -13.7981   20.5590 C   0  0  0  0  0  0
  -24.1816  -13.0356   20.9145 C   0  0  0  0  0  0
  -24.6365  -11.6798   20.8724 C   0  0  0  0  0  0
  -23.9038  -10.4239   21.0402 C   0  0  0  0  0  0
  -24.3615   -9.4186   21.9194 C   0  0  0  0  0  0
  -23.6276   -8.2240   22.0779 C   0  0  0  0  0  0
  -22.4266   -8.0295   21.3568 C   0  0  0  0  0  0
  -21.9876   -9.0258   20.4657 C   0  0  0  0  0  0
  -22.7206  -10.2121   20.3049 C   0  0  0  0  0  0
  -21.6857   -6.0753   22.5291 C   0  0  0  0  0  0
  -21.4005   -6.5644   23.8217 C   0  0  0  0  0  0
  -21.3651   -5.6803   24.9188 C   0  0  0  0  0  0
  -21.6044   -4.3062   24.7228 C   0  0  0  0  0  0
  -21.8820   -3.8155   23.4354 C   0  0  0  0  0  0
  -21.9172   -4.6974   22.3402 C   0  0  0  0  0  0
  -22.7882  -13.5239   21.1848 C   0  0  0  0  0  0
  -22.1651   -4.2170   21.0982 F   0  0  0  0  0  0
  -21.5598   -3.4537   25.7733 F   0  0  0  0  0  0
  -30.0033  -13.3568   20.4204 N   0  0  0  0  0  0
  -26.2929  -12.9169   20.3169 N   0  0  0  0  0  0
  -25.9257  -11.6346   20.5630 N   0  0  0  0  0  0
  -22.0488  -12.8268   22.0366 N   0  0  0  0  0  0
  -25.4225  -15.1634   20.3965 N   0  0  0  0  0  0
  -31.7638  -14.7846   20.1610 O   0  0  0  0  0  0
  -21.6628   -6.8898   21.4261 O   0  0  0  0  0  0
  -22.3633  -14.5624   20.6760 O   0  0  0  0  0  0
  -24.6196  -31.8666   23.2120 C   0  0  0  0  0  0
  -25.9063  -32.4820   23.8412 C   0  0  1  0  0  0
  -27.2375  -27.4225   20.1143 C   0  0  0  0  0  0
  -25.5915  -33.8614   24.2329 N   0  0  0  0  0  0
  -23.4097  -30.4921   21.5481 C   0  0  2  0  0  0
  -24.8515  -28.9457   20.1234 C   0  0  0  0  0  0
  -22.7434  -29.4726   22.4971 C   0  0  0  0  0  0
  -18.0334  -28.1456   22.8498 C   0  0  0  0  0  0
  -24.1475  -36.7316   23.2642 C   0  0  0  0  0  0
  -25.9393  -30.8284   21.3672 C   0  0  0  0  0  0
  -26.0137  -29.4613   20.7142 C   0  0  0  0  0  0
  -27.2121  -28.7091   20.6953 C   0  0  0  0  0  0
  -26.0602  -26.9134   19.5292 C   0  0  0  0  0  0
  -24.8703  -27.6710   19.5285 C   0  0  0  0  0  0
  -23.6153  -29.8172   20.1666 C   0  0  0  0  0  0
  -25.4097  -36.3108   24.0336 C   0  0  1  0  0  0
  -20.5909  -28.3715   23.1355 C   0  0  2  0  0  0
  -20.6785  -26.9383   22.5644 C   0  0  0  0  0  0
  -19.5886  -26.6366   21.5366 C   0  0  0  0  0  0
  -18.2019  -26.8014   22.1642 C   0  0  0  0  0  0
  -19.1581  -28.8890   23.2913 C   0  0  0  0  0  0
  -18.9560  -30.1482   23.8937 C   0  0  0  0  0  0
  -17.6592  -30.6634   24.0629 C   0  0  0  0  0  0
  -25.9028  -34.9469   23.5131 C   0  0  0  0  0  0
  -16.5465  -29.9171   23.6380 C   0  0  0  0  0  0
  -16.7342  -28.6579   23.0399 C   0  0  0  0  0  0
  -26.4475  -31.6614   25.0758 C   0  0  0  0  0  0
  -25.3748  -31.3723   26.1509 C   0  0  0  0  0  0
  -27.0317  -30.3051   24.6177 C   0  0  0  0  0  0
  -27.6068  -32.4320   25.7510 C   0  0  0  0  0  0
  -27.5570  -37.1812   24.8454 C   0  0  0  0  0  0
  -21.4176  -29.2994   22.3625 N   0  0  0  0  0  0
  -26.4290  -37.3782   23.9395 N   0  0  0  0  0  0
  -24.6751  -31.0784   22.1006 N   0  0  0  0  0  0
  -23.4220  -28.8332   23.3053 O   0  0  0  0  0  0
  -28.4072  -26.6931   20.0674 O   0  0  0  0  0  0
  -26.5594  -34.8946   22.4692 O   0  0  0  0  0  0
  -23.5402  -32.1380   23.7545 O   0  0  0  0  0  0
  -29.3262  -20.4599   20.3599 C   0  0  0  0  0  0
  -27.2756  -21.5718   20.9809 C   0  0  0  0  0  0
  -28.6502  -21.6568   20.7274 C   0  0  0  0  0  0
  -28.5893  -19.2563   20.1628 C   0  0  0  0  0  0
  -27.1695  -19.3590   20.2698 C   0  0  0  0  0  0
  -22.8356  -19.1741   18.0336 C   0  0  0  0  0  0
  -24.9654  -20.5128   17.9490 C   0  0  0  0  0  0
  -29.3408  -23.0193   20.9299 C   0  0  0  0  0  0
  -29.3058  -17.9210   19.7811 C   0  0  0  0  0  0
  -26.2231  -18.2227   19.8794 C   0  0  0  0  0  0
  -28.7261  -24.2093   20.1119 C   0  0  0  0  0  0
  -24.7275  -18.5719   19.6065 C   0  0  0  0  0  0
  -29.8556  -17.0452   20.9609 C   0  0  0  0  0  0
  -28.4905  -25.5250   20.9081 C   0  0  0  0  0  0
  -24.3654  -19.1267   18.2059 C   0  0  0  0  0  0
  -26.5586  -20.4616   20.7568 N   0  0  0  0  0  0
  -29.7170  -15.5764   20.7823 N   0  0  0  0  0  0
  -31.4681  -12.4893   19.1273 H   0  0  0  0  0  0
  -30.3417  -11.3596   19.8377 H   0  0  0  0  0  0
  -29.7690  -11.8025   17.4241 H   0  0  0  0  0  0
  -29.6363  -13.5100   17.7564 H   0  0  0  0  0  0
  -27.8425  -11.2999   18.8030 H   0  0  0  0  0  0
  -27.3726  -12.6198   17.7620 H   0  0  0  0  0  0
  -27.6495  -14.2393   19.5159 H   0  0  0  0  0  0
  -28.6700  -12.0180   21.3727 H   0  0  0  0  0  0
  -28.4171  -13.6772   21.8224 H   0  0  0  0  0  0
  -25.2793   -9.5698   22.4713 H   0  0  0  0  0  0
  -24.0020   -7.4655   22.7493 H   0  0  0  0  0  0
  -21.0803   -8.8763   19.8952 H   0  0  0  0  0  0
  -22.3690  -10.9664   19.6141 H   0  0  0  0  0  0
  -21.2001   -7.6152   23.9740 H   0  0  0  0  0  0
  -21.1480   -6.0522   25.9104 H   0  0  0  0  0  0
  -22.0600   -2.7604   23.2826 H   0  0  0  0  0  0
  -22.4072  -11.9872   22.4677 H   0  0  0  0  0  0
  -21.1168  -13.1405   22.2647 H   0  0  0  0  0  0
  -24.6374  -15.8021   20.4666 H   0  0  0  0  0  0
  -26.2620  -15.5768   20.0204 H   0  0  0  0  0  0
  -26.7139  -32.5473   23.1186 H   0  0  0  0  0  0
  -25.0022  -33.9729   25.0436 H   0  0  0  0  0  0
  -22.7040  -31.3114   21.4113 H   0  0  0  0  0  0
  -23.3736  -35.9650   23.3313 H   0  0  0  0  0  0
  -24.3566  -36.8912   22.2056 H   0  0  0  0  0  0
  -23.7238  -37.6526   23.6648 H   0  0  0  0  0  0
  -26.0593  -31.5961   20.6021 H   0  0  0  0  0  0
  -26.8226  -30.8682   21.9952 H   0  0  0  0  0  0
  -28.1157  -29.1132   21.1253 H   0  0  0  0  0  0
  -26.0620  -25.9374   19.0675 H   0  0  0  0  0  0
  -23.9753  -27.2710   19.0721 H   0  0  0  0  0  0
  -23.7212  -30.5858   19.4009 H   0  0  0  0  0  0
  -22.7354  -29.2412   19.8785 H   0  0  0  0  0  0
  -25.1280  -36.1972   25.0828 H   0  0  0  0  0  0
  -21.0043  -28.3427   24.1463 H   0  0  0  0  0  0
  -20.5498  -26.2410   23.3919 H   0  0  0  0  0  0
  -21.6703  -26.7239   22.1648 H   0  0  0  0  0  0
  -19.7051  -25.6275   21.1443 H   0  0  0  0  0  0
  -19.6940  -27.3217   20.6929 H   0  0  0  0  0  0
  -17.4402  -26.6792   21.3937 H   0  0  0  0  0  0
  -18.0304  -26.0186   22.9029 H   0  0  0  0  0  0
  -19.8051  -30.7264   24.2333 H   0  0  0  0  0  0
  -17.5194  -31.6291   24.5309 H   0  0  0  0  0  0
  -15.5490  -30.3110   23.7710 H   0  0  0  0  0  0
  -15.8719  -28.0911   22.7144 H   0  0  0  0  0  0
  -24.5917  -30.7073   25.7835 H   0  0  0  0  0  0
  -24.8984  -32.2900   26.4978 H   0  0  0  0  0  0
  -25.8128  -30.8878   27.0242 H   0  0  0  0  0  0
  -26.2887  -29.6818   24.1219 H   0  0  0  0  0  0
  -27.4008  -29.7289   25.4659 H   0  0  0  0  0  0
  -27.8741  -30.4322   23.9386 H   0  0  0  0  0  0
  -27.2688  -33.3593   26.2141 H   0  0  0  0  0  0
  -28.3875  -32.6911   25.0342 H   0  0  0  0  0  0
  -28.0742  -31.8411   26.5393 H   0  0  0  0  0  0
  -28.2611  -38.0096   24.7498 H   0  0  0  0  0  0
  -28.1065  -36.2632   24.6291 H   0  0  0  0  0  0
  -27.2293  -37.1453   25.8862 H   0  0  0  0  0  0
  -20.9354  -29.8473   21.6607 H   0  0  0  0  0  0
  -26.0191  -38.2861   24.1393 H   0  0  0  0  0  0
  -30.3977  -20.4681   20.2209 H   0  0  0  0  0  0
  -26.7320  -22.4309   21.3515 H   0  0  0  0  0  0
  -22.5565  -19.5281   17.0415 H   0  0  0  0  0  0
  -22.3728  -19.8366   18.7680 H   0  0  0  0  0  0
  -22.3854  -18.1875   18.1520 H   0  0  0  0  0  0
  -26.0499  -20.4517   17.8444 H   0  0  0  0  0  0
  -24.7428  -21.1911   18.7755 H   0  0  0  0  0  0
  -24.5719  -20.9631   17.0390 H   0  0  0  0  0  0
  -30.4060  -22.9375   20.7067 H   0  0  0  0  0  0
  -29.2990  -23.2496   21.9950 H   0  0  0  0  0  0
  -30.1308  -18.1623   19.1088 H   0  0  0  0  0  0
  -28.6553  -17.3056   19.1701 H   0  0  0  0  0  0
  -26.2840  -17.5235   20.7083 H   0  0  0  0  0  0
  -26.5964  -17.7194   18.9901 H   0  0  0  0  0  0
  -27.7705  -23.9295   19.6717 H   0  0  0  0  0  0
  -29.3734  -24.4116   19.2574 H   0  0  0  0  0  0
  -24.3243  -19.2126   20.3901 H   0  0  0  0  0  0
  -24.1758  -17.6389   19.7035 H   0  0  0  0  0  0
  -29.2783  -17.2764   21.8557 H   0  0  0  0  0  0
  -30.8855  -17.3086   21.2056 H   0  0  0  0  0  0
  -29.3228  -25.6975   21.5914 H   0  0  0  0  0  0
  -27.6107  -25.4240   21.5493 H   0  0  0  0  0  0
  -24.7561  -18.4475   17.4470 H   0  0  0  0  0  0
  -28.7846  -15.2303   20.9525 H   0  0  0  0  0  0
  1 25  1  0  0  0
  1 30  2  0  0  0
  1 87  1  0  0  0
  2  3  1  0  0  0
  2 25  1  0  0  0
  2 88  1  0  0  0
  2 89  1  0  0  0
  3  4  1  0  0  0
  3 90  1  0  0  0
  3 91  1  0  0  0
  4  5  1  0  0  0
  4 92  1  0  0  0
  4 93  1  0  0  0
  5  6  1  0  0  0
  5 26  1  0  0  0
  5 94  1  0  0  0
  6 25  1  0  0  0
  6 95  1  0  0  0
  6 96  1  0  0  0
  7  8  2  0  0  0
  7 26  1  0  0  0
  7 29  1  0  0  0
  8  9  1  0  0  0
  8 22  1  0  0  0
  9 10  1  0  0  0
  9 27  2  0  0  0
 10 11  2  0  0  0
 10 15  1  0  0  0
 11 12  1  0  0  0
 11 97  1  0  0  0
 12 13  2  0  0  0
 12 98  1  0  0  0
 13 14  1  0  0  0
 13 31  1  0  0  0
 14 15  2  0  0  0
 14 99  1  0  0  0
 15100  1  0  0  0
 16 17  2  0  0  0
 16 21  1  0  0  0
 16 31  1  0  0  0
 17 18  1  0  0  0
 17101  1  0  0  0
 18 19  2  0  0  0
 18102  1  0  0  0
 19 20  1  0  0  0
 19 24  1  0  0  0
 20 21  2  0  0  0
 20103  1  0  0  0
 21 23  1  0  0  0
 22 28  1  0  0  0
 22 32  2  0  0  0
 26 27  1  0  0  0
 28104  1  0  0  0
 28105  1  0  0  0
 29106  1  0  0  0
 29107  1  0  0  0
 33 34  1  0  0  0
 33 66  1  0  0  0
 33 70  2  0  0  0
 34 36  1  0  0  0
 34 59  1  0  0  0
 34108  1  0  0  0
 35 44  2  0  0  0
 35 45  1  0  0  0
 35 68  1  0  0  0
 36 56  1  0  0  0
 36109  1  0  0  0
 37 39  1  0  0  0
 37 47  1  0  0  0
 37 66  1  0  0  0
 37110  1  0  0  0
 38 43  2  0  0  0
 38 46  1  0  0  0
 38 47  1  0  0  0
 39 64  1  0  0  0
 39 67  2  0  0  0
 40 52  1  0  0  0
 40 53  2  0  0  0
 40 58  1  0  0  0
 41111  1  0  0  0
 41112  1  0  0  0
 41113  1  0  0  0
 41 48  1  0  0  0
 42 43  1  0  0  0
 42 66  1  0  0  0
 42114  1  0  0  0
 42115  1  0  0  0
 43 44  1  0  0  0
 44116  1  0  0  0
 45 46  2  0  0  0
 45117  1  0  0  0
 46118  1  0  0  0
 47119  1  0  0  0
 47120  1  0  0  0
 48 56  1  0  0  0
 48 65  1  0  0  0
 48121  1  0  0  0
 49 50  1  0  0  0
 49 53  1  0  0  0
 49 64  1  0  0  0
 49122  1  0  0  0
 50 51  1  0  0  0
 50123  1  0  0  0
 50124  1  0  0  0
 51 52  1  0  0  0
 51125  1  0  0  0
 51126  1  0  0  0
 52127  1  0  0  0
 52128  1  0  0  0
 53 54  1  0  0  0
 54 55  2  0  0  0
 54129  1  0  0  0
 55 57  1  0  0  0
 55130  1  0  0  0
 56 69  2  0  0  0
 57 58  2  0  0  0
 57131  1  0  0  0
 58132  1  0  0  0
 59 60  1  0  0  0
 59 61  1  0  0  0
 59 62  1  0  0  0
 60133  1  0  0  0
 60134  1  0  0  0
 60135  1  0  0  0
 61136  1  0  0  0
 61137  1  0  0  0
 61138  1  0  0  0
 62139  1  0  0  0
 62140  1  0  0  0
 62141  1  0  0  0
 63 65  1  0  0  0
 63142  1  0  0  0
 63143  1  0  0  0
 63144  1  0  0  0
 64145  1  0  0  0
 65146  1  0  0  0
 68 84  1  0  0  0
 71 73  2  0  0  0
 71 74  1  0  0  0
 71147  1  0  0  0
 72 73  1  0  0  0
 72 86  2  0  0  0
 72148  1  0  0  0
 73 78  1  0  0  0
 74 75  2  0  0  0
 74 79  1  0  0  0
 75 80  1  0  0  0
 75 86  1  0  0  0
 76149  1  0  0  0
 76150  1  0  0  0
 76151  1  0  0  0
 76 85  1  0  0  0
 77 85  1  0  0  0
 77152  1  0  0  0
 77153  1  0  0  0
 77154  1  0  0  0
 78 81  1  0  0  0
 78155  1  0  0  0
 78156  1  0  0  0
 79 83  1  0  0  0
 79157  1  0  0  0
 79158  1  0  0  0
 80 82  1  0  0  0
 80159  1  0  0  0
 80160  1  0  0  0
 81 84  1  0  0  0
 81161  1  0  0  0
 81162  1  0  0  0
 82 85  1  0  0  0
 82163  1  0  0  0
 82164  1  0  0  0
 83 87  1  0  0  0
 83165  1  0  0  0
 83166  1  0  0  0
 84167  1  0  0  0
 84168  1  0  0  0
 85169  1  0  0  0
 87170  1  0  0  0
M  ISO  4   1 100  68 101  84 101  87 100
M  END
> <chiral flag>
0

> <version>
0

> <s_m_source_file>
/data/baiqing/PycharmProjects/Reinvent-master-3.2/result/LINK_invent/BTK/process_docking_weight1_custom_sum_contain_oxygen_bond_distance_aromatic_linkinvent_7_9_3/rearranged_h_0097.sdf

> <i_m_source_file_index>
93

> <r_mmod_Potential_Energy-OPLS-2005>
-135.191696166992

> <r_mmod_Stretch_Energy-OPLS-2005>
48.3300285339355

> <r_mmod_Bend_Energy-OPLS-2005>
120.038482666016

> <r_mmod_Torsional_Energy-OPLS-2005>
266.506530761719

> <r_mmod_Improper_Torsional_Energy-OPLS-2005>
5.37844371795654

> <r_mmod_Van_der_Waal_Energy-OPLS-2005>
144.702117919922

> <r_mmod_Electrostatic_Energy-OPLS-2005>
-535.485473632812

> <r_mmod_Solvation_Energy-OPLS-2005>
-211.707855224609

> <b_mmod_Minimization_Converged-OPLS-2005>
0

> <r_mmod_RMS_Derivative-OPLS-2005>
6.43320083618164

$$$$
94
                    3D
 Structure written by MMmdl.
160168  0  0  1  0            999 V2000
  -30.6651  -14.5308   20.5304 C   0  0  0  0  0  0
  -30.4236  -12.3308   19.4360 C   0  0  0  0  0  0
  -29.4966  -12.5011   18.2137 C   0  0  0  0  0  0
  -28.0187  -12.3503   18.6268 C   0  0  0  0  0  0
  -27.6562  -13.2081   19.8686 C   0  0  2  0  0  0
  -28.6983  -13.0206   20.9947 C   0  0  0  0  0  0
  -25.2573  -13.8155   20.5678 C   0  0  0  0  0  0
  -24.1828  -13.0431   20.9183 C   0  0  0  0  0  0
  -24.6382  -11.6898   20.8746 C   0  0  0  0  0  0
  -23.9047  -10.4285   21.0414 C   0  0  0  0  0  0
  -24.3609   -9.4204   21.9191 C   0  0  0  0  0  0
  -23.6285   -8.2237   22.0760 C   0  0  0  0  0  0
  -22.4269   -8.0277   21.3542 C   0  0  0  0  0  0
  -21.9898   -9.0248   20.4650 C   0  0  0  0  0  0
  -22.7219  -10.2130   20.3062 C   0  0  0  0  0  0
  -21.6847   -6.0740   22.5276 C   0  0  0  0  0  0
  -21.4013   -6.5646   23.8215 C   0  0  0  0  0  0
  -21.3654   -5.6802   24.9173 C   0  0  0  0  0  0
  -21.6044   -4.3063   24.7233 C   0  0  0  0  0  0
  -21.8818   -3.8150   23.4349 C   0  0  0  0  0  0
  -21.9187   -4.6965   22.3406 C   0  0  0  0  0  0
  -22.7855  -13.5223   21.1844 C   0  0  0  0  0  0
  -22.1656   -4.2148   21.0982 F   0  0  0  0  0  0
  -21.5623   -3.4550   25.7743 F   0  0  0  0  0  0
  -30.0240  -13.3320   20.4386 N   0  0  0  0  0  0
  -26.2994  -12.9322   20.3336 N   0  0  0  0  0  0
  -25.9309  -11.6485   20.5771 N   0  0  0  0  0  0
  -22.0504  -12.8222   22.0415 N   0  0  0  0  0  0
  -25.4311  -15.1876   20.4086 N   0  0  0  0  0  0
  -31.8116  -14.7034   20.1081 O   0  0  0  0  0  0
  -21.6631   -6.8874   21.4238 O   0  0  0  0  0  0
  -22.3535  -14.5521   20.6675 O   0  0  0  0  0  0
  -24.6190  -31.8644   23.2074 C   0  0  0  0  0  0
  -25.9075  -32.4800   23.8373 C   0  0  1  0  0  0
  -27.2228  -27.3951   20.1072 C   0  0  0  0  0  0
  -25.5911  -33.8597   24.2296 N   0  0  0  0  0  0
  -23.4088  -30.4884   21.5481 C   0  0  2  0  0  0
  -24.8568  -28.9506   20.1120 C   0  0  0  0  0  0
  -22.7428  -29.4646   22.4967 C   0  0  0  0  0  0
  -18.0279  -28.1381   22.8482 C   0  0  0  0  0  0
  -24.1490  -36.7311   23.2641 C   0  0  0  0  0  0
  -25.9415  -30.8190   21.3669 C   0  0  0  0  0  0
  -26.0193  -29.4501   20.7149 C   0  0  0  0  0  0
  -27.2104  -28.6793   20.7101 C   0  0  0  0  0  0
  -26.0509  -26.9259   19.4832 C   0  0  0  0  0  0
  -24.8684  -27.6898   19.4917 C   0  0  0  0  0  0
  -23.6198  -29.8212   20.1630 C   0  0  0  0  0  0
  -25.4111  -36.3086   24.0329 C   0  0  1  0  0  0
  -20.5868  -28.3670   23.1305 C   0  0  2  0  0  0
  -20.6764  -26.9400   22.5419 C   0  0  0  0  0  0
  -19.5747  -26.6383   21.5210 C   0  0  0  0  0  0
  -18.1926  -26.7927   22.1621 C   0  0  0  0  0  0
  -19.1526  -28.8842   23.2889 C   0  0  0  0  0  0
  -18.9454  -30.1449   23.8898 C   0  0  0  0  0  0
  -17.6454  -30.6584   24.0567 C   0  0  0  0  0  0
  -25.9040  -34.9459   23.5108 C   0  0  0  0  0  0
  -16.5344  -29.9086   23.6328 C   0  0  0  0  0  0
  -16.7266  -28.6507   23.0339 C   0  0  0  0  0  0
  -26.4492  -31.6590   25.0712 C   0  0  0  0  0  0
  -25.3763  -31.3704   26.1462 C   0  0  0  0  0  0
  -27.0321  -30.3022   24.6118 C   0  0  0  0  0  0
  -27.6051  -32.4322   25.7482 C   0  0  0  0  0  0
  -27.5571  -37.1809   24.8464 C   0  0  0  0  0  0
  -21.4152  -29.3034   22.3706 N   0  0  0  0  0  0
  -26.4291  -37.3775   23.9397 N   0  0  0  0  0  0
  -24.6746  -31.0717   22.0992 N   0  0  0  0  0  0
  -23.4182  -28.8195   23.3033 O   0  0  0  0  0  0
  -28.3372  -26.5738   20.0969 O   0  0  0  0  0  0
  -26.5598  -34.8915   22.4667 O   0  0  0  0  0  0
  -23.5372  -32.1414   23.7450 O   0  0  0  0  0  0
  -29.9547  -19.9496   19.4283 C   0  0  0  0  0  0
  -28.5289  -20.5688   21.0112 C   0  0  0  0  0  0
  -29.1878  -19.4587   20.5257 C   0  0  0  0  0  0
  -29.6878  -21.2823   19.2379 C   0  0  0  0  0  0
  -30.1743  -22.1983   18.1602 C   0  0  0  0  0  0
  -27.2606  -25.4161   22.0994 C   0  0  0  0  0  0
  -29.0562  -17.9999   21.0120 C   0  0  0  0  0  0
  -29.1120  -24.2169   20.7346 C   0  0  0  0  0  0
  -28.1623  -23.0288   20.3652 C   0  0  0  0  0  0
  -30.2156  -17.0124   20.6536 C   0  0  0  0  0  0
  -28.4819  -25.5959   21.1682 C   0  0  1  0  0  0
  -28.8004  -21.6921   20.2251 N   0  0  0  0  0  0
  -29.9001  -15.5828   20.9067 N   0  0  0  0  0  0
  -31.4682  -12.4324   19.1361 H   0  0  0  0  0  0
  -30.3284  -11.3266   19.8515 H   0  0  0  0  0  0
  -29.7471  -11.7663   17.4479 H   0  0  0  0  0  0
  -29.6538  -13.4821   17.7613 H   0  0  0  0  0  0
  -27.8454  -11.2955   18.8461 H   0  0  0  0  0  0
  -27.3616  -12.5953   17.7902 H   0  0  0  0  0  0
  -27.6888  -14.2498   19.5483 H   0  0  0  0  0  0
  -28.6825  -11.9923   21.3596 H   0  0  0  0  0  0
  -28.4591  -13.6431   21.8586 H   0  0  0  0  0  0
  -25.2761   -9.5690   22.4762 H   0  0  0  0  0  0
  -23.9998   -7.4637   22.7487 H   0  0  0  0  0  0
  -21.0827   -8.8759   19.8967 H   0  0  0  0  0  0
  -22.3666  -10.9671   19.6176 H   0  0  0  0  0  0
  -21.2007   -7.6154   23.9713 H   0  0  0  0  0  0
  -21.1478   -6.0535   25.9076 H   0  0  0  0  0  0
  -22.0599   -2.7613   23.2850 H   0  0  0  0  0  0
  -22.4100  -11.9868   22.4791 H   0  0  0  0  0  0
  -21.1133  -13.1271   22.2640 H   0  0  0  0  0  0
  -24.6678  -15.8453   20.5268 H   0  0  0  0  0  0
  -26.2782  -15.6252   20.0697 H   0  0  0  0  0  0
  -26.7146  -32.5500   23.1131 H   0  0  0  0  0  0
  -25.0051  -33.9747   25.0436 H   0  0  0  0  0  0
  -22.7002  -31.3073   21.4072 H   0  0  0  0  0  0
  -23.3722  -35.9675   23.3324 H   0  0  0  0  0  0
  -24.3576  -36.8908   22.2051 H   0  0  0  0  0  0
  -23.7282  -37.6539   23.6647 H   0  0  0  0  0  0
  -26.0572  -31.5840   20.5978 H   0  0  0  0  0  0
  -26.8285  -30.8724   21.9866 H   0  0  0  0  0  0
  -28.1085  -29.0548   21.1806 H   0  0  0  0  0  0
  -26.0491  -25.9554   19.0070 H   0  0  0  0  0  0
  -23.9759  -27.3027   19.0194 H   0  0  0  0  0  0
  -23.7293  -30.5959   19.4029 H   0  0  0  0  0  0
  -22.7429  -29.2432   19.8659 H   0  0  0  0  0  0
  -25.1297  -36.1938   25.0823 H   0  0  0  0  0  0
  -20.9963  -28.3240   24.1425 H   0  0  0  0  0  0
  -20.5658  -26.2276   23.3609 H   0  0  0  0  0  0
  -21.6637  -26.7440   22.1215 H   0  0  0  0  0  0
  -19.6907  -25.6296   21.1236 H   0  0  0  0  0  0
  -19.6692  -27.3195   20.6743 H   0  0  0  0  0  0
  -17.4195  -26.6663   21.4029 H   0  0  0  0  0  0
  -18.0336  -26.0072   22.9023 H   0  0  0  0  0  0
  -19.7930  -30.7266   24.2263 H   0  0  0  0  0  0
  -17.5011  -31.6266   24.5170 H   0  0  0  0  0  0
  -15.5345  -30.2989   23.7660 H   0  0  0  0  0  0
  -15.8662  -28.0841   22.7038 H   0  0  0  0  0  0
  -24.5938  -30.7045   25.7804 H   0  0  0  0  0  0
  -24.8960  -32.2865   26.4912 H   0  0  0  0  0  0
  -25.8134  -30.8877   27.0214 H   0  0  0  0  0  0
  -26.2867  -29.6774   24.1183 H   0  0  0  0  0  0
  -27.4075  -29.7269   25.4591 H   0  0  0  0  0  0
  -27.8712  -30.4302   23.9275 H   0  0  0  0  0  0
  -27.2651  -33.3610   26.2074 H   0  0  0  0  0  0
  -28.3863  -32.6911   25.0323 H   0  0  0  0  0  0
  -28.0724  -31.8448   26.5396 H   0  0  0  0  0  0
  -28.2607  -38.0085   24.7466 H   0  0  0  0  0  0
  -28.1042  -36.2611   24.6340 H   0  0  0  0  0  0
  -27.2277  -37.1523   25.8865 H   0  0  0  0  0  0
  -20.9312  -29.8758   21.6925 H   0  0  0  0  0  0
  -26.0168  -38.2851   24.1383 H   0  0  0  0  0  0
  -30.6042  -19.3656   18.7900 H   0  0  0  0  0  0
  -27.8306  -20.6498   21.8358 H   0  0  0  0  0  0
  -30.5518  -21.6282   17.3099 H   0  0  0  0  0  0
  -30.9843  -22.8324   18.5187 H   0  0  0  0  0  0
  -29.3740  -22.8381   17.7871 H   0  0  0  0  0  0
  -26.9727  -26.3545   22.5743 H   0  0  0  0  0  0
  -27.4852  -24.7166   22.9054 H   0  0  0  0  0  0
  -26.3911  -25.0346   21.5642 H   0  0  0  0  0  0
  -28.1248  -17.6167   20.5930 H   0  0  0  0  0  0
  -28.9152  -18.0097   22.0935 H   0  0  0  0  0  0
  -29.8213  -24.3915   19.9278 H   0  0  0  0  0  0
  -29.7163  -23.8713   21.5740 H   0  0  0  0  0  0
  -27.6386  -23.2555   19.4350 H   0  0  0  0  0  0
  -27.3848  -22.9309   21.1218 H   0  0  0  0  0  0
  -31.1161  -17.2897   21.2037 H   0  0  0  0  0  0
  -30.4563  -17.1114   19.5935 H   0  0  0  0  0  0
  -29.2464  -26.0593   21.7936 H   0  0  0  0  0  0
  -28.9683  -15.3663   21.2279 H   0  0  0  0  0  0
  1 25  1  0  0  0
  1 30  2  0  0  0
  1 83  1  0  0  0
  2  3  1  0  0  0
  2 25  1  0  0  0
  2 84  1  0  0  0
  2 85  1  0  0  0
  3  4  1  0  0  0
  3 86  1  0  0  0
  3 87  1  0  0  0
  4  5  1  0  0  0
  4 88  1  0  0  0
  4 89  1  0  0  0
  5  6  1  0  0  0
  5 26  1  0  0  0
  5 90  1  0  0  0
  6 25  1  0  0  0
  6 91  1  0  0  0
  6 92  1  0  0  0
  7  8  2  0  0  0
  7 26  1  0  0  0
  7 29  1  0  0  0
  8  9  1  0  0  0
  8 22  1  0  0  0
  9 10  1  0  0  0
  9 27  2  0  0  0
 10 11  2  0  0  0
 10 15  1  0  0  0
 11 12  1  0  0  0
 11 93  1  0  0  0
 12 13  2  0  0  0
 12 94  1  0  0  0
 13 14  1  0  0  0
 13 31  1  0  0  0
 14 15  2  0  0  0
 14 95  1  0  0  0
 15 96  1  0  0  0
 16 17  2  0  0  0
 16 21  1  0  0  0
 16 31  1  0  0  0
 17 18  1  0  0  0
 17 97  1  0  0  0
 18 19  2  0  0  0
 18 98  1  0  0  0
 19 20  1  0  0  0
 19 24  1  0  0  0
 20 21  2  0  0  0
 20 99  1  0  0  0
 21 23  1  0  0  0
 22 28  1  0  0  0
 22 32  2  0  0  0
 26 27  1  0  0  0
 28100  1  0  0  0
 28101  1  0  0  0
 29102  1  0  0  0
 29103  1  0  0  0
 33 34  1  0  0  0
 33 66  1  0  0  0
 33 70  2  0  0  0
 34 36  1  0  0  0
 34 59  1  0  0  0
 34104  1  0  0  0
 35 44  2  0  0  0
 35 45  1  0  0  0
 35 68  1  0  0  0
 36 56  1  0  0  0
 36105  1  0  0  0
 37 39  1  0  0  0
 37 47  1  0  0  0
 37 66  1  0  0  0
 37106  1  0  0  0
 38 43  2  0  0  0
 38 46  1  0  0  0
 38 47  1  0  0  0
 39 64  1  0  0  0
 39 67  2  0  0  0
 40 52  1  0  0  0
 40 53  2  0  0  0
 40 58  1  0  0  0
 41107  1  0  0  0
 41108  1  0  0  0
 41109  1  0  0  0
 41 48  1  0  0  0
 42 43  1  0  0  0
 42 66  1  0  0  0
 42110  1  0  0  0
 42111  1  0  0  0
 43 44  1  0  0  0
 44112  1  0  0  0
 45 46  2  0  0  0
 45113  1  0  0  0
 46114  1  0  0  0
 47115  1  0  0  0
 47116  1  0  0  0
 48 56  1  0  0  0
 48 65  1  0  0  0
 48117  1  0  0  0
 49 50  1  0  0  0
 49 53  1  0  0  0
 49 64  1  0  0  0
 49118  1  0  0  0
 50 51  1  0  0  0
 50119  1  0  0  0
 50120  1  0  0  0
 51 52  1  0  0  0
 51121  1  0  0  0
 51122  1  0  0  0
 52123  1  0  0  0
 52124  1  0  0  0
 53 54  1  0  0  0
 54 55  2  0  0  0
 54125  1  0  0  0
 55 57  1  0  0  0
 55126  1  0  0  0
 56 69  2  0  0  0
 57 58  2  0  0  0
 57127  1  0  0  0
 58128  1  0  0  0
 59 60  1  0  0  0
 59 61  1  0  0  0
 59 62  1  0  0  0
 60129  1  0  0  0
 60130  1  0  0  0
 60131  1  0  0  0
 61132  1  0  0  0
 61133  1  0  0  0
 61134  1  0  0  0
 62135  1  0  0  0
 62136  1  0  0  0
 62137  1  0  0  0
 63 65  1  0  0  0
 63138  1  0  0  0
 63139  1  0  0  0
 63140  1  0  0  0
 64141  1  0  0  0
 65142  1  0  0  0
 68 81  1  0  0  0
 71 73  1  0  0  0
 71 74  2  0  0  0
 71143  1  0  0  0
 72 73  2  0  0  0
 72 82  1  0  0  0
 72144  1  0  0  0
 73 77  1  0  0  0
 74 75  1  0  0  0
 74 82  1  0  0  0
 75145  1  0  0  0
 75146  1  0  0  0
 75147  1  0  0  0
 76148  1  0  0  0
 76149  1  0  0  0
 76150  1  0  0  0
 76 81  1  0  0  0
 77 80  1  0  0  0
 77151  1  0  0  0
 77152  1  0  0  0
 78 79  1  0  0  0
 78 81  1  0  0  0
 78153  1  0  0  0
 78154  1  0  0  0
 79 82  1  0  0  0
 79155  1  0  0  0
 79156  1  0  0  0
 80 83  1  0  0  0
 80157  1  0  0  0
 80158  1  0  0  0
 81159  1  0  0  0
 83160  1  0  0  0
M  ISO  4   1 100  68 101  81 101  83 100
M  END
> <chiral flag>
0

> <version>
0

> <s_m_source_file>
/data/baiqing/PycharmProjects/Reinvent-master-3.2/result/LINK_invent/BTK/process_docking_weight1_custom_sum_contain_oxygen_bond_distance_aromatic_linkinvent_7_9_3/rearranged_h_0097.sdf

> <i_m_source_file_index>
94

> <r_mmod_Potential_Energy-OPLS-2005>
-53.4693641662598

> <r_mmod_Stretch_Energy-OPLS-2005>
48.1235580444336

> <r_mmod_Bend_Energy-OPLS-2005>
114.703155517578

> <r_mmod_Torsional_Energy-OPLS-2005>
250.184951782227

> <r_mmod_Improper_Torsional_Energy-OPLS-2005>
5.89112281799316

> <r_mmod_Van_der_Waal_Energy-OPLS-2005>
121.30786895752

> <r_mmod_Electrostatic_Energy-OPLS-2005>
-406.127624511719

> <r_mmod_Solvation_Energy-OPLS-2005>
-209.907989501953

> <b_mmod_Minimization_Converged-OPLS-2005>
0

> <r_mmod_RMS_Derivative-OPLS-2005>
1.59794008731842

$$$$
95
                    3D
 Structure written by MMmdl.
170178  0  0  1  0            999 V2000
  -30.5190  -14.9753   20.4173 C   0  0  0  0  0  0
  -30.4420  -12.6014   19.5138 C   0  0  0  0  0  0
  -29.5286  -12.5416   18.2660 C   0  0  0  0  0  0
  -28.0609  -12.3220   18.6780 C   0  0  0  0  0  0
  -27.6320  -13.2504   19.8450 C   0  0  2  0  0  0
  -28.6707  -13.2787   20.9874 C   0  0  0  0  0  0
  -25.2456  -13.8219   20.5702 C   0  0  0  0  0  0
  -24.1770  -13.0437   20.9207 C   0  0  0  0  0  0
  -24.6398  -11.6922   20.8742 C   0  0  0  0  0  0
  -23.9089  -10.4294   21.0404 C   0  0  0  0  0  0
  -24.3634   -9.4207   21.9185 C   0  0  0  0  0  0
  -23.6293   -8.2249   22.0763 C   0  0  0  0  0  0
  -22.4276   -8.0291   21.3551 C   0  0  0  0  0  0
  -21.9917   -9.0268   20.4653 C   0  0  0  0  0  0
  -22.7258  -10.2139   20.3056 C   0  0  0  0  0  0
  -21.6861   -6.0739   22.5274 C   0  0  0  0  0  0
  -21.4026   -6.5638   23.8208 C   0  0  0  0  0  0
  -21.3662   -5.6790   24.9169 C   0  0  0  0  0  0
  -21.6042   -4.3054   24.7219 C   0  0  0  0  0  0
  -21.8815   -3.8143   23.4339 C   0  0  0  0  0  0
  -21.9194   -4.6966   22.3397 C   0  0  0  0  0  0
  -22.7790  -13.5212   21.1864 C   0  0  0  0  0  0
  -22.1657   -4.2153   21.0974 F   0  0  0  0  0  0
  -21.5630   -3.4533   25.7732 F   0  0  0  0  0  0
  -29.9479  -13.7004   20.3976 N   0  0  0  0  0  0
  -26.2887  -12.9455   20.3251 N   0  0  0  0  0  0
  -25.9331  -11.6580   20.5730 N   0  0  0  0  0  0
  -22.0441  -12.8214   22.0424 N   0  0  0  0  0  0
  -25.4110  -15.1947   20.4139 N   0  0  0  0  0  0
  -31.7090  -15.0559   20.0917 O   0  0  0  0  0  0
  -21.6639   -6.8885   21.4238 O   0  0  0  0  0  0
  -22.3474  -14.5515   20.6707 O   0  0  0  0  0  0
  -24.6456  -31.8402   23.1852 C   0  0  0  0  0  0
  -25.9222  -32.4670   23.8249 C   0  0  1  0  0  0
  -27.2212  -27.1116   20.1593 C   0  0  0  0  0  0
  -25.5962  -33.8477   24.2171 N   0  0  0  0  0  0
  -23.4507  -30.4590   21.5291 C   0  0  2  0  0  0
  -24.9026  -28.8796   20.1087 C   0  0  0  0  0  0
  -22.7582  -29.4525   22.4823 C   0  0  0  0  0  0
  -18.0312  -28.1392   22.8473 C   0  0  0  0  0  0
  -24.1497  -36.7254   23.2642 C   0  0  0  0  0  0
  -26.0076  -30.7072   21.3872 C   0  0  0  0  0  0
  -26.0791  -29.3146   20.7318 C   0  0  0  0  0  0
  -27.2370  -28.4468   20.7401 C   0  0  0  0  0  0
  -26.0197  -26.7835   19.4929 C   0  0  0  0  0  0
  -24.8876  -27.6291   19.4720 C   0  0  0  0  0  0
  -23.6802  -29.7853   20.1488 C   0  0  0  0  0  0
  -25.4127  -36.3015   24.0310 C   0  0  1  0  0  0
  -20.5928  -28.3728   23.1225 C   0  0  2  0  0  0
  -20.6798  -26.9426   22.5406 C   0  0  0  0  0  0
  -19.5775  -26.6378   21.5209 C   0  0  0  0  0  0
  -18.1953  -26.7931   22.1617 C   0  0  0  0  0  0
  -19.1567  -28.8877   23.2844 C   0  0  0  0  0  0
  -18.9481  -30.1464   23.8885 C   0  0  0  0  0  0
  -17.6478  -30.6590   24.0558 C   0  0  0  0  0  0
  -25.9075  -34.9392   23.5050 C   0  0  0  0  0  0
  -16.5371  -29.9085   23.6328 C   0  0  0  0  0  0
  -16.7294  -28.6497   23.0361 C   0  0  0  0  0  0
  -26.4537  -31.6537   25.0697 C   0  0  0  0  0  0
  -25.3719  -31.3736   26.1388 C   0  0  0  0  0  0
  -27.0399  -30.2923   24.6291 C   0  0  0  0  0  0
  -27.6055  -32.4307   25.7498 C   0  0  0  0  0  0
  -27.5574  -37.1784   24.8461 C   0  0  0  0  0  0
  -21.4267  -29.3051   22.3591 N   0  0  0  0  0  0
  -26.4286  -37.3732   23.9402 N   0  0  0  0  0  0
  -24.7212  -31.0245   22.0889 N   0  0  0  0  0  0
  -23.4216  -28.8059   23.2972 O   0  0  0  0  0  0
  -28.2702  -26.1164   20.2441 O   0  0  0  0  0  0
  -26.5663  -34.8899   22.4629 O   0  0  0  0  0  0
  -23.5572  -32.1285   23.7060 O   0  0  0  0  0  0
  -28.4518  -20.8651   22.4524 C   0  0  0  0  0  0
  -28.2843  -20.0872   23.6064 C   0  0  0  0  0  0
  -28.9344  -20.3587   21.2210 C   0  0  0  0  0  0
  -28.5943  -18.7243   23.5193 C   0  0  0  0  0  0
  -29.2511  -18.8603   21.2450 C   0  0  0  0  0  0
  -28.4480  -17.7721   24.6920 C   0  0  0  0  0  0
  -25.9715  -25.4387   25.2304 C   0  0  0  0  0  0
  -27.8191  -20.7417   24.9118 C   0  0  0  0  0  0
  -28.9067  -21.5963   20.1244 C   0  0  0  0  0  0
  -29.8466  -17.6977   20.2516 C   0  0  0  0  0  0
  -26.5866  -21.6652   24.7769 C   0  0  0  0  0  0
  -29.0258  -23.2779   20.4938 C   0  0  0  0  0  0
  -26.9055  -23.1476   25.0657 C   0  0  0  0  0  0
  -28.0265  -24.5783   20.0421 C   0  0  0  0  0  0
  -29.0472  -18.1677   22.3887 N   0  0  0  0  0  0
  -29.7184  -16.1396   20.5907 N   0  0  0  0  0  0
  -25.7134  -24.0135   24.9427 N   0  3  0  0  0  0
  -31.4792  -12.7560   19.2112 H   0  0  0  0  0  0
  -30.4305  -11.6485   20.0446 H   0  0  0  0  0  0
  -29.8535  -11.7467   17.5932 H   0  0  0  0  0  0
  -29.6170  -13.4728   17.7040 H   0  0  0  0  0  0
  -27.9573  -11.2794   18.9819 H   0  0  0  0  0  0
  -27.4003  -12.4563   17.8207 H   0  0  0  0  0  0
  -27.5981  -14.2543   19.4214 H   0  0  0  0  0  0
  -28.7583  -12.3005   21.4626 H   0  0  0  0  0  0
  -28.3644  -13.9758   21.7694 H   0  0  0  0  0  0
  -25.2785   -9.5677   22.4751 H   0  0  0  0  0  0
  -24.0004   -7.4642   22.7485 H   0  0  0  0  0  0
  -21.0847   -8.8789   19.8958 H   0  0  0  0  0  0
  -22.3723  -10.9676   19.6155 H   0  0  0  0  0  0
  -21.2027   -7.6149   23.9715 H   0  0  0  0  0  0
  -21.1485   -6.0520   25.9076 H   0  0  0  0  0  0
  -22.0593   -2.7608   23.2834 H   0  0  0  0  0  0
  -22.4071  -11.9891   22.4830 H   0  0  0  0  0  0
  -21.1055  -13.1234   22.2624 H   0  0  0  0  0  0
  -24.6392  -15.8429   20.5287 H   0  0  0  0  0  0
  -26.2527  -15.6407   20.0731 H   0  0  0  0  0  0
  -26.7284  -32.5274   23.0972 H   0  0  0  0  0  0
  -25.0083  -33.9582   25.0304 H   0  0  0  0  0  0
  -22.7549  -31.2856   21.3718 H   0  0  0  0  0  0
  -23.3752  -35.9591   23.3284 H   0  0  0  0  0  0
  -24.3581  -36.8911   22.2060 H   0  0  0  0  0  0
  -23.7265  -37.6449   23.6697 H   0  0  0  0  0  0
  -26.1656  -31.4574   20.6111 H   0  0  0  0  0  0
  -26.8770  -30.7602   22.0305 H   0  0  0  0  0  0
  -28.1313  -28.7732   21.2530 H   0  0  0  0  0  0
  -25.9248  -25.8267   19.0016 H   0  0  0  0  0  0
  -23.9916  -27.2932   18.9686 H   0  0  0  0  0  0
  -23.8222  -30.5586   19.3930 H   0  0  0  0  0  0
  -22.7943  -29.2300   19.8351 H   0  0  0  0  0  0
  -25.1319  -36.1830   25.0801 H   0  0  0  0  0  0
  -21.0027  -28.3329   24.1343 H   0  0  0  0  0  0
  -20.5680  -26.2345   23.3629 H   0  0  0  0  0  0
  -21.6666  -26.7422   22.1214 H   0  0  0  0  0  0
  -19.6941  -25.6279   21.1263 H   0  0  0  0  0  0
  -19.6718  -27.3167   20.6721 H   0  0  0  0  0  0
  -17.4223  -26.6670   21.4019 H   0  0  0  0  0  0
  -18.0357  -26.0076   22.9017 H   0  0  0  0  0  0
  -19.7955  -30.7278   24.2264 H   0  0  0  0  0  0
  -17.5031  -31.6271   24.5156 H   0  0  0  0  0  0
  -15.5371  -30.2987   23.7654 H   0  0  0  0  0  0
  -15.8693  -28.0804   22.7102 H   0  0  0  0  0  0
  -24.5897  -30.7087   25.7707 H   0  0  0  0  0  0
  -24.8919  -32.2927   26.4755 H   0  0  0  0  0  0
  -25.7998  -30.8942   27.0202 H   0  0  0  0  0  0
  -26.3017  -29.6641   24.1293 H   0  0  0  0  0  0
  -27.3998  -29.7227   25.4870 H   0  0  0  0  0  0
  -27.8935  -30.4146   23.9620 H   0  0  0  0  0  0
  -27.2632  -33.3623   26.2016 H   0  0  0  0  0  0
  -28.3911  -32.6836   25.0367 H   0  0  0  0  0  0
  -28.0671  -31.8471   26.5474 H   0  0  0  0  0  0
  -28.2575  -38.0096   24.7498 H   0  0  0  0  0  0
  -28.1088  -36.2621   24.6294 H   0  0  0  0  0  0
  -27.2291  -37.1438   25.8865 H   0  0  0  0  0  0
  -20.9474  -29.8778   21.6786 H   0  0  0  0  0  0
  -26.0145  -38.2796   24.1402 H   0  0  0  0  0  0
  -28.1684  -21.9001   22.5361 H   0  0  0  0  0  0
  -29.0527  -18.1023   25.5370 H   0  0  0  0  0  0
  -28.7647  -16.7608   24.4340 H   0  0  0  0  0  0
  -27.4072  -17.7182   25.0109 H   0  0  0  0  0  0
  -25.0610  -26.0238   25.0989 H   0  0  0  0  0  0
  -26.7308  -25.8457   24.5616 H   0  0  0  0  0  0
  -26.3122  -25.5745   26.2575 H   0  0  0  0  0  0
  -28.6661  -21.2945   25.3214 H   0  0  0  0  0  0
  -27.5907  -19.9885   25.6643 H   0  0  0  0  0  0
  -27.9782  -21.4669   19.5674 H   0  0  0  0  0  0
  -29.6860  -21.3683   19.3965 H   0  0  0  0  0  0
  -30.9049  -17.9131   20.1043 H   0  0  0  0  0  0
  -29.3810  -17.8492   19.2779 H   0  0  0  0  0  0
  -25.8324  -21.3309   25.4912 H   0  0  0  0  0  0
  -26.1194  -21.5522   23.7982 H   0  0  0  0  0  0
  -29.9962  -23.5537   20.0808 H   0  0  0  0  0  0
  -29.2089  -23.3971   21.5593 H   0  0  0  0  0  0
  -27.6777  -23.5032   24.3817 H   0  0  0  0  0  0
  -27.3117  -23.2436   26.0741 H   0  0  0  0  0  0
  -27.0624  -24.3715   20.5077 H   0  0  0  0  0  0
  -27.8510  -24.4586   18.9724 H   0  0  0  0  0  0
  -28.8005  -15.9272   20.9480 H   0  0  0  0  0  0
  -25.3414  -23.9429   24.0092 H   0  0  0  0  0  0
  -25.0032  -23.6899   25.5798 H   0  0  0  0  0  0
  1 25  1  0  0  0
  1 30  2  0  0  0
  1 86  1  0  0  0
  2  3  1  0  0  0
  2 25  1  0  0  0
  2 88  1  0  0  0
  2 89  1  0  0  0
  3  4  1  0  0  0
  3 90  1  0  0  0
  3 91  1  0  0  0
  4  5  1  0  0  0
  4 92  1  0  0  0
  4 93  1  0  0  0
  5  6  1  0  0  0
  5 26  1  0  0  0
  5 94  1  0  0  0
  6 25  1  0  0  0
  6 95  1  0  0  0
  6 96  1  0  0  0
  7  8  2  0  0  0
  7 26  1  0  0  0
  7 29  1  0  0  0
  8  9  1  0  0  0
  8 22  1  0  0  0
  9 10  1  0  0  0
  9 27  2  0  0  0
 10 11  2  0  0  0
 10 15  1  0  0  0
 11 12  1  0  0  0
 11 97  1  0  0  0
 12 13  2  0  0  0
 12 98  1  0  0  0
 13 14  1  0  0  0
 13 31  1  0  0  0
 14 15  2  0  0  0
 14 99  1  0  0  0
 15100  1  0  0  0
 16 17  2  0  0  0
 16 21  1  0  0  0
 16 31  1  0  0  0
 17 18  1  0  0  0
 17101  1  0  0  0
 18 19  2  0  0  0
 18102  1  0  0  0
 19 20  1  0  0  0
 19 24  1  0  0  0
 20 21  2  0  0  0
 20103  1  0  0  0
 21 23  1  0  0  0
 22 28  1  0  0  0
 22 32  2  0  0  0
 26 27  1  0  0  0
 28104  1  0  0  0
 28105  1  0  0  0
 29106  1  0  0  0
 29107  1  0  0  0
 33 34  1  0  0  0
 33 66  1  0  0  0
 33 70  2  0  0  0
 34 36  1  0  0  0
 34 59  1  0  0  0
 34108  1  0  0  0
 35 44  2  0  0  0
 35 45  1  0  0  0
 35 68  1  0  0  0
 36 56  1  0  0  0
 36109  1  0  0  0
 37 39  1  0  0  0
 37 47  1  0  0  0
 37 66  1  0  0  0
 37110  1  0  0  0
 38 43  2  0  0  0
 38 46  1  0  0  0
 38 47  1  0  0  0
 39 64  1  0  0  0
 39 67  2  0  0  0
 40 52  1  0  0  0
 40 53  2  0  0  0
 40 58  1  0  0  0
 41111  1  0  0  0
 41112  1  0  0  0
 41113  1  0  0  0
 41 48  1  0  0  0
 42 43  1  0  0  0
 42 66  1  0  0  0
 42114  1  0  0  0
 42115  1  0  0  0
 43 44  1  0  0  0
 44116  1  0  0  0
 45 46  2  0  0  0
 45117  1  0  0  0
 46118  1  0  0  0
 47119  1  0  0  0
 47120  1  0  0  0
 48 56  1  0  0  0
 48 65  1  0  0  0
 48121  1  0  0  0
 49 50  1  0  0  0
 49 53  1  0  0  0
 49 64  1  0  0  0
 49122  1  0  0  0
 50 51  1  0  0  0
 50123  1  0  0  0
 50124  1  0  0  0
 51 52  1  0  0  0
 51125  1  0  0  0
 51126  1  0  0  0
 52127  1  0  0  0
 52128  1  0  0  0
 53 54  1  0  0  0
 54 55  2  0  0  0
 54129  1  0  0  0
 55 57  1  0  0  0
 55130  1  0  0  0
 56 69  2  0  0  0
 57 58  2  0  0  0
 57131  1  0  0  0
 58132  1  0  0  0
 59 60  1  0  0  0
 59 61  1  0  0  0
 59 62  1  0  0  0
 60133  1  0  0  0
 60134  1  0  0  0
 60135  1  0  0  0
 61136  1  0  0  0
 61137  1  0  0  0
 61138  1  0  0  0
 62139  1  0  0  0
 62140  1  0  0  0
 62141  1  0  0  0
 63 65  1  0  0  0
 63142  1  0  0  0
 63143  1  0  0  0
 63144  1  0  0  0
 64145  1  0  0  0
 65146  1  0  0  0
 68 84  1  0  0  0
 71 72  2  0  0  0
 71 73  1  0  0  0
 71147  1  0  0  0
 72 74  1  0  0  0
 72 78  1  0  0  0
 73 75  2  0  0  0
 73 79  1  0  0  0
 74 76  1  0  0  0
 74 85  2  0  0  0
 75 80  1  0  0  0
 75 85  1  0  0  0
 76148  1  0  0  0
 76149  1  0  0  0
 76150  1  0  0  0
 77 87  1  0  0  0
 77151  1  0  0  0
 77152  1  0  0  0
 77153  1  0  0  0
 78 81  1  0  0  0
 78154  1  0  0  0
 78155  1  0  0  0
 79 82  1  0  0  0
 79156  1  0  0  0
 79157  1  0  0  0
 80 86  1  0  0  0
 80158  1  0  0  0
 80159  1  0  0  0
 81 83  1  0  0  0
 81160  1  0  0  0
 81161  1  0  0  0
 82 84  1  0  0  0
 82162  1  0  0  0
 82163  1  0  0  0
 83 87  1  0  0  0
 83164  1  0  0  0
 83165  1  0  0  0
 84166  1  0  0  0
 84167  1  0  0  0
 86168  1  0  0  0
 87169  1  0  0  0
 87170  1  0  0  0
M  CHG  1  87   1
M  ISO  4   1 100  68 101  84 101  86 100
M  END
> <chiral flag>
0

> <version>
0

> <s_m_source_file>
/data/baiqing/PycharmProjects/Reinvent-master-3.2/result/LINK_invent/BTK/process_docking_weight1_custom_sum_contain_oxygen_bond_distance_aromatic_linkinvent_7_9_3/rearranged_h_0097.sdf

> <i_m_source_file_index>
95

> <r_mmod_Potential_Energy-OPLS-2005>
207.551956176758

> <r_mmod_Stretch_Energy-OPLS-2005>
311.944976806641

> <r_mmod_Bend_Energy-OPLS-2005>
341.848999023438

> <r_mmod_Torsional_Energy-OPLS-2005>
227.669921875

> <r_mmod_Improper_Torsional_Energy-OPLS-2005>
4.95257949829102

> <r_mmod_Van_der_Waal_Energy-OPLS-2005>
133.47119140625

> <r_mmod_Electrostatic_Energy-OPLS-2005>
-545.208435058594

> <r_mmod_Solvation_Energy-OPLS-2005>
-480.413238525391

> <b_mmod_Minimization_Converged-OPLS-2005>
0

> <r_mmod_RMS_Derivative-OPLS-2005>
1.29506635665894

$$$$
96
                    3D
 Structure written by MMmdl.
163171  0  0  1  0            999 V2000
  -30.6015  -14.7613   20.3623 C   0  0  0  0  0  0
  -30.4554  -12.4498   19.4210 C   0  0  0  0  0  0
  -29.5068  -12.4755   18.2026 C   0  0  0  0  0  0
  -28.0324  -12.3275   18.6385 C   0  0  0  0  0  0
  -27.6541  -13.2301   19.8427 C   0  0  2  0  0  0
  -28.7234  -13.1694   20.9564 C   0  0  0  0  0  0
  -25.2608  -13.8204   20.5742 C   0  0  0  0  0  0
  -24.1900  -13.0477   20.9230 C   0  0  0  0  0  0
  -24.6515  -11.6940   20.8828 C   0  0  0  0  0  0
  -23.9167  -10.4320   21.0439 C   0  0  0  0  0  0
  -24.3666   -9.4218   21.9237 C   0  0  0  0  0  0
  -23.6321   -8.2273   22.0789 C   0  0  0  0  0  0
  -22.4298   -8.0336   21.3581 C   0  0  0  0  0  0
  -21.9968   -9.0330   20.4683 C   0  0  0  0  0  0
  -22.7327  -10.2200   20.3108 C   0  0  0  0  0  0
  -21.6850   -6.0779   22.5286 C   0  0  0  0  0  0
  -21.4000   -6.5660   23.8215 C   0  0  0  0  0  0
  -21.3637   -5.6806   24.9186 C   0  0  0  0  0  0
  -21.6039   -4.3073   24.7234 C   0  0  0  0  0  0
  -21.8816   -3.8172   23.4338 C   0  0  0  0  0  0
  -21.9198   -4.6998   22.3410 C   0  0  0  0  0  0
  -22.7905  -13.5245   21.1868 C   0  0  0  0  0  0
  -22.1663   -4.2189   21.0980 F   0  0  0  0  0  0
  -21.5637   -3.4535   25.7734 F   0  0  0  0  0  0
  -30.0083  -13.5220   20.3354 N   0  0  0  0  0  0
  -26.3072  -12.9429   20.3368 N   0  0  0  0  0  0
  -25.9448  -11.6584   20.5839 N   0  0  0  0  0  0
  -22.0506  -12.8281   22.0374 N   0  0  0  0  0  0
  -25.4256  -15.1921   20.4075 N   0  0  0  0  0  0
  -31.8084  -14.8896   20.1580 O   0  0  0  0  0  0
  -21.6645   -6.8934   21.4254 O   0  0  0  0  0  0
  -22.3610  -14.5575   20.6671 O   0  0  0  0  0  0
  -24.6298  -31.8545   23.1948 C   0  0  0  0  0  0
  -25.9116  -32.4706   23.8292 C   0  0  1  0  0  0
  -27.2139  -27.2397   20.0771 C   0  0  0  0  0  0
  -25.5868  -33.8516   24.2174 N   0  0  0  0  0  0
  -23.4216  -30.4772   21.5497 C   0  0  2  0  0  0
  -24.8552  -28.9044   20.1257 C   0  0  0  0  0  0
  -22.7456  -29.4635   22.4975 C   0  0  0  0  0  0
  -18.0309  -28.1345   22.8496 C   0  0  0  0  0  0
  -24.1491  -36.7302   23.2649 C   0  0  0  0  0  0
  -25.9714  -30.7440   21.3838 C   0  0  0  0  0  0
  -26.0340  -29.3634   20.7251 C   0  0  0  0  0  0
  -27.2081  -28.5348   20.7065 C   0  0  0  0  0  0
  -25.9930  -26.8558   19.4650 C   0  0  0  0  0  0
  -24.8299  -27.6503   19.5058 C   0  0  0  0  0  0
  -23.6329  -29.8013   20.1714 C   0  0  0  0  0  0
  -25.4121  -36.3038   24.0318 C   0  0  1  0  0  0
  -20.5880  -28.3711   23.1223 C   0  0  2  0  0  0
  -20.6799  -26.9413   22.5397 C   0  0  0  0  0  0
  -19.5806  -26.6350   21.5180 C   0  0  0  0  0  0
  -18.1975  -26.7909   22.1602 C   0  0  0  0  0  0
  -19.1549  -28.8852   23.2855 C   0  0  0  0  0  0
  -18.9496  -30.1438   23.8887 C   0  0  0  0  0  0
  -17.6506  -30.6570   24.0526 C   0  0  0  0  0  0
  -25.9073  -34.9420   23.5082 C   0  0  0  0  0  0
  -16.5387  -29.9031   23.6340 C   0  0  0  0  0  0
  -16.7295  -28.6427   23.0378 C   0  0  0  0  0  0
  -26.4430  -31.6571   25.0753 C   0  0  0  0  0  0
  -25.3618  -31.3731   26.1434 C   0  0  0  0  0  0
  -27.0278  -30.2960   24.6311 C   0  0  0  0  0  0
  -27.5966  -32.4352   25.7473 C   0  0  0  0  0  0
  -27.5618  -37.1774   24.8462 C   0  0  0  0  0  0
  -21.4193  -29.3039   22.3634 N   0  0  0  0  0  0
  -26.4301  -37.3726   23.9390 N   0  0  0  0  0  0
  -24.6944  -31.0424   22.1009 N   0  0  0  0  0  0
  -23.4153  -28.8244   23.3128 O   0  0  0  0  0  0
  -28.3359  -26.3662   20.0940 O   0  0  0  0  0  0
  -26.5701  -34.8932   22.4682 O   0  0  0  0  0  0
  -23.5451  -32.1443   23.7180 O   0  0  0  0  0  0
  -27.9810  -21.8322   18.9653 C   0  0  0  0  0  0
  -29.7913  -21.0777   19.9585 C   0  0  0  0  0  0
  -28.0678  -20.4821   18.7183 C   0  0  0  0  0  0
  -29.2473  -19.9281   19.3471 C   0  0  0  0  0  0
  -26.7580  -20.4704   16.5770 C   0  0  0  0  0  0
  -25.7074  -19.8846   18.8163 C   0  0  0  0  0  0
  -29.1765  -23.7220   20.2319 C   0  0  0  0  0  0
  -29.9458  -17.3823   20.4981 C   0  0  0  0  0  0
  -28.2638  -24.9336   19.6055 C   0  0  0  0  0  0
  -26.9669  -19.7933   17.9459 C   0  0  0  0  0  0
  -29.6927  -18.3600   19.2379 C   0  0  2  0  0  0
  -29.0197  -22.2726   19.7342 N   0  0  0  0  0  0
  -29.7601  -15.8622   20.3446 N   0  0  0  0  0  0
  -30.7461  -18.1538   18.2206 N   0  3  0  0  0  0
  -31.4871  -12.5922   19.0866 H   0  0  0  0  0  0
  -30.4248  -11.4789   19.9172 H   0  0  0  0  0  0
  -29.7630  -11.6702   17.5124 H   0  0  0  0  0  0
  -29.6405  -13.4046   17.6451 H   0  0  0  0  0  0
  -27.8784  -11.2816   18.9079 H   0  0  0  0  0  0
  -27.3689  -12.5300   17.7995 H   0  0  0  0  0  0
  -27.6392  -14.2513   19.4634 H   0  0  0  0  0  0
  -28.7784  -12.1756   21.4068 H   0  0  0  0  0  0
  -28.4915  -13.8639   21.7681 H   0  0  0  0  0  0
  -25.2818   -9.5670   22.4836 H   0  0  0  0  0  0
  -24.0003   -7.4649   22.7526 H   0  0  0  0  0  0
  -21.0876   -8.8902   19.8983 H   0  0  0  0  0  0
  -22.3806  -10.9776   19.6228 H   0  0  0  0  0  0
  -21.1958   -7.6165   23.9735 H   0  0  0  0  0  0
  -21.1454   -6.0534   25.9094 H   0  0  0  0  0  0
  -22.0609   -2.7641   23.2833 H   0  0  0  0  0  0
  -22.4060  -11.9923   22.4770 H   0  0  0  0  0  0
  -21.1148  -13.1386   22.2576 H   0  0  0  0  0  0
  -24.6485  -15.8385   20.5114 H   0  0  0  0  0  0
  -26.2622  -15.6397   20.0565 H   0  0  0  0  0  0
  -26.7192  -32.5300   23.1052 H   0  0  0  0  0  0
  -24.9732  -33.9602   25.0113 H   0  0  0  0  0  0
  -22.7230  -31.3002   21.4003 H   0  0  0  0  0  0
  -23.3732  -35.9661   23.3253 H   0  0  0  0  0  0
  -24.3525  -36.9010   22.2075 H   0  0  0  0  0  0
  -23.7309  -37.6513   23.6726 H   0  0  0  0  0  0
  -26.1186  -31.4848   20.5999 H   0  0  0  0  0  0
  -26.8526  -30.7888   22.0155 H   0  0  0  0  0  0
  -28.0981  -28.8673   21.2152 H   0  0  0  0  0  0
  -25.8936  -25.9124   18.9562 H   0  0  0  0  0  0
  -23.9019  -27.2739   19.0878 H   0  0  0  0  0  0
  -23.7525  -30.5646   19.4069 H   0  0  0  0  0  0
  -22.7499  -29.2289   19.8847 H   0  0  0  0  0  0
  -25.1293  -36.1861   25.0815 H   0  0  0  0  0  0
  -20.9997  -28.3333   24.1331 H   0  0  0  0  0  0
  -20.5663  -26.2351   23.3617 H   0  0  0  0  0  0
  -21.6685  -26.7416   22.1234 H   0  0  0  0  0  0
  -19.6962  -25.6234   21.1251 H   0  0  0  0  0  0
  -19.6712  -27.3133   20.6670 H   0  0  0  0  0  0
  -17.4236  -26.6625   21.3993 H   0  0  0  0  0  0
  -18.0387  -25.9995   22.8974 H   0  0  0  0  0  0
  -19.7989  -30.7216   24.2248 H   0  0  0  0  0  0
  -17.5082  -31.6254   24.5124 H   0  0  0  0  0  0
  -15.5395  -30.2932   23.7674 H   0  0  0  0  0  0
  -15.8688  -28.0715   22.7123 H   0  0  0  0  0  0
  -24.5864  -30.6956   25.7755 H   0  0  0  0  0  0
  -24.8675  -32.2871   26.4735 H   0  0  0  0  0  0
  -25.7945  -30.9015   27.0275 H   0  0  0  0  0  0
  -26.2873  -29.6674   24.1357 H   0  0  0  0  0  0
  -27.3876  -29.7249   25.4890 H   0  0  0  0  0  0
  -27.8786  -30.4118   23.9610 H   0  0  0  0  0  0
  -27.2584  -33.3738   26.1858 H   0  0  0  0  0  0
  -28.3852  -32.6762   25.0344 H   0  0  0  0  0  0
  -28.0533  -31.8603   26.5546 H   0  0  0  0  0  0
  -28.2565  -38.0136   24.7513 H   0  0  0  0  0  0
  -28.1177  -36.2658   24.6244 H   0  0  0  0  0  0
  -27.2300  -37.1371   25.8851 H   0  0  0  0  0  0
  -20.9419  -29.8643   21.6739 H   0  0  0  0  0  0
  -26.0190  -38.2802   24.1360 H   0  0  0  0  0  0
  -27.2011  -22.5196   18.6621 H   0  0  0  0  0  0
  -30.6825  -21.1688   20.5597 H   0  0  0  0  0  0
  -27.6568  -20.4133   15.9601 H   0  0  0  0  0  0
  -26.5249  -21.5264   16.6995 H   0  0  0  0  0  0
  -25.9332  -20.0245   16.0184 H   0  0  0  0  0  0
  -25.8669  -19.4061   19.7820 H   0  0  0  0  0  0
  -24.8265  -19.4491   18.3521 H   0  0  0  0  0  0
  -25.4775  -20.9273   19.0200 H   0  0  0  0  0  0
  -28.9737  -23.6959   21.3011 H   0  0  0  0  0  0
  -30.2364  -23.9794   20.1510 H   0  0  0  0  0  0
  -29.2022  -17.6622   21.2478 H   0  0  0  0  0  0
  -30.9071  -17.6020   20.9617 H   0  0  0  0  0  0
  -27.2402  -24.5825   19.7068 H   0  0  0  0  0  0
  -28.4402  -24.9768   18.5281 H   0  0  0  0  0  0
  -27.1948  -18.7446   17.7597 H   0  0  0  0  0  0
  -28.8348  -17.8880   18.7665 H   0  0  0  0  0  0
  -28.7903  -15.5855   20.3162 H   0  0  0  0  0  0
  -31.6196  -18.5512   18.5102 H   0  0  0  0  0  0
  -30.4870  -18.5607   17.3371 H   0  0  0  0  0  0
  -30.8917  -17.1671   18.0808 H   0  0  0  0  0  0
  1 25  1  0  0  0
  1 30  2  0  0  0
  1 83  1  0  0  0
  2  3  1  0  0  0
  2 25  1  0  0  0
  2 85  1  0  0  0
  2 86  1  0  0  0
  3  4  1  0  0  0
  3 87  1  0  0  0
  3 88  1  0  0  0
  4  5  1  0  0  0
  4 89  1  0  0  0
  4 90  1  0  0  0
  5  6  1  0  0  0
  5 26  1  0  0  0
  5 91  1  0  0  0
  6 25  1  0  0  0
  6 92  1  0  0  0
  6 93  1  0  0  0
  7  8  2  0  0  0
  7 26  1  0  0  0
  7 29  1  0  0  0
  8  9  1  0  0  0
  8 22  1  0  0  0
  9 10  1  0  0  0
  9 27  2  0  0  0
 10 11  2  0  0  0
 10 15  1  0  0  0
 11 12  1  0  0  0
 11 94  1  0  0  0
 12 13  2  0  0  0
 12 95  1  0  0  0
 13 14  1  0  0  0
 13 31  1  0  0  0
 14 15  2  0  0  0
 14 96  1  0  0  0
 15 97  1  0  0  0
 16 17  2  0  0  0
 16 21  1  0  0  0
 16 31  1  0  0  0
 17 18  1  0  0  0
 17 98  1  0  0  0
 18 19  2  0  0  0
 18 99  1  0  0  0
 19 20  1  0  0  0
 19 24  1  0  0  0
 20 21  2  0  0  0
 20100  1  0  0  0
 21 23  1  0  0  0
 22 28  1  0  0  0
 22 32  2  0  0  0
 26 27  1  0  0  0
 28101  1  0  0  0
 28102  1  0  0  0
 29103  1  0  0  0
 29104  1  0  0  0
 33 34  1  0  0  0
 33 66  1  0  0  0
 33 70  2  0  0  0
 34 36  1  0  0  0
 34 59  1  0  0  0
 34105  1  0  0  0
 35 44  2  0  0  0
 35 45  1  0  0  0
 35 68  1  0  0  0
 36 56  1  0  0  0
 36106  1  0  0  0
 37 39  1  0  0  0
 37 47  1  0  0  0
 37 66  1  0  0  0
 37107  1  0  0  0
 38 43  2  0  0  0
 38 46  1  0  0  0
 38 47  1  0  0  0
 39 64  1  0  0  0
 39 67  2  0  0  0
 40 52  1  0  0  0
 40 53  2  0  0  0
 40 58  1  0  0  0
 41108  1  0  0  0
 41109  1  0  0  0
 41110  1  0  0  0
 41 48  1  0  0  0
 42 43  1  0  0  0
 42 66  1  0  0  0
 42111  1  0  0  0
 42112  1  0  0  0
 43 44  1  0  0  0
 44113  1  0  0  0
 45 46  2  0  0  0
 45114  1  0  0  0
 46115  1  0  0  0
 47116  1  0  0  0
 47117  1  0  0  0
 48 56  1  0  0  0
 48 65  1  0  0  0
 48118  1  0  0  0
 49 50  1  0  0  0
 49 53  1  0  0  0
 49 64  1  0  0  0
 49119  1  0  0  0
 50 51  1  0  0  0
 50120  1  0  0  0
 50121  1  0  0  0
 51 52  1  0  0  0
 51122  1  0  0  0
 51123  1  0  0  0
 52124  1  0  0  0
 52125  1  0  0  0
 53 54  1  0  0  0
 54 55  2  0  0  0
 54126  1  0  0  0
 55 57  1  0  0  0
 55127  1  0  0  0
 56 69  2  0  0  0
 57 58  2  0  0  0
 57128  1  0  0  0
 58129  1  0  0  0
 59 60  1  0  0  0
 59 61  1  0  0  0
 59 62  1  0  0  0
 60130  1  0  0  0
 60131  1  0  0  0
 60132  1  0  0  0
 61133  1  0  0  0
 61134  1  0  0  0
 61135  1  0  0  0
 62136  1  0  0  0
 62137  1  0  0  0
 62138  1  0  0  0
 63 65  1  0  0  0
 63139  1  0  0  0
 63140  1  0  0  0
 63141  1  0  0  0
 64142  1  0  0  0
 65143  1  0  0  0
 68 79  1  0  0  0
 71 73  2  0  0  0
 71 82  1  0  0  0
 71144  1  0  0  0
 72 74  2  0  0  0
 72 82  1  0  0  0
 72145  1  0  0  0
 73 74  1  0  0  0
 73 80  1  0  0  0
 74 81  1  0  0  0
 75146  1  0  0  0
 75147  1  0  0  0
 75148  1  0  0  0
 75 80  1  0  0  0
 76 80  1  0  0  0
 76149  1  0  0  0
 76150  1  0  0  0
 76151  1  0  0  0
 77 79  1  0  0  0
 77 82  1  0  0  0
 77152  1  0  0  0
 77153  1  0  0  0
 78 81  1  0  0  0
 78 83  1  0  0  0
 78154  1  0  0  0
 78155  1  0  0  0
 79156  1  0  0  0
 79157  1  0  0  0
 80158  1  0  0  0
 81 84  1  0  0  0
 81159  1  0  0  0
 83160  1  0  0  0
 84161  1  0  0  0
 84162  1  0  0  0
 84163  1  0  0  0
M  CHG  1  84   1
M  ISO  4   1 100  68 101  79 101  83 100
M  END
> <chiral flag>
0

> <version>
0

> <s_m_source_file>
/data/baiqing/PycharmProjects/Reinvent-master-3.2/result/LINK_invent/BTK/process_docking_weight1_custom_sum_contain_oxygen_bond_distance_aromatic_linkinvent_7_9_3/rearranged_h_0097.sdf

> <i_m_source_file_index>
96

> <r_mmod_Potential_Energy-OPLS-2005>
-104.94091796875

> <r_mmod_Stretch_Energy-OPLS-2005>
145.515121459961

> <r_mmod_Bend_Energy-OPLS-2005>
211.116012573242

> <r_mmod_Torsional_Energy-OPLS-2005>
250.054336547852

> <r_mmod_Improper_Torsional_Energy-OPLS-2005>
6.96628904342651

> <r_mmod_Van_der_Waal_Energy-OPLS-2005>
118.911109924316

> <r_mmod_Electrostatic_Energy-OPLS-2005>
-455.787841796875

> <r_mmod_Solvation_Energy-OPLS-2005>
-479.969512939453

> <b_mmod_Minimization_Converged-OPLS-2005>
0

> <r_mmod_RMS_Derivative-OPLS-2005>
10.0186882019043

$$$$
