0
                    3D
 Structure written by MMmdl.
192201  0  0  1  0            999 V2000
  -30.7361  -14.3986   20.6307 C   0  0  0  0  0  0
  -30.4196  -12.2818   19.4058 C   0  0  0  0  0  0
  -29.4908  -12.5180   18.1985 C   0  0  0  0  0  0
  -28.0122  -12.3812   18.6108 C   0  0  0  0  0  0
  -27.6676  -13.2028   19.8817 C   0  0  2  0  0  0
  -28.7053  -12.9419   20.9960 C   0  0  0  0  0  0
  -25.2611  -13.8156   20.5673 C   0  0  0  0  0  0
  -24.1851  -13.0439   20.9156 C   0  0  0  0  0  0
  -24.6398  -11.6904   20.8724 C   0  0  0  0  0  0
  -23.9060  -10.4292   21.0397 C   0  0  0  0  0  0
  -24.3609   -9.4212   21.9181 C   0  0  0  0  0  0
  -23.6287   -8.2246   22.0755 C   0  0  0  0  0  0
  -22.4273   -8.0281   21.3543 C   0  0  0  0  0  0
  -21.9904   -9.0252   20.4644 C   0  0  0  0  0  0
  -22.7233  -10.2131   20.3050 C   0  0  0  0  0  0
  -21.6851   -6.0736   22.5278 C   0  0  0  0  0  0
  -21.4013   -6.5640   23.8214 C   0  0  0  0  0  0
  -21.3659   -5.6794   24.9176 C   0  0  0  0  0  0
  -21.6041   -4.3054   24.7222 C   0  0  0  0  0  0
  -21.8821   -3.8145   23.4346 C   0  0  0  0  0  0
  -21.9195   -4.6966   22.3402 C   0  0  0  0  0  0
  -22.7875  -13.5245   21.1828 C   0  0  0  0  0  0
  -22.1661   -4.2150   21.0979 F   0  0  0  0  0  0
  -21.5629   -3.4539   25.7735 F   0  0  0  0  0  0
  -30.0471  -13.2395   20.4580 N   0  0  0  0  0  0
  -26.3052  -12.9322   20.3388 N   0  0  0  0  0  0
  -25.9324  -11.6482   20.5756 N   0  0  0  0  0  0
  -22.0508  -12.8235   22.0379 N   0  0  0  0  0  0
  -25.4351  -15.1870   20.4099 N   0  0  0  0  0  0
  -31.8126  -14.6196   20.0691 O   0  0  0  0  0  0
  -21.6638   -6.8877   21.4240 O   0  0  0  0  0  0
  -22.3559  -14.5554   20.6688 O   0  0  0  0  0  0
  -24.6121  -31.8706   23.2129 C   0  0  0  0  0  0
  -25.9026  -32.4835   23.8410 C   0  0  1  0  0  0
  -27.2353  -27.4616   20.0680 C   0  0  0  0  0  0
  -25.5903  -33.8632   24.2347 N   0  0  0  0  0  0
  -23.3970  -30.4965   21.5541 C   0  0  2  0  0  0
  -24.8405  -28.9688   20.1124 C   0  0  0  0  0  0
  -22.7401  -29.4664   22.5006 C   0  0  0  0  0  0
  -18.0281  -28.1381   22.8508 C   0  0  0  0  0  0
  -24.1485  -36.7296   23.2639 C   0  0  0  0  0  0
  -25.9228  -30.8411   21.3629 C   0  0  0  0  0  0
  -25.9974  -29.4745   20.7156 C   0  0  0  0  0  0
  -27.1895  -28.7183   20.7081 C   0  0  0  0  0  0
  -26.0576  -26.9721   19.4510 C   0  0  0  0  0  0
  -24.8627  -27.7137   19.4848 C   0  0  0  0  0  0
  -23.6010  -29.8318   20.1665 C   0  0  0  0  0  0
  -25.4109  -36.3113   24.0349 C   0  0  1  0  0  0
  -20.5866  -28.3656   23.1321 C   0  0  2  0  0  0
  -20.6763  -26.9399   22.5406 C   0  0  0  0  0  0
  -19.5735  -26.6397   21.5211 C   0  0  0  0  0  0
  -18.1924  -26.7933   22.1635 C   0  0  0  0  0  0
  -19.1530  -28.8842   23.2916 C   0  0  0  0  0  0
  -18.9457  -30.1450   23.8924 C   0  0  0  0  0  0
  -17.6457  -30.6584   24.0582 C   0  0  0  0  0  0
  -25.9046  -34.9479   23.5141 C   0  0  0  0  0  0
  -16.5350  -29.9099   23.6319 C   0  0  0  0  0  0
  -16.7273  -28.6511   23.0351 C   0  0  0  0  0  0
  -26.4464  -31.6589   25.0715 C   0  0  0  0  0  0
  -25.3728  -31.3650   26.1447 C   0  0  0  0  0  0
  -27.0281  -30.3059   24.6001 C   0  0  0  0  0  0
  -27.6076  -32.4262   25.7462 C   0  0  0  0  0  0
  -27.5574  -37.1805   24.8483 C   0  0  0  0  0  0
  -21.4135  -29.3024   22.3733 N   0  0  0  0  0  0
  -26.4293  -37.3799   23.9432 N   0  0  0  0  0  0
  -24.6626  -31.0829   22.1026 N   0  0  0  0  0  0
  -23.4200  -28.8200   23.3022 O   0  0  0  0  0  0
  -28.4340  -26.7746   20.0775 O   0  0  0  0  0  0
  -26.5598  -34.8925   22.4692 O   0  0  0  0  0  0
  -23.5319  -32.1425   23.7553 O   0  0  0  0  0  0
  -29.0633  -20.0181   17.1952 C   0  0  0  0  0  0
  -29.7656  -20.7582   18.1620 C   0  0  0  0  0  0
  -31.4321  -18.8236   21.0473 C   0  0  0  0  0  0
  -27.8549  -20.5151   16.6753 C   0  0  0  0  0  0
  -30.6649  -19.4739   22.0300 C   0  0  0  0  0  0
  -31.2868  -17.4393   20.8334 C   0  0  0  0  0  0
  -29.2562  -21.9887   18.6177 C   0  0  0  0  0  0
  -29.6107  -17.3479   22.5965 C   0  0  0  0  0  0
  -29.7510  -18.7366   22.8083 C   0  0  0  0  0  0
  -27.3327  -21.7460   17.1286 C   0  0  0  0  0  0
  -30.3749  -16.6830   21.6124 C   0  0  0  0  0  0
  -28.0262  -22.4896   18.1179 C   0  0  0  0  0  0
  -24.3951  -20.3239   23.1215 C   0  0  0  0  0  0
  -28.9108  -19.4349   23.8623 C   0  0  0  0  0  0
  -26.0263  -22.2618   16.5247 C   0  0  0  0  0  0
  -25.3917  -21.2508   23.8270 C   0  0  0  0  0  0
  -27.6194  -20.0258   23.2751 C   0  0  0  0  0  0
  -24.8529  -22.3795   17.5185 C   0  0  0  0  0  0
  -26.6692  -20.5666   24.3622 C   0  0  0  0  0  0
  -24.4627  -21.0592   18.2051 C   0  0  0  0  0  0
  -23.5278  -21.2965   19.4001 C   0  0  0  0  0  0
  -23.1496  -19.9979   20.1354 C   0  0  0  0  0  0
  -22.5023  -20.2456   21.5111 C   0  0  0  0  0  0
  -28.6238  -25.6722   19.1882 C   0  0  0  0  0  0
  -27.9445  -24.3737   19.6687 C   0  0  0  0  0  0
  -30.1429  -15.2855   21.4480 N   0  0  0  0  0  0
  -23.4313  -20.9226   22.4132 N   0  0  0  0  0  0
  -24.4960  -19.0981   23.2006 O   0  0  0  0  0  0
  -27.4473  -23.6697   18.5336 O   0  0  0  0  0  0
  -31.4645  -12.3731   19.1033 H   0  0  0  0  0  0
  -30.3108  -11.2610   19.7758 H   0  0  0  0  0  0
  -29.7226  -11.8113   17.4006 H   0  0  0  0  0  0
  -29.6676  -13.5125   17.7866 H   0  0  0  0  0  0
  -27.8135  -11.3239   18.7885 H   0  0  0  0  0  0
  -27.3627  -12.6762   17.7859 H   0  0  0  0  0  0
  -27.7266  -14.2575   19.6117 H   0  0  0  0  0  0
  -28.6673  -11.8962   21.3057 H   0  0  0  0  0  0
  -28.4579  -13.5097   21.8933 H   0  0  0  0  0  0
  -25.2758   -9.5691   22.4751 H   0  0  0  0  0  0
  -24.0001   -7.4639   22.7476 H   0  0  0  0  0  0
  -21.0838   -8.8764   19.8947 H   0  0  0  0  0  0
  -22.3695  -10.9664   19.6149 H   0  0  0  0  0  0
  -21.2003   -7.6148   23.9716 H   0  0  0  0  0  0
  -21.1479   -6.0522   25.9079 H   0  0  0  0  0  0
  -22.0600   -2.7608   23.2843 H   0  0  0  0  0  0
  -22.4108  -11.9883   22.4751 H   0  0  0  0  0  0
  -21.1125  -13.1266   22.2577 H   0  0  0  0  0  0
  -24.6764  -15.8476   20.5377 H   0  0  0  0  0  0
  -26.3005  -15.6272   20.1220 H   0  0  0  0  0  0
  -26.7104  -32.5567   23.1187 H   0  0  0  0  0  0
  -25.0107  -33.9802   25.0525 H   0  0  0  0  0  0
  -22.6837  -31.3121   21.4201 H   0  0  0  0  0  0
  -23.3762  -35.9616   23.3321 H   0  0  0  0  0  0
  -24.3600  -36.8875   22.2053 H   0  0  0  0  0  0
  -23.7201  -37.6496   23.6626 H   0  0  0  0  0  0
  -26.0234  -31.6038   20.5896 H   0  0  0  0  0  0
  -26.8171  -30.9025   21.9703 H   0  0  0  0  0  0
  -28.0814  -29.1048   21.1829 H   0  0  0  0  0  0
  -26.0296  -26.0270   18.9318 H   0  0  0  0  0  0
  -23.9762  -27.3202   19.0093 H   0  0  0  0  0  0
  -23.7044  -30.6080   19.4080 H   0  0  0  0  0  0
  -22.7250  -29.2502   19.8730 H   0  0  0  0  0  0
  -25.1271  -36.1983   25.0840 H   0  0  0  0  0  0
  -20.9988  -28.3219   24.1427 H   0  0  0  0  0  0
  -20.5693  -26.2265   23.3589 H   0  0  0  0  0  0
  -21.6629  -26.7458   22.1171 H   0  0  0  0  0  0
  -19.6906  -25.6325   21.1197 H   0  0  0  0  0  0
  -19.6667  -27.3249   20.6778 H   0  0  0  0  0  0
  -17.4189  -26.6712   21.4032 H   0  0  0  0  0  0
  -18.0322  -26.0050   22.9009 H   0  0  0  0  0  0
  -19.7937  -30.7263   24.2293 H   0  0  0  0  0  0
  -17.5015  -31.6259   24.5192 H   0  0  0  0  0  0
  -15.5357  -30.3026   23.7589 H   0  0  0  0  0  0
  -15.8673  -28.0836   22.7054 H   0  0  0  0  0  0
  -24.5952  -30.6951   25.7744 H   0  0  0  0  0  0
  -24.8851  -32.2776   26.4884 H   0  0  0  0  0  0
  -25.8061  -30.8817   27.0209 H   0  0  0  0  0  0
  -26.2800  -29.6872   24.1019 H   0  0  0  0  0  0
  -27.4079  -29.7224   25.4400 H   0  0  0  0  0  0
  -27.8625  -30.4457   23.9120 H   0  0  0  0  0  0
  -27.2769  -33.3596   26.2038 H   0  0  0  0  0  0
  -28.3875  -32.6743   25.0248 H   0  0  0  0  0  0
  -28.0749  -31.8355   26.5358 H   0  0  0  0  0  0
  -28.2589  -38.0104   24.7526 H   0  0  0  0  0  0
  -28.1048  -36.2624   24.6294 H   0  0  0  0  0  0
  -27.2290  -37.1429   25.8885 H   0  0  0  0  0  0
  -20.9302  -29.8751   21.6953 H   0  0  0  0  0  0
  -26.0174  -38.2870   24.1448 H   0  0  0  0  0  0
  -29.4552  -19.0721   16.8478 H   0  0  0  0  0  0
  -30.7004  -20.3837   18.5562 H   0  0  0  0  0  0
  -32.1322  -19.3886   20.4482 H   0  0  0  0  0  0
  -27.3305  -19.9426   15.9225 H   0  0  0  0  0  0
  -30.7771  -20.5392   22.1791 H   0  0  0  0  0  0
  -31.8844  -16.9925   20.0536 H   0  0  0  0  0  0
  -29.8451  -22.5217   19.3491 H   0  0  0  0  0  0
  -28.9014  -16.7934   23.1965 H   0  0  0  0  0  0
  -29.5027  -20.2223   24.3320 H   0  0  0  0  0  0
  -28.6728  -18.7227   24.6540 H   0  0  0  0  0  0
  -25.7271  -21.6150   15.6989 H   0  0  0  0  0  0
  -26.2197  -23.2371   16.0763 H   0  0  0  0  0  0
  -24.8656  -21.7232   24.6570 H   0  0  0  0  0  0
  -25.6706  -22.0554   23.1450 H   0  0  0  0  0  0
  -27.1110  -19.2528   22.6975 H   0  0  0  0  0  0
  -27.8716  -20.8185   22.5694 H   0  0  0  0  0  0
  -23.9826  -22.7775   16.9949 H   0  0  0  0  0  0
  -25.0941  -23.1242   18.2765 H   0  0  0  0  0  0
  -26.3899  -19.7586   25.0398 H   0  0  0  0  0  0
  -27.2092  -21.2897   24.9738 H   0  0  0  0  0  0
  -25.3584  -20.5490   18.5619 H   0  0  0  0  0  0
  -23.9941  -20.3902   17.4816 H   0  0  0  0  0  0
  -22.6205  -21.8093   19.0760 H   0  0  0  0  0  0
  -24.0294  -21.9772   20.0881 H   0  0  0  0  0  0
  -24.0371  -19.3767   20.2682 H   0  0  0  0  0  0
  -22.4682  -19.4152   19.5148 H   0  0  0  0  0  0
  -22.1726  -19.3009   21.9480 H   0  0  0  0  0  0
  -21.6087  -20.8605   21.3995 H   0  0  0  0  0  0
  -28.2733  -25.9546   18.1943 H   0  0  0  0  0  0
  -29.6936  -25.4948   19.0746 H   0  0  0  0  0  0
  -27.0658  -24.6063   20.2686 H   0  0  0  0  0  0
  -28.5754  -23.8085   20.3515 H   0  0  0  0  0  0
  -29.3357  -14.9189   21.9285 H   0  0  0  0  0  0
  -23.3927  -21.9334   22.4392 H   0  0  0  0  0  0
  1 25  1  0  0  0
  1 30  2  0  0  0
  1 96  1  0  0  0
  2  3  1  0  0  0
  2 25  1  0  0  0
  2100  1  0  0  0
  2101  1  0  0  0
  3  4  1  0  0  0
  3102  1  0  0  0
  3103  1  0  0  0
  4  5  1  0  0  0
  4104  1  0  0  0
  4105  1  0  0  0
  5  6  1  0  0  0
  5 26  1  0  0  0
  5106  1  0  0  0
  6 25  1  0  0  0
  6107  1  0  0  0
  6108  1  0  0  0
  7  8  2  0  0  0
  7 26  1  0  0  0
  7 29  1  0  0  0
  8  9  1  0  0  0
  8 22  1  0  0  0
  9 10  1  0  0  0
  9 27  2  0  0  0
 10 11  2  0  0  0
 10 15  1  0  0  0
 11 12  1  0  0  0
 11109  1  0  0  0
 12 13  2  0  0  0
 12110  1  0  0  0
 13 14  1  0  0  0
 13 31  1  0  0  0
 14 15  2  0  0  0
 14111  1  0  0  0
 15112  1  0  0  0
 16 17  2  0  0  0
 16 21  1  0  0  0
 16 31  1  0  0  0
 17 18  1  0  0  0
 17113  1  0  0  0
 18 19  2  0  0  0
 18114  1  0  0  0
 19 20  1  0  0  0
 19 24  1  0  0  0
 20 21  2  0  0  0
 20115  1  0  0  0
 21 23  1  0  0  0
 22 28  1  0  0  0
 22 32  2  0  0  0
 26 27  1  0  0  0
 28116  1  0  0  0
 28117  1  0  0  0
 29118  1  0  0  0
 29119  1  0  0  0
 33 34  1  0  0  0
 33 66  1  0  0  0
 33 70  2  0  0  0
 34 36  1  0  0  0
 34 59  1  0  0  0
 34120  1  0  0  0
 35 44  2  0  0  0
 35 45  1  0  0  0
 35 68  1  0  0  0
 36 56  1  0  0  0
 36121  1  0  0  0
 37 39  1  0  0  0
 37 47  1  0  0  0
 37 66  1  0  0  0
 37122  1  0  0  0
 38 43  2  0  0  0
 38 46  1  0  0  0
 38 47  1  0  0  0
 39 64  1  0  0  0
 39 67  2  0  0  0
 40 52  1  0  0  0
 40 53  2  0  0  0
 40 58  1  0  0  0
 41123  1  0  0  0
 41124  1  0  0  0
 41125  1  0  0  0
 41 48  1  0  0  0
 42 43  1  0  0  0
 42 66  1  0  0  0
 42126  1  0  0  0
 42127  1  0  0  0
 43 44  1  0  0  0
 44128  1  0  0  0
 45 46  2  0  0  0
 45129  1  0  0  0
 46130  1  0  0  0
 47131  1  0  0  0
 47132  1  0  0  0
 48 56  1  0  0  0
 48 65  1  0  0  0
 48133  1  0  0  0
 49 50  1  0  0  0
 49 53  1  0  0  0
 49 64  1  0  0  0
 49134  1  0  0  0
 50 51  1  0  0  0
 50135  1  0  0  0
 50136  1  0  0  0
 51 52  1  0  0  0
 51137  1  0  0  0
 51138  1  0  0  0
 52139  1  0  0  0
 52140  1  0  0  0
 53 54  1  0  0  0
 54 55  2  0  0  0
 54141  1  0  0  0
 55 57  1  0  0  0
 55142  1  0  0  0
 56 69  2  0  0  0
 57 58  2  0  0  0
 57143  1  0  0  0
 58144  1  0  0  0
 59 60  1  0  0  0
 59 61  1  0  0  0
 59 62  1  0  0  0
 60145  1  0  0  0
 60146  1  0  0  0
 60147  1  0  0  0
 61148  1  0  0  0
 61149  1  0  0  0
 61150  1  0  0  0
 62151  1  0  0  0
 62152  1  0  0  0
 62153  1  0  0  0
 63 65  1  0  0  0
 63154  1  0  0  0
 63155  1  0  0  0
 63156  1  0  0  0
 64157  1  0  0  0
 65158  1  0  0  0
 68 94  1  0  0  0
 71 72  2  0  0  0
 71 74  1  0  0  0
 71159  1  0  0  0
 72 77  1  0  0  0
 72160  1  0  0  0
 73 75  2  0  0  0
 73 76  1  0  0  0
 73161  1  0  0  0
 74 80  2  0  0  0
 74162  1  0  0  0
 75 79  1  0  0  0
 75163  1  0  0  0
 76 81  2  0  0  0
 76164  1  0  0  0
 77 82  2  0  0  0
 77165  1  0  0  0
 78 79  2  0  0  0
 78 81  1  0  0  0
 78166  1  0  0  0
 79 84  1  0  0  0
 80 82  1  0  0  0
 80 85  1  0  0  0
 81 96  1  0  0  0
 82 99  1  0  0  0
 83 86  1  0  0  0
 83 97  1  0  0  0
 83 98  2  0  0  0
 84 87  1  0  0  0
 84167  1  0  0  0
 84168  1  0  0  0
 85 88  1  0  0  0
 85169  1  0  0  0
 85170  1  0  0  0
 86 89  1  0  0  0
 86171  1  0  0  0
 86172  1  0  0  0
 87 89  1  0  0  0
 87173  1  0  0  0
 87174  1  0  0  0
 88 90  1  0  0  0
 88175  1  0  0  0
 88176  1  0  0  0
 89177  1  0  0  0
 89178  1  0  0  0
 90 91  1  0  0  0
 90179  1  0  0  0
 90180  1  0  0  0
 91 92  1  0  0  0
 91181  1  0  0  0
 91182  1  0  0  0
 92 93  1  0  0  0
 92183  1  0  0  0
 92184  1  0  0  0
 93 97  1  0  0  0
 93185  1  0  0  0
 93186  1  0  0  0
 94 95  1  0  0  0
 94187  1  0  0  0
 94188  1  0  0  0
 95 99  1  0  0  0
 95189  1  0  0  0
 95190  1  0  0  0
 96191  1  0  0  0
 97192  1  0  0  0
M  ISO  4   1 100  68 101  94 101  96 100
M  END
> <chiral flag>
0

> <version>
0

> <s_m_source_file>
/data/baiqing/PycharmProjects/Reinvent-master-3.2/result/LINK_invent/BTK/process_docking_weight1_custom_sum_contain_oxygen_bond_distance_aromatic_linkinvent_7_9_3/rearranged_h_0004.sdf

> <i_m_source_file_index>
1

> <r_mmod_Potential_Energy-OPLS-2005>
-107.92041015625

> <r_mmod_Stretch_Energy-OPLS-2005>
37.1231307983398

> <r_mmod_Bend_Energy-OPLS-2005>
123.229385375977

> <r_mmod_Torsional_Energy-OPLS-2005>
200.125534057617

> <r_mmod_Improper_Torsional_Energy-OPLS-2005>
2.09358286857605

> <r_mmod_Van_der_Waal_Energy-OPLS-2005>
172.297470092773

> <r_mmod_Electrostatic_Energy-OPLS-2005>
-422.191986083984

> <r_mmod_Solvation_Energy-OPLS-2005>
-229.197067260742

> <b_mmod_Minimization_Converged-OPLS-2005>
0

> <r_mmod_RMS_Derivative-OPLS-2005>
1.67127299308777

$$$$
1
                    3D
 Structure written by MMmdl.
154162  0  0  1  0            999 V2000
  -30.6755  -14.4856   20.5768 C   0  0  0  0  0  0
  -30.4342  -12.3171   19.4176 C   0  0  0  0  0  0
  -29.4979  -12.5126   18.2056 C   0  0  0  0  0  0
  -28.0186  -12.3671   18.6170 C   0  0  0  0  0  0
  -27.6648  -13.1978   19.8787 C   0  0  2  0  0  0
  -28.7076  -12.9625   20.9954 C   0  0  0  0  0  0
  -25.2602  -13.8130   20.5673 C   0  0  0  0  0  0
  -24.1842  -13.0423   20.9167 C   0  0  0  0  0  0
  -24.6385  -11.6887   20.8730 C   0  0  0  0  0  0
  -23.9043  -10.4283   21.0398 C   0  0  0  0  0  0
  -24.3599   -9.4204   21.9179 C   0  0  0  0  0  0
  -23.6282   -8.2238   22.0750 C   0  0  0  0  0  0
  -22.4265   -8.0274   21.3540 C   0  0  0  0  0  0
  -21.9891   -9.0244   20.4642 C   0  0  0  0  0  0
  -22.7215  -10.2127   20.3049 C   0  0  0  0  0  0
  -21.6847   -6.0734   22.5281 C   0  0  0  0  0  0
  -21.4010   -6.5638   23.8215 C   0  0  0  0  0  0
  -21.3657   -5.6790   24.9177 C   0  0  0  0  0  0
  -21.6046   -4.3054   24.7227 C   0  0  0  0  0  0
  -21.8819   -3.8146   23.4348 C   0  0  0  0  0  0
  -21.9189   -4.6963   22.3404 C   0  0  0  0  0  0
  -22.7867  -13.5235   21.1838 C   0  0  0  0  0  0
  -22.1658   -4.2149   21.0981 F   0  0  0  0  0  0
  -21.5629   -3.4536   25.7739 F   0  0  0  0  0  0
  -30.0402  -13.2864   20.4518 N   0  0  0  0  0  0
  -26.3039  -12.9284   20.3378 N   0  0  0  0  0  0
  -25.9314  -11.6454   20.5768 N   0  0  0  0  0  0
  -22.0499  -12.8240   22.0398 N   0  0  0  0  0  0
  -25.4309  -15.1846   20.4077 N   0  0  0  0  0  0
  -31.7868  -14.7150   20.0889 O   0  0  0  0  0  0
  -21.6629   -6.8873   21.4241 O   0  0  0  0  0  0
  -22.3561  -14.5548   20.6692 O   0  0  0  0  0  0
  -24.6151  -31.8672   23.2098 C   0  0  0  0  0  0
  -25.9041  -32.4819   23.8398 C   0  0  1  0  0  0
  -27.2388  -27.4345   20.0997 C   0  0  0  0  0  0
  -25.5895  -33.8618   24.2330 N   0  0  0  0  0  0
  -23.4050  -30.4890   21.5488 C   0  0  2  0  0  0
  -24.8559  -28.9546   20.1136 C   0  0  0  0  0  0
  -22.7418  -29.4648   22.4978 C   0  0  0  0  0  0
  -18.0273  -28.1376   22.8491 C   0  0  0  0  0  0
  -24.1485  -36.7316   23.2637 C   0  0  0  0  0  0
  -25.9338  -30.8323   21.3646 C   0  0  0  0  0  0
  -26.0148  -29.4661   20.7128 C   0  0  0  0  0  0
  -27.2123  -28.7122   20.7056 C   0  0  0  0  0  0
  -26.0685  -26.9379   19.4924 C   0  0  0  0  0  0
  -24.8772  -27.6891   19.5001 C   0  0  0  0  0  0
  -23.6163  -29.8202   20.1638 C   0  0  0  0  0  0
  -25.4103  -36.3112   24.0340 C   0  0  1  0  0  0
  -20.5865  -28.3664   23.1313 C   0  0  2  0  0  0
  -20.6760  -26.9399   22.5417 C   0  0  0  0  0  0
  -19.5740  -26.6384   21.5212 C   0  0  0  0  0  0
  -18.1920  -26.7923   22.1622 C   0  0  0  0  0  0
  -19.1523  -28.8836   23.2899 C   0  0  0  0  0  0
  -18.9451  -30.1442   23.8910 C   0  0  0  0  0  0
  -17.6454  -30.6584   24.0563 C   0  0  0  0  0  0
  -25.9033  -34.9476   23.5134 C   0  0  0  0  0  0
  -16.5344  -29.9087   23.6323 C   0  0  0  0  0  0
  -16.7261  -28.6501   23.0347 C   0  0  0  0  0  0
  -26.4474  -31.6595   25.0723 C   0  0  0  0  0  0
  -25.3747  -31.3694   26.1476 C   0  0  0  0  0  0
  -27.0307  -30.3037   24.6097 C   0  0  0  0  0  0
  -27.6053  -32.4313   25.7484 C   0  0  0  0  0  0
  -27.5587  -37.1801   24.8456 C   0  0  0  0  0  0
  -21.4145  -29.3031   22.3720 N   0  0  0  0  0  0
  -26.4285  -37.3801   23.9423 N   0  0  0  0  0  0
  -24.6693  -31.0768   22.0998 N   0  0  0  0  0  0
  -23.4184  -28.8193   23.3028 O   0  0  0  0  0  0
  -28.3688  -26.6472   20.1027 O   0  0  0  0  0  0
  -26.5596  -34.8928   22.4695 O   0  0  0  0  0  0
  -23.5340  -32.1421   23.7489 O   0  0  0  0  0  0
  -28.8313  -17.2028   19.9449 C   0  0  0  0  0  0
  -30.6632  -17.8086   21.4193 C   0  0  0  0  0  0
  -28.6050  -18.5670   19.6701 C   0  0  0  0  0  0
  -30.4286  -19.1810   21.1450 C   0  0  0  0  0  0
  -29.8580  -16.8071   20.8280 C   0  0  0  0  0  0
  -29.3791  -19.5781   20.2763 C   0  0  0  0  0  0
  -28.8315  -23.2801   20.3855 C   0  0  0  0  0  0
  -29.3915  -24.5523   21.0758 C   0  0  0  0  0  0
  -29.6401  -21.9813   20.6659 C   0  0  0  0  0  0
  -28.4049  -25.7441   21.2175 C   0  0  0  0  0  0
  -29.9575  -15.4355   21.2065 N   0  0  0  0  0  0
  -29.0320  -20.8859   19.9737 O   0  0  0  0  0  0
  -31.4757  -12.4372   19.1133 H   0  0  0  0  0  0
  -30.3545  -11.3010   19.8065 H   0  0  0  0  0  0
  -29.7398  -11.7918   17.4231 H   0  0  0  0  0  0
  -29.6606  -13.5003   17.7710 H   0  0  0  0  0  0
  -27.8282  -11.3100   18.8058 H   0  0  0  0  0  0
  -27.3681  -12.6487   17.7880 H   0  0  0  0  0  0
  -27.7112  -14.2455   19.5883 H   0  0  0  0  0  0
  -28.6895  -11.9185   21.3125 H   0  0  0  0  0  0
  -28.4599  -13.5349   21.8901 H   0  0  0  0  0  0
  -25.2743   -9.5684   22.4755 H   0  0  0  0  0  0
  -23.9992   -7.4627   22.7466 H   0  0  0  0  0  0
  -21.0821   -8.8758   19.8950 H   0  0  0  0  0  0
  -22.3669  -10.9663   19.6158 H   0  0  0  0  0  0
  -21.2003   -7.6145   23.9723 H   0  0  0  0  0  0
  -21.1479   -6.0517   25.9082 H   0  0  0  0  0  0
  -22.0603   -2.7608   23.2846 H   0  0  0  0  0  0
  -22.4096  -11.9892   22.4784 H   0  0  0  0  0  0
  -21.1127  -13.1289   22.2612 H   0  0  0  0  0  0
  -24.6616  -15.8368   20.5163 H   0  0  0  0  0  0
  -26.2840  -15.6286   20.0960 H   0  0  0  0  0  0
  -26.7115  -32.5537   23.1169 H   0  0  0  0  0  0
  -25.0047  -33.9783   25.0475 H   0  0  0  0  0  0
  -22.6937  -31.3056   21.4079 H   0  0  0  0  0  0
  -23.3751  -35.9643   23.3285 H   0  0  0  0  0  0
  -24.3588  -36.8946   22.2055 H   0  0  0  0  0  0
  -23.7226  -37.6513   23.6658 H   0  0  0  0  0  0
  -26.0464  -31.5983   20.5961 H   0  0  0  0  0  0
  -26.8208  -30.8871   21.9834 H   0  0  0  0  0  0
  -28.1067  -29.0996   21.1735 H   0  0  0  0  0  0
  -26.0792  -25.9628   19.0255 H   0  0  0  0  0  0
  -23.9870  -27.2886   19.0350 H   0  0  0  0  0  0
  -23.7247  -30.5947   19.4035 H   0  0  0  0  0  0
  -22.7412  -29.2391   19.8674 H   0  0  0  0  0  0
  -25.1275  -36.1974   25.0832 H   0  0  0  0  0  0
  -20.9956  -28.3229   24.1433 H   0  0  0  0  0  0
  -20.5657  -26.2274   23.3606 H   0  0  0  0  0  0
  -21.6632  -26.7437   22.1211 H   0  0  0  0  0  0
  -19.6901  -25.6298   21.1232 H   0  0  0  0  0  0
  -19.6681  -27.3200   20.6748 H   0  0  0  0  0  0
  -17.4190  -26.6672   21.4024 H   0  0  0  0  0  0
  -18.0320  -26.0061   22.9015 H   0  0  0  0  0  0
  -19.7929  -30.7252   24.2285 H   0  0  0  0  0  0
  -17.5012  -31.6266   24.5161 H   0  0  0  0  0  0
  -15.5346  -30.2994   23.7641 H   0  0  0  0  0  0
  -15.8659  -28.0827   22.7054 H   0  0  0  0  0  0
  -24.5910  -30.7058   25.7810 H   0  0  0  0  0  0
  -24.8955  -32.2848   26.4957 H   0  0  0  0  0  0
  -25.8108  -30.8834   27.0214 H   0  0  0  0  0  0
  -26.2851  -29.6793   24.1161 H   0  0  0  0  0  0
  -27.4090  -29.7277   25.4554 H   0  0  0  0  0  0
  -27.8680  -30.4358   23.9241 H   0  0  0  0  0  0
  -27.2673  -33.3596   26.2100 H   0  0  0  0  0  0
  -28.3841  -32.6899   25.0298 H   0  0  0  0  0  0
  -28.0745  -31.8413   26.5367 H   0  0  0  0  0  0
  -28.2574  -38.0131   24.7559 H   0  0  0  0  0  0
  -28.1116  -36.2668   24.6205 H   0  0  0  0  0  0
  -27.2318  -37.1356   25.8860 H   0  0  0  0  0  0
  -20.9305  -29.8761   21.6948 H   0  0  0  0  0  0
  -26.0173  -38.2872   24.1458 H   0  0  0  0  0  0
  -28.1911  -16.4684   19.4806 H   0  0  0  0  0  0
  -31.4452  -17.5332   22.1133 H   0  0  0  0  0  0
  -27.8028  -18.8432   19.0003 H   0  0  0  0  0  0
  -31.0561  -19.9164   21.6268 H   0  0  0  0  0  0
  -28.7664  -23.4536   19.3107 H   0  0  0  0  0  0
  -27.8085  -23.1144   20.7249 H   0  0  0  0  0  0
  -30.3134  -24.8783   20.5932 H   0  0  0  0  0  0
  -29.6789  -24.2650   22.0882 H   0  0  0  0  0  0
  -29.6517  -21.7891   21.7399 H   0  0  0  0  0  0
  -30.6738  -22.0941   20.3368 H   0  0  0  0  0  0
  -28.7055  -26.3349   22.0844 H   0  0  0  0  0  0
  -27.4089  -25.3630   21.4531 H   0  0  0  0  0  0
  -29.1125  -15.0532   21.6036 H   0  0  0  0  0  0
  1 25  1  0  0  0
  1 30  2  0  0  0
  1 81  1  0  0  0
  2  3  1  0  0  0
  2 25  1  0  0  0
  2 83  1  0  0  0
  2 84  1  0  0  0
  3  4  1  0  0  0
  3 85  1  0  0  0
  3 86  1  0  0  0
  4  5  1  0  0  0
  4 87  1  0  0  0
  4 88  1  0  0  0
  5  6  1  0  0  0
  5 26  1  0  0  0
  5 89  1  0  0  0
  6 25  1  0  0  0
  6 90  1  0  0  0
  6 91  1  0  0  0
  7  8  2  0  0  0
  7 26  1  0  0  0
  7 29  1  0  0  0
  8  9  1  0  0  0
  8 22  1  0  0  0
  9 10  1  0  0  0
  9 27  2  0  0  0
 10 11  2  0  0  0
 10 15  1  0  0  0
 11 12  1  0  0  0
 11 92  1  0  0  0
 12 13  2  0  0  0
 12 93  1  0  0  0
 13 14  1  0  0  0
 13 31  1  0  0  0
 14 15  2  0  0  0
 14 94  1  0  0  0
 15 95  1  0  0  0
 16 17  2  0  0  0
 16 21  1  0  0  0
 16 31  1  0  0  0
 17 18  1  0  0  0
 17 96  1  0  0  0
 18 19  2  0  0  0
 18 97  1  0  0  0
 19 20  1  0  0  0
 19 24  1  0  0  0
 20 21  2  0  0  0
 20 98  1  0  0  0
 21 23  1  0  0  0
 22 28  1  0  0  0
 22 32  2  0  0  0
 26 27  1  0  0  0
 28 99  1  0  0  0
 28100  1  0  0  0
 29101  1  0  0  0
 29102  1  0  0  0
 33 34  1  0  0  0
 33 66  1  0  0  0
 33 70  2  0  0  0
 34 36  1  0  0  0
 34 59  1  0  0  0
 34103  1  0  0  0
 35 44  2  0  0  0
 35 45  1  0  0  0
 35 68  1  0  0  0
 36 56  1  0  0  0
 36104  1  0  0  0
 37 39  1  0  0  0
 37 47  1  0  0  0
 37 66  1  0  0  0
 37105  1  0  0  0
 38 43  2  0  0  0
 38 46  1  0  0  0
 38 47  1  0  0  0
 39 64  1  0  0  0
 39 67  2  0  0  0
 40 52  1  0  0  0
 40 53  2  0  0  0
 40 58  1  0  0  0
 41106  1  0  0  0
 41107  1  0  0  0
 41108  1  0  0  0
 41 48  1  0  0  0
 42 43  1  0  0  0
 42 66  1  0  0  0
 42109  1  0  0  0
 42110  1  0  0  0
 43 44  1  0  0  0
 44111  1  0  0  0
 45 46  2  0  0  0
 45112  1  0  0  0
 46113  1  0  0  0
 47114  1  0  0  0
 47115  1  0  0  0
 48 56  1  0  0  0
 48 65  1  0  0  0
 48116  1  0  0  0
 49 50  1  0  0  0
 49 53  1  0  0  0
 49 64  1  0  0  0
 49117  1  0  0  0
 50 51  1  0  0  0
 50118  1  0  0  0
 50119  1  0  0  0
 51 52  1  0  0  0
 51120  1  0  0  0
 51121  1  0  0  0
 52122  1  0  0  0
 52123  1  0  0  0
 53 54  1  0  0  0
 54 55  2  0  0  0
 54124  1  0  0  0
 55 57  1  0  0  0
 55125  1  0  0  0
 56 69  2  0  0  0
 57 58  2  0  0  0
 57126  1  0  0  0
 58127  1  0  0  0
 59 60  1  0  0  0
 59 61  1  0  0  0
 59 62  1  0  0  0
 60128  1  0  0  0
 60129  1  0  0  0
 60130  1  0  0  0
 61131  1  0  0  0
 61132  1  0  0  0
 61133  1  0  0  0
 62134  1  0  0  0
 62135  1  0  0  0
 62136  1  0  0  0
 63 65  1  0  0  0
 63137  1  0  0  0
 63138  1  0  0  0
 63139  1  0  0  0
 64140  1  0  0  0
 65141  1  0  0  0
 68 80  1  0  0  0
 71 73  2  0  0  0
 71 75  1  0  0  0
 71142  1  0  0  0
 72 74  1  0  0  0
 72 75  2  0  0  0
 72143  1  0  0  0
 73 76  1  0  0  0
 73144  1  0  0  0
 74 76  2  0  0  0
 74145  1  0  0  0
 75 81  1  0  0  0
 76 82  1  0  0  0
 77 78  1  0  0  0
 77 79  1  0  0  0
 77146  1  0  0  0
 77147  1  0  0  0
 78 80  1  0  0  0
 78148  1  0  0  0
 78149  1  0  0  0
 79 82  1  0  0  0
 79150  1  0  0  0
 79151  1  0  0  0
 80152  1  0  0  0
 80153  1  0  0  0
 81154  1  0  0  0
M  ISO  4   1 100  68 101  80 101  81 100
M  END
> <chiral flag>
0

> <version>
0

> <s_m_source_file>
/data/baiqing/PycharmProjects/Reinvent-master-3.2/result/LINK_invent/BTK/process_docking_weight1_custom_sum_contain_oxygen_bond_distance_aromatic_linkinvent_7_9_3/rearranged_h_0004.sdf

> <i_m_source_file_index>
2

> <r_mmod_Potential_Energy-OPLS-2005>
-26.1432418823242

> <r_mmod_Stretch_Energy-OPLS-2005>
38.0520858764648

> <r_mmod_Bend_Energy-OPLS-2005>
103.493583679199

> <r_mmod_Torsional_Energy-OPLS-2005>
269.066009521484

> <r_mmod_Improper_Torsional_Energy-OPLS-2005>
5.56116437911987

> <r_mmod_Van_der_Waal_Energy-OPLS-2005>
142.235061645508

> <r_mmod_Electrostatic_Energy-OPLS-2005>
-386.073486328125

> <r_mmod_Solvation_Energy-OPLS-2005>
-212.002868652344

> <b_mmod_Minimization_Converged-OPLS-2005>
0

> <r_mmod_RMS_Derivative-OPLS-2005>
0.609314560890198

$$$$
2
                    3D
 Structure written by MMmdl.
154162  0  0  1  0            999 V2000
  -30.7108  -14.6268   20.4661 C   0  0  0  0  0  0
  -30.4192  -12.3707   19.4872 C   0  0  0  0  0  0
  -29.5234  -12.5164   18.2410 C   0  0  0  0  0  0
  -28.0376  -12.3904   18.6298 C   0  0  0  0  0  0
  -27.6531  -13.2519   19.8619 C   0  0  2  0  0  0
  -28.7005  -13.1550   20.9979 C   0  0  0  0  0  0
  -25.2496  -13.8246   20.5676 C   0  0  0  0  0  0
  -24.1804  -13.0482   20.9207 C   0  0  0  0  0  0
  -24.6450  -11.6957   20.8755 C   0  0  0  0  0  0
  -23.9153  -10.4331   21.0423 C   0  0  0  0  0  0
  -24.3706   -9.4225   21.9188 C   0  0  0  0  0  0
  -23.6355   -8.2271   22.0761 C   0  0  0  0  0  0
  -22.4322   -8.0347   21.3568 C   0  0  0  0  0  0
  -21.9973   -9.0304   20.4677 C   0  0  0  0  0  0
  -22.7335  -10.2183   20.3052 C   0  0  0  0  0  0
  -21.6858   -6.0791   22.5275 C   0  0  0  0  0  0
  -21.4036   -6.5665   23.8220 C   0  0  0  0  0  0
  -21.3658   -5.6802   24.9155 C   0  0  0  0  0  0
  -21.6040   -4.3060   24.7199 C   0  0  0  0  0  0
  -21.8812   -3.8175   23.4303 C   0  0  0  0  0  0
  -21.9198   -4.7020   22.3371 C   0  0  0  0  0  0
  -22.7825  -13.5260   21.1856 C   0  0  0  0  0  0
  -22.1665   -4.2229   21.0940 F   0  0  0  0  0  0
  -21.5620   -3.4527   25.7690 F   0  0  0  0  0  0
  -30.0313  -13.4359   20.4296 N   0  0  0  0  0  0
  -26.2993  -12.9540   20.3339 N   0  0  0  0  0  0
  -25.9390  -11.6661   20.5770 N   0  0  0  0  0  0
  -22.0480  -12.8205   22.0431 N   0  0  0  0  0  0
  -25.4154  -15.2005   20.4022 N   0  0  0  0  0  0
  -31.8736  -14.7150   20.0715 O   0  0  0  0  0  0
  -21.6655   -6.8958   21.4251 O   0  0  0  0  0  0
  -22.3449  -14.5531   20.6733 O   0  0  0  0  0  0
  -24.6196  -31.8640   23.2021 C   0  0  0  0  0  0
  -25.9071  -32.4813   23.8347 C   0  0  1  0  0  0
  -27.2386  -27.4003   20.1077 C   0  0  0  0  0  0
  -25.5927  -33.8608   24.2299 N   0  0  0  0  0  0
  -23.4065  -30.4865   21.5427 C   0  0  2  0  0  0
  -24.8561  -28.9438   20.1140 C   0  0  0  0  0  0
  -22.7404  -29.4636   22.4923 C   0  0  0  0  0  0
  -18.0277  -28.1362   22.8461 C   0  0  0  0  0  0
  -24.1501  -36.7360   23.2618 C   0  0  0  0  0  0
  -25.9342  -30.8271   21.3454 C   0  0  0  0  0  0
  -26.0172  -29.4534   20.7055 C   0  0  0  0  0  0
  -27.2124  -28.6911   20.6949 C   0  0  0  0  0  0
  -26.0535  -26.9064   19.5192 C   0  0  0  0  0  0
  -24.8715  -27.6705   19.5174 C   0  0  0  0  0  0
  -23.6182  -29.8132   20.1587 C   0  0  0  0  0  0
  -25.4097  -36.3108   24.0334 C   0  0  1  0  0  0
  -20.5863  -28.3656   23.1281 C   0  0  2  0  0  0
  -20.6759  -26.9385   22.5388 C   0  0  0  0  0  0
  -19.5744  -26.6370   21.5172 C   0  0  0  0  0  0
  -18.1925  -26.7905   22.1596 C   0  0  0  0  0  0
  -19.1523  -28.8816   23.2891 C   0  0  0  0  0  0
  -18.9467  -30.1411   23.8933 C   0  0  0  0  0  0
  -17.6464  -30.6554   24.0560 C   0  0  0  0  0  0
  -25.9024  -34.9481   23.5108 C   0  0  0  0  0  0
  -16.5353  -29.9057   23.6307 C   0  0  0  0  0  0
  -16.7261  -28.6477   23.0315 C   0  0  0  0  0  0
  -26.4471  -31.6589   25.0691 C   0  0  0  0  0  0
  -25.3762  -31.3717   26.1473 C   0  0  0  0  0  0
  -27.0264  -30.3038   24.6016 C   0  0  0  0  0  0
  -27.6028  -32.4292   25.7504 C   0  0  0  0  0  0
  -27.5589  -37.1826   24.8427 C   0  0  0  0  0  0
  -21.4124  -29.3057   22.3696 N   0  0  0  0  0  0
  -26.4271  -37.3810   23.9410 N   0  0  0  0  0  0
  -24.6729  -31.0717   22.0919 N   0  0  0  0  0  0
  -23.4162  -28.8153   23.2953 O   0  0  0  0  0  0
  -28.4218  -26.6753   20.1424 O   0  0  0  0  0  0
  -26.5575  -34.8943   22.4663 O   0  0  0  0  0  0
  -23.5388  -32.1385   23.7425 O   0  0  0  0  0  0
  -31.5993  -19.1266   20.0204 C   0  0  0  0  0  0
  -31.4733  -17.7336   20.2361 C   0  0  0  0  0  0
  -30.4851  -19.9795   20.1277 C   0  0  0  0  0  0
  -29.1027  -18.0439   20.6408 C   0  0  0  0  0  0
  -30.2132  -17.1554   20.5486 C   0  0  0  0  0  0
  -29.2176  -19.4529   20.4527 C   0  0  0  0  0  0
  -28.1039  -24.1997   20.6508 C   0  0  0  0  0  0
  -28.0625  -22.7514   20.0525 C   0  0  0  0  0  0
  -28.4862  -25.3201   19.6377 C   0  0  0  0  0  0
  -28.2288  -21.5984   21.0890 C   0  0  0  0  0  0
  -29.9829  -15.7353   20.7930 N   0  0  0  0  0  0
  -28.0923  -20.2637   20.5520 O   0  0  0  0  0  0
  -31.4728  -12.4190   19.2138 H   0  0  0  0  0  0
  -30.2789  -11.3944   19.9547 H   0  0  0  0  0  0
  -29.7904  -11.7652   17.4988 H   0  0  0  0  0  0
  -29.7031  -13.4835   17.7639 H   0  0  0  0  0  0
  -27.8398  -11.3397   18.8463 H   0  0  0  0  0  0
  -27.4064  -12.6547   17.7808 H   0  0  0  0  0  0
  -27.6568  -14.2826   19.5104 H   0  0  0  0  0  0
  -28.6858  -12.1606   21.4404 H   0  0  0  0  0  0
  -28.4554  -13.8473   21.8063 H   0  0  0  0  0  0
  -25.2893   -9.5654   22.4706 H   0  0  0  0  0  0
  -24.0105   -7.4623   22.7406 H   0  0  0  0  0  0
  -21.0911   -8.8836   19.8935 H   0  0  0  0  0  0
  -22.3856  -10.9714   19.6087 H   0  0  0  0  0  0
  -21.2051   -7.6177   23.9746 H   0  0  0  0  0  0
  -21.1477   -6.0515   25.9063 H   0  0  0  0  0  0
  -22.0607   -2.7655   23.2744 H   0  0  0  0  0  0
  -22.4137  -11.9905   22.4848 H   0  0  0  0  0  0
  -21.1050  -13.1135   22.2587 H   0  0  0  0  0  0
  -24.6281  -15.8415   20.4170 H   0  0  0  0  0  0
  -26.2419  -15.6114   19.9897 H   0  0  0  0  0  0
  -26.7149  -32.5524   23.1123 H   0  0  0  0  0  0
  -25.0169  -33.9761   25.0508 H   0  0  0  0  0  0
  -22.6994  -31.3054   21.3968 H   0  0  0  0  0  0
  -23.3746  -35.9703   23.3197 H   0  0  0  0  0  0
  -24.3624  -36.9063   22.2048 H   0  0  0  0  0  0
  -23.7256  -37.6557   23.6668 H   0  0  0  0  0  0
  -26.0212  -31.5765   20.5588 H   0  0  0  0  0  0
  -26.8330  -30.9120   21.9428 H   0  0  0  0  0  0
  -28.1098  -29.0890   21.1483 H   0  0  0  0  0  0
  -26.0083  -25.9245   19.0690 H   0  0  0  0  0  0
  -23.9794  -27.2608   19.0642 H   0  0  0  0  0  0
  -23.7289  -30.5858   19.3970 H   0  0  0  0  0  0
  -22.7426  -29.2353   19.8586 H   0  0  0  0  0  0
  -25.1253  -36.1971   25.0824 H   0  0  0  0  0  0
  -20.9995  -28.3240   24.1390 H   0  0  0  0  0  0
  -20.5618  -26.2276   23.3578 H   0  0  0  0  0  0
  -21.6647  -26.7390   22.1206 H   0  0  0  0  0  0
  -19.6898  -25.6286   21.1194 H   0  0  0  0  0  0
  -19.6673  -27.3190   20.6706 H   0  0  0  0  0  0
  -17.4188  -26.6632   21.4011 H   0  0  0  0  0  0
  -18.0345  -26.0037   22.8981 H   0  0  0  0  0  0
  -19.7957  -30.7200   24.2341 H   0  0  0  0  0  0
  -17.5028  -31.6246   24.5133 H   0  0  0  0  0  0
  -15.5352  -30.2955   23.7622 H   0  0  0  0  0  0
  -15.8670  -28.0802   22.6994 H   0  0  0  0  0  0
  -24.5916  -30.7062   25.7868 H   0  0  0  0  0  0
  -24.9000  -32.2896   26.4932 H   0  0  0  0  0  0
  -25.8179  -30.8912   27.0217 H   0  0  0  0  0  0
  -26.2765  -29.6850   24.1087 H   0  0  0  0  0  0
  -27.4076  -29.7228   25.4420 H   0  0  0  0  0  0
  -27.8578  -30.4377   23.9094 H   0  0  0  0  0  0
  -27.2614  -33.3568   26.2114 H   0  0  0  0  0  0
  -28.3867  -32.6885   25.0377 H   0  0  0  0  0  0
  -28.0647  -31.8393   26.5440 H   0  0  0  0  0  0
  -28.2524  -38.0205   24.7571 H   0  0  0  0  0  0
  -28.1175  -36.2752   24.6087 H   0  0  0  0  0  0
  -27.2351  -37.1290   25.8839 H   0  0  0  0  0  0
  -20.9231  -29.8897   21.7058 H   0  0  0  0  0  0
  -26.0160  -38.2889   24.1431 H   0  0  0  0  0  0
  -32.5559  -19.5634   19.7691 H   0  0  0  0  0  0
  -32.3629  -17.1298   20.1575 H   0  0  0  0  0  0
  -30.6114  -21.0373   19.9408 H   0  0  0  0  0  0
  -28.1325  -17.6319   20.8764 H   0  0  0  0  0  0
  -28.8328  -24.2229   21.4612 H   0  0  0  0  0  0
  -27.1433  -24.4283   21.1122 H   0  0  0  0  0  0
  -28.8428  -22.6539   19.2980 H   0  0  0  0  0  0
  -27.1116  -22.6214   19.5272 H   0  0  0  0  0  0
  -27.9654  -25.2114   18.6896 H   0  0  0  0  0  0
  -29.5315  -25.1508   19.3834 H   0  0  0  0  0  0
  -27.4483  -21.7030   21.8432 H   0  0  0  0  0  0
  -29.1667  -21.6970   21.6376 H   0  0  0  0  0  0
  -29.0543  -15.5175   21.1144 H   0  0  0  0  0  0
  1 25  1  0  0  0
  1 30  2  0  0  0
  1 81  1  0  0  0
  2  3  1  0  0  0
  2 25  1  0  0  0
  2 83  1  0  0  0
  2 84  1  0  0  0
  3  4  1  0  0  0
  3 85  1  0  0  0
  3 86  1  0  0  0
  4  5  1  0  0  0
  4 87  1  0  0  0
  4 88  1  0  0  0
  5  6  1  0  0  0
  5 26  1  0  0  0
  5 89  1  0  0  0
  6 25  1  0  0  0
  6 90  1  0  0  0
  6 91  1  0  0  0
  7  8  2  0  0  0
  7 26  1  0  0  0
  7 29  1  0  0  0
  8  9  1  0  0  0
  8 22  1  0  0  0
  9 10  1  0  0  0
  9 27  2  0  0  0
 10 11  2  0  0  0
 10 15  1  0  0  0
 11 12  1  0  0  0
 11 92  1  0  0  0
 12 13  2  0  0  0
 12 93  1  0  0  0
 13 14  1  0  0  0
 13 31  1  0  0  0
 14 15  2  0  0  0
 14 94  1  0  0  0
 15 95  1  0  0  0
 16 17  2  0  0  0
 16 21  1  0  0  0
 16 31  1  0  0  0
 17 18  1  0  0  0
 17 96  1  0  0  0
 18 19  2  0  0  0
 18 97  1  0  0  0
 19 20  1  0  0  0
 19 24  1  0  0  0
 20 21  2  0  0  0
 20 98  1  0  0  0
 21 23  1  0  0  0
 22 28  1  0  0  0
 22 32  2  0  0  0
 26 27  1  0  0  0
 28 99  1  0  0  0
 28100  1  0  0  0
 29101  1  0  0  0
 29102  1  0  0  0
 33 34  1  0  0  0
 33 66  1  0  0  0
 33 70  2  0  0  0
 34 36  1  0  0  0
 34 59  1  0  0  0
 34103  1  0  0  0
 35 44  2  0  0  0
 35 45  1  0  0  0
 35 68  1  0  0  0
 36 56  1  0  0  0
 36104  1  0  0  0
 37 39  1  0  0  0
 37 47  1  0  0  0
 37 66  1  0  0  0
 37105  1  0  0  0
 38 43  2  0  0  0
 38 46  1  0  0  0
 38 47  1  0  0  0
 39 64  1  0  0  0
 39 67  2  0  0  0
 40 52  1  0  0  0
 40 53  2  0  0  0
 40 58  1  0  0  0
 41106  1  0  0  0
 41107  1  0  0  0
 41108  1  0  0  0
 41 48  1  0  0  0
 42 43  1  0  0  0
 42 66  1  0  0  0
 42109  1  0  0  0
 42110  1  0  0  0
 43 44  1  0  0  0
 44111  1  0  0  0
 45 46  2  0  0  0
 45112  1  0  0  0
 46113  1  0  0  0
 47114  1  0  0  0
 47115  1  0  0  0
 48 56  1  0  0  0
 48 65  1  0  0  0
 48116  1  0  0  0
 49 50  1  0  0  0
 49 53  1  0  0  0
 49 64  1  0  0  0
 49117  1  0  0  0
 50 51  1  0  0  0
 50118  1  0  0  0
 50119  1  0  0  0
 51 52  1  0  0  0
 51120  1  0  0  0
 51121  1  0  0  0
 52122  1  0  0  0
 52123  1  0  0  0
 53 54  1  0  0  0
 54 55  2  0  0  0
 54124  1  0  0  0
 55 57  1  0  0  0
 55125  1  0  0  0
 56 69  2  0  0  0
 57 58  2  0  0  0
 57126  1  0  0  0
 58127  1  0  0  0
 59 60  1  0  0  0
 59 61  1  0  0  0
 59 62  1  0  0  0
 60128  1  0  0  0
 60129  1  0  0  0
 60130  1  0  0  0
 61131  1  0  0  0
 61132  1  0  0  0
 61133  1  0  0  0
 62134  1  0  0  0
 62135  1  0  0  0
 62136  1  0  0  0
 63 65  1  0  0  0
 63137  1  0  0  0
 63138  1  0  0  0
 63139  1  0  0  0
 64140  1  0  0  0
 65141  1  0  0  0
 68 79  1  0  0  0
 71 72  2  0  0  0
 71 73  1  0  0  0
 71142  1  0  0  0
 72 75  1  0  0  0
 72143  1  0  0  0
 73 76  2  0  0  0
 73144  1  0  0  0
 74 75  2  0  0  0
 74 76  1  0  0  0
 74145  1  0  0  0
 75 81  1  0  0  0
 76 82  1  0  0  0
 77 78  1  0  0  0
 77 79  1  0  0  0
 77146  1  0  0  0
 77147  1  0  0  0
 78 80  1  0  0  0
 78148  1  0  0  0
 78149  1  0  0  0
 79150  1  0  0  0
 79151  1  0  0  0
 80 82  1  0  0  0
 80152  1  0  0  0
 80153  1  0  0  0
 81154  1  0  0  0
M  ISO  4   1 100  68 101  79 101  81 100
M  END
> <chiral flag>
0

> <version>
0

> <s_m_source_file>
/data/baiqing/PycharmProjects/Reinvent-master-3.2/result/LINK_invent/BTK/process_docking_weight1_custom_sum_contain_oxygen_bond_distance_aromatic_linkinvent_7_9_3/rearranged_h_0004.sdf

> <i_m_source_file_index>
3

> <r_mmod_Potential_Energy-OPLS-2005>
12.3938570022583

> <r_mmod_Stretch_Energy-OPLS-2005>
53.158374786377

> <r_mmod_Bend_Energy-OPLS-2005>
125.004516601562

> <r_mmod_Torsional_Energy-OPLS-2005>
215.281326293945

> <r_mmod_Improper_Torsional_Energy-OPLS-2005>
4.95515584945679

> <r_mmod_Van_der_Waal_Energy-OPLS-2005>
147.654434204102

> <r_mmod_Electrostatic_Energy-OPLS-2005>
-362.478637695312

> <r_mmod_Solvation_Energy-OPLS-2005>
-207.331604003906

> <b_mmod_Minimization_Converged-OPLS-2005>
0

> <r_mmod_RMS_Derivative-OPLS-2005>
6.90671491622925

$$$$
3
                    3D
 Structure written by MMmdl.
151159  0  0  1  0            999 V2000
  -30.6240  -14.7128   20.4559 C   0  0  0  0  0  0
  -30.4260  -12.4287   19.4809 C   0  0  0  0  0  0
  -29.5114  -12.5211   18.2394 C   0  0  0  0  0  0
  -28.0342  -12.3558   18.6424 C   0  0  0  0  0  0
  -27.6473  -13.2367   19.8603 C   0  0  2  0  0  0
  -28.6895  -13.1460   20.9987 C   0  0  0  0  0  0
  -25.2522  -13.8215   20.5686 C   0  0  0  0  0  0
  -24.1813  -13.0453   20.9196 C   0  0  0  0  0  0
  -24.6407  -11.6933   20.8734 C   0  0  0  0  0  0
  -23.9079  -10.4307   21.0389 C   0  0  0  0  0  0
  -24.3630   -9.4223   21.9169 C   0  0  0  0  0  0
  -23.6304   -8.2260   22.0746 C   0  0  0  0  0  0
  -22.4283   -8.0295   21.3542 C   0  0  0  0  0  0
  -21.9919   -9.0266   20.4639 C   0  0  0  0  0  0
  -22.7248  -10.2144   20.3044 C   0  0  0  0  0  0
  -21.6862   -6.0743   22.5271 C   0  0  0  0  0  0
  -21.4023   -6.5641   23.8207 C   0  0  0  0  0  0
  -21.3662   -5.6790   24.9168 C   0  0  0  0  0  0
  -21.6044   -4.3052   24.7212 C   0  0  0  0  0  0
  -21.8822   -3.8147   23.4331 C   0  0  0  0  0  0
  -21.9198   -4.6970   22.3394 C   0  0  0  0  0  0
  -22.7830  -13.5230   21.1851 C   0  0  0  0  0  0
  -22.1659   -4.2157   21.0969 F   0  0  0  0  0  0
  -21.5631   -3.4532   25.7720 F   0  0  0  0  0  0
  -30.0014  -13.4846   20.4312 N   0  0  0  0  0  0
  -26.2963  -12.9431   20.3308 N   0  0  0  0  0  0
  -25.9343  -11.6566   20.5756 N   0  0  0  0  0  0
  -22.0480  -12.8229   22.0416 N   0  0  0  0  0  0
  -25.4209  -15.1945   20.4101 N   0  0  0  0  0  0
  -31.7921  -14.8162   20.0689 O   0  0  0  0  0  0
  -21.6649   -6.8888   21.4236 O   0  0  0  0  0  0
  -22.3506  -14.5529   20.6690 O   0  0  0  0  0  0
  -24.6307  -31.8560   23.2001 C   0  0  0  0  0  0
  -25.9132  -32.4765   23.8337 C   0  0  1  0  0  0
  -27.2211  -27.2639   20.1238 C   0  0  0  0  0  0
  -25.5936  -33.8566   24.2266 N   0  0  0  0  0  0
  -23.4275  -30.4802   21.5432 C   0  0  2  0  0  0
  -24.8757  -28.9316   20.1076 C   0  0  0  0  0  0
  -22.7498  -29.4610   22.4907 C   0  0  0  0  0  0
  -18.0299  -28.1380   22.8484 C   0  0  0  0  0  0
  -24.1497  -36.7288   23.2634 C   0  0  0  0  0  0
  -25.9738  -30.7680   21.3829 C   0  0  0  0  0  0
  -26.0457  -29.3913   20.7242 C   0  0  0  0  0  0
  -27.2173  -28.5674   20.7279 C   0  0  0  0  0  0
  -26.0333  -26.8880   19.4534 C   0  0  0  0  0  0
  -24.8752  -27.6874   19.4616 C   0  0  0  0  0  0
  -23.6461  -29.8179   20.1579 C   0  0  0  0  0  0
  -25.4120  -36.3083   24.0330 C   0  0  1  0  0  0
  -20.5902  -28.3701   23.1266 C   0  0  2  0  0  0
  -20.6789  -26.9414   22.5410 C   0  0  0  0  0  0
  -19.5767  -26.6374   21.5215 C   0  0  0  0  0  0
  -18.1945  -26.7924   22.1620 C   0  0  0  0  0  0
  -19.1547  -28.8855   23.2876 C   0  0  0  0  0  0
  -18.9465  -30.1456   23.8894 C   0  0  0  0  0  0
  -17.6462  -30.6581   24.0562 C   0  0  0  0  0  0
  -25.9057  -34.9450   23.5103 C   0  0  0  0  0  0
  -16.5357  -29.9076   23.6325 C   0  0  0  0  0  0
  -16.7284  -28.6493   23.0350 C   0  0  0  0  0  0
  -26.4496  -31.6580   25.0718 C   0  0  0  0  0  0
  -25.3714  -31.3721   26.1433 C   0  0  0  0  0  0
  -27.0337  -30.2998   24.6193 C   0  0  0  0  0  0
  -27.6054  -32.4312   25.7488 C   0  0  0  0  0  0
  -27.5600  -37.1790   24.8451 C   0  0  0  0  0  0
  -21.4206  -29.3050   22.3650 N   0  0  0  0  0  0
  -26.4296  -37.3784   23.9420 N   0  0  0  0  0  0
  -24.6963  -31.0530   22.0981 N   0  0  0  0  0  0
  -23.4196  -28.8150   23.3008 O   0  0  0  0  0  0
  -28.3135  -26.3643   20.2130 O   0  0  0  0  0  0
  -26.5617  -34.8923   22.4665 O   0  0  0  0  0  0
  -23.5459  -32.1386   23.7296 O   0  0  0  0  0  0
  -29.9215  -18.4009   17.9838 C   0  0  0  0  0  0
  -30.0436  -17.2015   18.7101 C   0  0  0  0  0  0
  -29.6505  -19.6289   18.6192 C   0  0  0  0  0  0
  -29.6150  -18.4578   20.7475 C   0  0  0  0  0  0
  -29.8832  -17.1718   20.1126 C   0  0  0  0  0  0
  -29.5061  -19.7228   20.0242 C   0  0  0  0  0  0
  -28.9583  -23.7015   20.5590 C   0  0  0  0  0  0
  -28.1390  -24.9094   19.8603 C   0  0  0  0  0  0
  -28.9051  -22.2244   19.8922 C   0  0  0  0  0  0
  -29.8887  -15.8432   20.7781 N   0  0  0  0  0  0
  -29.2917  -20.9914   20.6527 O   0  0  0  0  0  0
  -31.4711  -12.5289   19.1850 H   0  0  0  0  0  0
  -30.3434  -11.4441   19.9445 H   0  0  0  0  0  0
  -29.7878  -11.7633   17.5056 H   0  0  0  0  0  0
  -29.6521  -13.4855   17.7487 H   0  0  0  0  0  0
  -27.8736  -11.3035   18.8783 H   0  0  0  0  0  0
  -27.3839  -12.5778   17.7944 H   0  0  0  0  0  0
  -27.6497  -14.2659   19.5014 H   0  0  0  0  0  0
  -28.7085  -12.1426   21.4259 H   0  0  0  0  0  0
  -28.4261  -13.8197   21.8158 H   0  0  0  0  0  0
  -25.2776   -9.5703   22.4741 H   0  0  0  0  0  0
  -24.0011   -7.4656   22.7465 H   0  0  0  0  0  0
  -21.0850   -8.8788   19.8956 H   0  0  0  0  0  0
  -22.3695  -10.9685   19.6157 H   0  0  0  0  0  0
  -21.2016   -7.6148   23.9717 H   0  0  0  0  0  0
  -21.1482   -6.0514   25.9073 H   0  0  0  0  0  0
  -22.0598   -2.7610   23.2826 H   0  0  0  0  0  0
  -22.4088  -11.9897   22.4822 H   0  0  0  0  0  0
  -21.1095  -13.1252   22.2608 H   0  0  0  0  0  0
  -24.6539  -15.8493   20.5182 H   0  0  0  0  0  0
  -26.2720  -15.6335   20.0812 H   0  0  0  0  0  0
  -26.7194  -32.5423   23.1073 H   0  0  0  0  0  0
  -25.0108  -33.9697   25.0431 H   0  0  0  0  0  0
  -22.7246  -31.3034   21.3992 H   0  0  0  0  0  0
  -23.3787  -35.9590   23.3251 H   0  0  0  0  0  0
  -24.3611  -36.8955   22.2062 H   0  0  0  0  0  0
  -23.7209  -37.6460   23.6678 H   0  0  0  0  0  0
  -26.1139  -31.5300   20.6151 H   0  0  0  0  0  0
  -26.8505  -30.8151   22.0170 H   0  0  0  0  0  0
  -28.1074  -28.9110   21.2363 H   0  0  0  0  0  0
  -25.9612  -25.9548   18.9169 H   0  0  0  0  0  0
  -23.9851  -27.3344   18.9594 H   0  0  0  0  0  0
  -23.7705  -30.5966   19.4044 H   0  0  0  0  0  0
  -22.7642  -29.2517   19.8525 H   0  0  0  0  0  0
  -25.1302  -36.1934   25.0823 H   0  0  0  0  0  0
  -21.0005  -28.3286   24.1384 H   0  0  0  0  0  0
  -20.5701  -26.2309   23.3617 H   0  0  0  0  0  0
  -21.6657  -26.7444   22.1198 H   0  0  0  0  0  0
  -19.6930  -25.6282   21.1255 H   0  0  0  0  0  0
  -19.6711  -27.3176   20.6741 H   0  0  0  0  0  0
  -17.4222  -26.6685   21.4013 H   0  0  0  0  0  0
  -18.0335  -26.0059   22.9007 H   0  0  0  0  0  0
  -19.7940  -30.7272   24.2264 H   0  0  0  0  0  0
  -17.5014  -31.6263   24.5158 H   0  0  0  0  0  0
  -15.5354  -30.2972   23.7645 H   0  0  0  0  0  0
  -15.8690  -28.0806   22.7061 H   0  0  0  0  0  0
  -24.5890  -30.7073   25.7749 H   0  0  0  0  0  0
  -24.8896  -32.2885   26.4853 H   0  0  0  0  0  0
  -25.8022  -30.8890   27.0213 H   0  0  0  0  0  0
  -26.2909  -29.6744   24.1224 H   0  0  0  0  0  0
  -27.4035  -29.7261   25.4703 H   0  0  0  0  0  0
  -27.8786  -30.4282   23.9422 H   0  0  0  0  0  0
  -27.2666  -33.3615   26.2063 H   0  0  0  0  0  0
  -28.3860  -32.6868   25.0307 H   0  0  0  0  0  0
  -28.0720  -31.8431   26.5404 H   0  0  0  0  0  0
  -28.2567  -38.0141   24.7588 H   0  0  0  0  0  0
  -28.1152  -36.2679   24.6168 H   0  0  0  0  0  0
  -27.2330  -37.1304   25.8852 H   0  0  0  0  0  0
  -20.9380  -29.8783   21.6870 H   0  0  0  0  0  0
  -26.0183  -38.2854   24.1457 H   0  0  0  0  0  0
  -30.0301  -18.3759   16.9078 H   0  0  0  0  0  0
  -30.2300  -16.2897   18.1602 H   0  0  0  0  0  0
  -29.5703  -20.4951   17.9815 H   0  0  0  0  0  0
  -29.4868  -18.4791   21.8197 H   0  0  0  0  0  0
  -28.6090  -23.6198   21.5884 H   0  0  0  0  0  0
  -30.0060  -23.9934   20.6347 H   0  0  0  0  0  0
  -27.1028  -24.6222   20.0292 H   0  0  0  0  0  0
  -28.2986  -24.8394   18.7838 H   0  0  0  0  0  0
  -29.5254  -22.3041   19.0017 H   0  0  0  0  0  0
  -27.8886  -22.0526   19.5364 H   0  0  0  0  0  0
  -29.0753  -15.6548   21.3447 H   0  0  0  0  0  0
  1 25  1  0  0  0
  1 30  2  0  0  0
  1 80  1  0  0  0
  2  3  1  0  0  0
  2 25  1  0  0  0
  2 82  1  0  0  0
  2 83  1  0  0  0
  3  4  1  0  0  0
  3 84  1  0  0  0
  3 85  1  0  0  0
  4  5  1  0  0  0
  4 86  1  0  0  0
  4 87  1  0  0  0
  5  6  1  0  0  0
  5 26  1  0  0  0
  5 88  1  0  0  0
  6 25  1  0  0  0
  6 89  1  0  0  0
  6 90  1  0  0  0
  7  8  2  0  0  0
  7 26  1  0  0  0
  7 29  1  0  0  0
  8  9  1  0  0  0
  8 22  1  0  0  0
  9 10  1  0  0  0
  9 27  2  0  0  0
 10 11  2  0  0  0
 10 15  1  0  0  0
 11 12  1  0  0  0
 11 91  1  0  0  0
 12 13  2  0  0  0
 12 92  1  0  0  0
 13 14  1  0  0  0
 13 31  1  0  0  0
 14 15  2  0  0  0
 14 93  1  0  0  0
 15 94  1  0  0  0
 16 17  2  0  0  0
 16 21  1  0  0  0
 16 31  1  0  0  0
 17 18  1  0  0  0
 17 95  1  0  0  0
 18 19  2  0  0  0
 18 96  1  0  0  0
 19 20  1  0  0  0
 19 24  1  0  0  0
 20 21  2  0  0  0
 20 97  1  0  0  0
 21 23  1  0  0  0
 22 28  1  0  0  0
 22 32  2  0  0  0
 26 27  1  0  0  0
 28 98  1  0  0  0
 28 99  1  0  0  0
 29100  1  0  0  0
 29101  1  0  0  0
 33 34  1  0  0  0
 33 66  1  0  0  0
 33 70  2  0  0  0
 34 36  1  0  0  0
 34 59  1  0  0  0
 34102  1  0  0  0
 35 44  2  0  0  0
 35 45  1  0  0  0
 35 68  1  0  0  0
 36 56  1  0  0  0
 36103  1  0  0  0
 37 39  1  0  0  0
 37 47  1  0  0  0
 37 66  1  0  0  0
 37104  1  0  0  0
 38 43  2  0  0  0
 38 46  1  0  0  0
 38 47  1  0  0  0
 39 64  1  0  0  0
 39 67  2  0  0  0
 40 52  1  0  0  0
 40 53  2  0  0  0
 40 58  1  0  0  0
 41105  1  0  0  0
 41106  1  0  0  0
 41107  1  0  0  0
 41 48  1  0  0  0
 42 43  1  0  0  0
 42 66  1  0  0  0
 42108  1  0  0  0
 42109  1  0  0  0
 43 44  1  0  0  0
 44110  1  0  0  0
 45 46  2  0  0  0
 45111  1  0  0  0
 46112  1  0  0  0
 47113  1  0  0  0
 47114  1  0  0  0
 48 56  1  0  0  0
 48 65  1  0  0  0
 48115  1  0  0  0
 49 50  1  0  0  0
 49 53  1  0  0  0
 49 64  1  0  0  0
 49116  1  0  0  0
 50 51  1  0  0  0
 50117  1  0  0  0
 50118  1  0  0  0
 51 52  1  0  0  0
 51119  1  0  0  0
 51120  1  0  0  0
 52121  1  0  0  0
 52122  1  0  0  0
 53 54  1  0  0  0
 54 55  2  0  0  0
 54123  1  0  0  0
 55 57  1  0  0  0
 55124  1  0  0  0
 56 69  2  0  0  0
 57 58  2  0  0  0
 57125  1  0  0  0
 58126  1  0  0  0
 59 60  1  0  0  0
 59 61  1  0  0  0
 59 62  1  0  0  0
 60127  1  0  0  0
 60128  1  0  0  0
 60129  1  0  0  0
 61130  1  0  0  0
 61131  1  0  0  0
 61132  1  0  0  0
 62133  1  0  0  0
 62134  1  0  0  0
 62135  1  0  0  0
 63 65  1  0  0  0
 63136  1  0  0  0
 63137  1  0  0  0
 63138  1  0  0  0
 64139  1  0  0  0
 65140  1  0  0  0
 68 78  1  0  0  0
 71 72  2  0  0  0
 71 73  1  0  0  0
 71141  1  0  0  0
 72 75  1  0  0  0
 72142  1  0  0  0
 73 76  2  0  0  0
 73143  1  0  0  0
 74 75  2  0  0  0
 74 76  1  0  0  0
 74144  1  0  0  0
 75 80  1  0  0  0
 76 81  1  0  0  0
 77 78  1  0  0  0
 77 79  1  0  0  0
 77145  1  0  0  0
 77146  1  0  0  0
 78147  1  0  0  0
 78148  1  0  0  0
 79 81  1  0  0  0
 79149  1  0  0  0
 79150  1  0  0  0
 80151  1  0  0  0
M  ISO  4   1 100  68 101  78 101  80 100
M  END
> <chiral flag>
0

> <version>
0

> <s_m_source_file>
/data/baiqing/PycharmProjects/Reinvent-master-3.2/result/LINK_invent/BTK/process_docking_weight1_custom_sum_contain_oxygen_bond_distance_aromatic_linkinvent_7_9_3/rearranged_h_0004.sdf

> <i_m_source_file_index>
4

> <r_mmod_Potential_Energy-OPLS-2005>
185.519424438477

> <r_mmod_Stretch_Energy-OPLS-2005>
124.80167388916

> <r_mmod_Bend_Energy-OPLS-2005>
166.076385498047

> <r_mmod_Torsional_Energy-OPLS-2005>
237.988235473633

> <r_mmod_Improper_Torsional_Energy-OPLS-2005>
4.65315580368042

> <r_mmod_Van_der_Waal_Energy-OPLS-2005>
146.747375488281

> <r_mmod_Electrostatic_Energy-OPLS-2005>
-355.506103515625

> <r_mmod_Solvation_Energy-OPLS-2005>
-217.155700683594

> <b_mmod_Minimization_Converged-OPLS-2005>
0

> <r_mmod_RMS_Derivative-OPLS-2005>
1.40038752555847

$$$$
4
                    3D
 Structure written by MMmdl.
208215  0  0  1  0            999 V2000
  -30.8114  -14.3697   20.6392 C   0  0  0  0  0  0
  -30.4101  -12.2951   19.3857 C   0  0  0  0  0  0
  -29.4717  -12.5130   18.1839 C   0  0  0  0  0  0
  -27.9984  -12.3617   18.6237 C   0  0  0  0  0  0
  -27.6690  -13.2020   19.8837 C   0  0  2  0  0  0
  -28.7213  -12.9832   20.9934 C   0  0  0  0  0  0
  -25.2546  -13.7952   20.5427 C   0  0  0  0  0  0
  -24.1791  -13.0227   20.9062 C   0  0  0  0  0  0
  -24.6334  -11.6738   20.8638 C   0  0  0  0  0  0
  -23.8996  -10.4126   21.0486 C   0  0  0  0  0  0
  -24.3278   -9.4029   21.9393 C   0  0  0  0  0  0
  -23.5943   -8.2063   22.0868 C   0  0  0  0  0  0
  -22.4075   -8.0135   21.3435 C   0  0  0  0  0  0
  -21.9932   -9.0154   20.4489 C   0  0  0  0  0  0
  -22.7275  -10.1978   20.3029 C   0  0  0  0  0  0
  -21.6648   -6.0624   22.5174 C   0  0  0  0  0  0
  -21.4012   -6.5602   23.8105 C   0  0  0  0  0  0
  -21.3877   -5.6813   24.9176 C   0  0  0  0  0  0
  -21.6237   -4.3071   24.7277 C   0  0  0  0  0  0
  -21.9102   -3.8145   23.4412 C   0  0  0  0  0  0
  -21.9256   -4.6884   22.3413 C   0  0  0  0  0  0
  -22.7880  -13.5139   21.1909 C   0  0  0  0  0  0
  -22.1729   -4.2090   21.0984 F   0  0  0  0  0  0
  -21.5678   -3.4604   25.7846 F   0  0  0  0  0  0
  -30.0496  -13.2653   20.4310 N   0  0  0  0  0  0
  -26.3065  -12.9183   20.3483 N   0  0  0  0  0  0
  -25.9371  -11.6328   20.6006 N   0  0  0  0  0  0
  -22.0598  -12.7956   22.0415 N   0  0  0  0  0  0
  -25.4111  -15.1590   20.3814 N   0  0  0  0  0  0
  -31.8544  -14.5583   20.0128 O   0  0  0  0  0  0
  -21.6383   -6.8759   21.4110 O   0  0  0  0  0  0
  -22.3560  -14.5588   20.7093 O   0  0  0  0  0  0
  -24.6139  -31.8650   23.2043 C   0  0  0  0  0  0
  -25.9018  -32.4792   23.8359 C   0  0  1  0  0  0
  -27.2270  -27.4347   20.0904 C   0  0  0  0  0  0
  -25.5881  -33.8598   24.2288 N   0  0  0  0  0  0
  -23.4028  -30.4866   21.5454 C   0  0  2  0  0  0
  -24.8540  -28.9539   20.1057 C   0  0  0  0  0  0
  -22.7396  -29.4661   22.4960 C   0  0  0  0  0  0
  -18.0281  -28.1357   22.8480 C   0  0  0  0  0  0
  -24.1500  -36.7331   23.2633 C   0  0  0  0  0  0
  -25.9314  -30.8274   21.3597 C   0  0  0  0  0  0
  -26.0122  -29.4654   20.7017 C   0  0  0  0  0  0
  -27.2049  -28.7105   20.6956 C   0  0  0  0  0  0
  -26.0603  -26.9338   19.4803 C   0  0  0  0  0  0
  -24.8717  -27.6849   19.4965 C   0  0  0  0  0  0
  -23.6125  -29.8145   20.1592 C   0  0  0  0  0  0
  -25.4117  -36.3102   24.0317 C   0  0  1  0  0  0
  -20.5862  -28.3677   23.1290 C   0  0  2  0  0  0
  -20.6778  -26.9400   22.5414 C   0  0  0  0  0  0
  -19.5775  -26.6364   21.5188 C   0  0  0  0  0  0
  -18.1942  -26.7902   22.1604 C   0  0  0  0  0  0
  -19.1523  -28.8827   23.2888 C   0  0  0  0  0  0
  -18.9466  -30.1429   23.8903 C   0  0  0  0  0  0
  -17.6472  -30.6572   24.0560 C   0  0  0  0  0  0
  -25.9051  -34.9456   23.5104 C   0  0  0  0  0  0
  -16.5359  -29.9070   23.6328 C   0  0  0  0  0  0
  -16.7273  -28.6483   23.0343 C   0  0  0  0  0  0
  -26.4461  -31.6588   25.0687 C   0  0  0  0  0  0
  -25.3732  -31.3697   26.1428 C   0  0  0  0  0  0
  -27.0298  -30.3034   24.6055 C   0  0  0  0  0  0
  -27.6016  -32.4308   25.7486 C   0  0  0  0  0  0
  -27.5594  -37.1813   24.8459 C   0  0  0  0  0  0
  -21.4124  -29.3030   22.3685 N   0  0  0  0  0  0
  -26.4322  -37.3778   23.9379 N   0  0  0  0  0  0
  -24.6687  -31.0715   22.0968 N   0  0  0  0  0  0
  -23.4167  -28.8173   23.2973 O   0  0  0  0  0  0
  -28.3315  -26.6228   20.1593 O   0  0  0  0  0  0
  -26.5619  -34.8932   22.4669 O   0  0  0  0  0  0
  -23.5331  -32.1428   23.7418 O   0  0  0  0  0  0
  -30.3098  -19.2079   19.2977 C   0  0  0  0  0  0
  -25.5785  -18.9929   23.9310 C   0  0  0  0  0  0
  -25.5422  -16.6456   24.3588 C   0  0  0  0  0  0
  -27.7338  -12.1150   25.1073 C   0  0  0  0  0  0
  -29.2336   -9.1663   26.0732 C   0  0  0  0  0  0
  -27.5457   -8.1694   24.4904 C   0  0  0  0  0  0
  -31.5639  -20.0693   19.5314 C   0  0  0  0  0  0
  -26.5577  -20.1795   24.0978 C   0  0  0  0  0  0
  -25.8200  -15.1730   23.9514 C   0  0  0  0  0  0
  -32.7651  -19.3237   20.1803 C   0  0  0  0  0  0
  -26.3066  -21.3986   23.1501 C   0  0  0  0  0  0
  -32.4620  -18.5351   21.4866 C   0  0  0  0  0  0
  -27.5573  -22.1451   22.5946 C   0  0  0  0  0  0
  -27.2904  -23.6395   22.2442 C   0  0  0  0  0  0
  -32.0555  -17.0834   21.1763 C   0  0  0  0  0  0
  -28.2395  -24.3050   21.2059 C   0  0  0  0  0  0
  -27.2955  -18.5806   21.5185 C   0  0  0  0  0  0
  -26.8652  -14.4632   24.8463 C   0  0  0  0  0  0
  -31.0664  -16.4108   22.1488 C   0  0  0  0  0  0
  -28.2771  -18.2176   20.3771 C   0  0  0  0  0  0
  -27.1372  -17.5196   22.6515 C   0  0  0  0  0  0
  -28.3553  -25.8451   21.3746 C   0  0  0  0  0  0
  -28.0990  -10.7671   24.3996 C   0  0  1  0  0  0
  -27.9529   -9.4597   25.2676 C   0  0  0  0  0  0
  -29.4541  -19.0975   20.3305 N   0  0  0  0  0  0
  -27.1569  -13.0961   24.3786 N   0  0  0  0  0  0
  -30.3922  -15.2187   21.5971 N   0  0  0  0  0  0
  -26.0486  -17.7280   23.6600 N   0  0  0  0  0  0
  -27.4107  -10.6131   23.1027 N   0  3  0  0  0  0
  -30.1331  -18.6568   18.2074 O   0  0  0  0  0  0
  -24.3824  -19.2428   24.1364 O   0  0  0  0  0  0
  -24.8202  -16.7579   25.3563 O   0  0  0  0  0  0
  -28.0146  -12.2919   26.2948 O   0  0  0  0  0  0
  -31.4610  -12.3427   19.0888 H   0  0  0  0  0  0
  -30.2860  -11.2802   19.7613 H   0  0  0  0  0  0
  -29.6973  -11.7810   17.4104 H   0  0  0  0  0  0
  -29.6455  -13.4883   17.7346 H   0  0  0  0  0  0
  -27.7875  -11.3091   18.8223 H   0  0  0  0  0  0
  -27.3405  -12.6431   17.8066 H   0  0  0  0  0  0
  -27.7155  -14.2528   19.5878 H   0  0  0  0  0  0
  -28.7491  -11.9464   21.3157 H   0  0  0  0  0  0
  -28.4766  -13.5685   21.8802 H   0  0  0  0  0  0
  -25.2137   -9.5269   22.5335 H   0  0  0  0  0  0
  -23.9558   -7.4436   22.7609 H   0  0  0  0  0  0
  -21.1188   -8.8686   19.8387 H   0  0  0  0  0  0
  -22.4030  -10.9583   19.6044 H   0  0  0  0  0  0
  -21.2080   -7.6147   23.9621 H   0  0  0  0  0  0
  -21.1743   -6.0607   25.9037 H   0  0  0  0  0  0
  -22.1056   -2.7610   23.2953 H   0  0  0  0  0  0
  -22.4200  -11.9414   22.4426 H   0  0  0  0  0  0
  -21.1250  -13.0852   22.2848 H   0  0  0  0  0  0
  -24.5703  -15.7276   20.3406 H   0  0  0  0  0  0
  -26.1847  -15.5647   19.8694 H   0  0  0  0  0  0
  -26.7066  -32.5520   23.1111 H   0  0  0  0  0  0
  -24.9999  -33.9784   25.0409 H   0  0  0  0  0  0
  -22.6939  -31.3021   21.4003 H   0  0  0  0  0  0
  -23.3747  -35.9697   23.3335 H   0  0  0  0  0  0
  -24.3596  -36.8915   22.2052 H   0  0  0  0  0  0
  -23.7299  -37.6554   23.6642 H   0  0  0  0  0  0
  -26.0428  -31.5927   20.5914 H   0  0  0  0  0  0
  -26.8191  -30.8822   21.9753 H   0  0  0  0  0  0
  -28.1039  -29.0929   21.1629 H   0  0  0  0  0  0
  -26.0718  -25.9525   19.0208 H   0  0  0  0  0  0
  -23.9800  -27.2768   19.0402 H   0  0  0  0  0  0
  -23.7255  -30.5886   19.4015 H   0  0  0  0  0  0
  -22.7372  -29.2333   19.8601 H   0  0  0  0  0  0
  -25.1306  -36.1971   25.0819 H   0  0  0  0  0  0
  -20.9986  -28.3228   24.1401 H   0  0  0  0  0  0
  -20.5636  -26.2265   23.3591 H   0  0  0  0  0  0
  -21.6649  -26.7404   22.1216 H   0  0  0  0  0  0
  -19.6939  -25.6261   21.1227 H   0  0  0  0  0  0
  -19.6713  -27.3161   20.6700 H   0  0  0  0  0  0
  -17.4195  -26.6621   21.4020 H   0  0  0  0  0  0
  -18.0393  -26.0036   22.9011 H   0  0  0  0  0  0
  -19.7947  -30.7232   24.2266 H   0  0  0  0  0  0
  -17.5036  -31.6258   24.5148 H   0  0  0  0  0  0
  -15.5362  -30.2980   23.7650 H   0  0  0  0  0  0
  -15.8676  -28.0810   22.7065 H   0  0  0  0  0  0
  -24.5878  -30.7075   25.7750 H   0  0  0  0  0  0
  -24.8978  -32.2889   26.4894 H   0  0  0  0  0  0
  -25.8103  -30.8837   27.0166 H   0  0  0  0  0  0
  -26.2854  -29.6782   24.1100 H   0  0  0  0  0  0
  -27.4081  -29.7249   25.4499 H   0  0  0  0  0  0
  -27.8690  -30.4351   23.9202 H   0  0  0  0  0  0
  -27.2569  -33.3528   26.2178 H   0  0  0  0  0  0
  -28.3804  -32.6983   25.0333 H   0  0  0  0  0  0
  -28.0717  -31.8365   26.5333 H   0  0  0  0  0  0
  -28.2591  -38.0116   24.7474 H   0  0  0  0  0  0
  -28.1096  -36.2642   24.6328 H   0  0  0  0  0  0
  -27.2298  -37.1508   25.8854 H   0  0  0  0  0  0
  -20.9252  -29.8786   21.6951 H   0  0  0  0  0  0
  -26.0209  -38.2864   24.1349 H   0  0  0  0  0  0
  -29.1383   -8.2492   26.6581 H   0  0  0  0  0  0
  -29.4247   -9.9779   26.7712 H   0  0  0  0  0  0
  -30.1064   -9.0507   25.4257 H   0  0  0  0  0  0
  -27.7081   -7.2754   25.0966 H   0  0  0  0  0  0
  -28.0928   -8.0090   23.5588 H   0  0  0  0  0  0
  -26.4828   -8.1624   24.2562 H   0  0  0  0  0  0
  -31.2647  -20.9209   20.1452 H   0  0  0  0  0  0
  -31.8908  -20.5083   18.5821 H   0  0  0  0  0  0
  -27.5850  -19.8287   24.0778 H   0  0  0  0  0  0
  -26.4199  -20.5271   25.1246 H   0  0  0  0  0  0
  -26.0525  -15.0513   22.9052 H   0  0  0  0  0  0
  -24.8803  -14.6237   24.0590 H   0  0  0  0  0  0
  -33.5475  -20.0626   20.3713 H   0  0  0  0  0  0
  -33.1911  -18.6412   19.4397 H   0  0  0  0  0  0
  -25.6948  -22.1044   23.7028 H   0  0  0  0  0  0
  -25.6908  -21.1058   22.2967 H   0  0  0  0  0  0
  -33.3363  -18.5090   22.1435 H   0  0  0  0  0  0
  -31.6887  -19.0484   22.0583 H   0  0  0  0  0  0
  -27.9114  -21.6398   21.6952 H   0  0  0  0  0  0
  -28.3821  -22.0889   23.3123 H   0  0  0  0  0  0
  -27.3148  -24.2116   23.1731 H   0  0  0  0  0  0
  -26.2777  -23.7547   21.8620 H   0  0  0  0  0  0
  -32.9743  -16.4911   21.1189 H   0  0  0  0  0  0
  -31.6017  -17.0477   20.1828 H   0  0  0  0  0  0
  -27.8882  -24.0446   20.2060 H   0  0  0  0  0  0
  -29.2395  -23.8807   21.2721 H   0  0  0  0  0  0
  -26.3178  -18.7847   21.0744 H   0  0  0  0  0  0
  -27.6531  -19.5089   21.9476 H   0  0  0  0  0  0
  -26.4921  -14.4398   25.8717 H   0  0  0  0  0  0
  -27.7927  -15.0406   24.8574 H   0  0  0  0  0  0
  -31.5653  -16.1372   23.0880 H   0  0  0  0  0  0
  -30.2829  -17.1198   22.4129 H   0  0  0  0  0  0
  -27.7319  -18.3108   19.4417 H   0  0  0  0  0  0
  -28.6073  -17.1760   20.4540 H   0  0  0  0  0  0
  -28.0736  -17.3580   23.1758 H   0  0  0  0  0  0
  -26.9678  -16.6084   22.0987 H   0  0  0  0  0  0
  -29.2946  -26.0678   21.8857 H   0  0  0  0  0  0
  -27.5731  -26.1892   22.0641 H   0  0  0  0  0  0
  -29.1616  -10.8787   24.1718 H   0  0  0  0  0  0
  -27.1572   -9.6102   25.9994 H   0  0  0  0  0  0
  -29.6907  -19.6141   21.1734 H   0  0  0  0  0  0
  -26.9382  -12.9272   23.4101 H   0  0  0  0  0  0
  -29.5077  -14.9969   22.0149 H   0  0  0  0  0  0
  -26.4165  -10.7053   23.2231 H   0  0  0  0  0  0
  -27.6172   -9.6989   22.7268 H   0  0  0  0  0  0
  -27.7246  -11.2916   22.4294 H   0  0  0  0  0  0
  1 25  1  0  0  0
  1 30  2  0  0  0
  1 97  1  0  0  0
  2  3  1  0  0  0
  2 25  1  0  0  0
  2104  1  0  0  0
  2105  1  0  0  0
  3  4  1  0  0  0
  3106  1  0  0  0
  3107  1  0  0  0
  4  5  1  0  0  0
  4108  1  0  0  0
  4109  1  0  0  0
  5  6  1  0  0  0
  5 26  1  0  0  0
  5110  1  0  0  0
  6 25  1  0  0  0
  6111  1  0  0  0
  6112  1  0  0  0
  7  8  2  0  0  0
  7 26  1  0  0  0
  7 29  1  0  0  0
  8  9  1  0  0  0
  8 22  1  0  0  0
  9 10  1  0  0  0
  9 27  2  0  0  0
 10 11  2  0  0  0
 10 15  1  0  0  0
 11 12  1  0  0  0
 11113  1  0  0  0
 12 13  2  0  0  0
 12114  1  0  0  0
 13 14  1  0  0  0
 13 31  1  0  0  0
 14 15  2  0  0  0
 14115  1  0  0  0
 15116  1  0  0  0
 16 17  2  0  0  0
 16 21  1  0  0  0
 16 31  1  0  0  0
 17 18  1  0  0  0
 17117  1  0  0  0
 18 19  2  0  0  0
 18118  1  0  0  0
 19 20  1  0  0  0
 19 24  1  0  0  0
 20 21  2  0  0  0
 20119  1  0  0  0
 21 23  1  0  0  0
 22 28  1  0  0  0
 22 32  2  0  0  0
 26 27  1  0  0  0
 28120  1  0  0  0
 28121  1  0  0  0
 29122  1  0  0  0
 29123  1  0  0  0
 33 34  1  0  0  0
 33 66  1  0  0  0
 33 70  2  0  0  0
 34 36  1  0  0  0
 34 59  1  0  0  0
 34124  1  0  0  0
 35 44  2  0  0  0
 35 45  1  0  0  0
 35 68  1  0  0  0
 36 56  1  0  0  0
 36125  1  0  0  0
 37 39  1  0  0  0
 37 47  1  0  0  0
 37 66  1  0  0  0
 37126  1  0  0  0
 38 43  2  0  0  0
 38 46  1  0  0  0
 38 47  1  0  0  0
 39 64  1  0  0  0
 39 67  2  0  0  0
 40 52  1  0  0  0
 40 53  2  0  0  0
 40 58  1  0  0  0
 41127  1  0  0  0
 41128  1  0  0  0
 41129  1  0  0  0
 41 48  1  0  0  0
 42 43  1  0  0  0
 42 66  1  0  0  0
 42130  1  0  0  0
 42131  1  0  0  0
 43 44  1  0  0  0
 44132  1  0  0  0
 45 46  2  0  0  0
 45133  1  0  0  0
 46134  1  0  0  0
 47135  1  0  0  0
 47136  1  0  0  0
 48 56  1  0  0  0
 48 65  1  0  0  0
 48137  1  0  0  0
 49 50  1  0  0  0
 49 53  1  0  0  0
 49 64  1  0  0  0
 49138  1  0  0  0
 50 51  1  0  0  0
 50139  1  0  0  0
 50140  1  0  0  0
 51 52  1  0  0  0
 51141  1  0  0  0
 51142  1  0  0  0
 52143  1  0  0  0
 52144  1  0  0  0
 53 54  1  0  0  0
 54 55  2  0  0  0
 54145  1  0  0  0
 55 57  1  0  0  0
 55146  1  0  0  0
 56 69  2  0  0  0
 57 58  2  0  0  0
 57147  1  0  0  0
 58148  1  0  0  0
 59 60  1  0  0  0
 59 61  1  0  0  0
 59 62  1  0  0  0
 60149  1  0  0  0
 60150  1  0  0  0
 60151  1  0  0  0
 61152  1  0  0  0
 61153  1  0  0  0
 61154  1  0  0  0
 62155  1  0  0  0
 62156  1  0  0  0
 62157  1  0  0  0
 63 65  1  0  0  0
 63158  1  0  0  0
 63159  1  0  0  0
 63160  1  0  0  0
 64161  1  0  0  0
 65162  1  0  0  0
 68 92  1  0  0  0
 71 77  1  0  0  0
 71 95  1  0  0  0
 71100  2  0  0  0
 72 78  1  0  0  0
 72 98  1  0  0  0
 72101  2  0  0  0
 73 79  1  0  0  0
 73 98  1  0  0  0
 73102  2  0  0  0
 74 93  1  0  0  0
 74 96  1  0  0  0
 74103  2  0  0  0
 75163  1  0  0  0
 75164  1  0  0  0
 75165  1  0  0  0
 75 94  1  0  0  0
 76 94  1  0  0  0
 76166  1  0  0  0
 76167  1  0  0  0
 76168  1  0  0  0
 77 80  1  0  0  0
 77169  1  0  0  0
 77170  1  0  0  0
 78 81  1  0  0  0
 78171  1  0  0  0
 78172  1  0  0  0
 79 88  1  0  0  0
 79173  1  0  0  0
 79174  1  0  0  0
 80 82  1  0  0  0
 80175  1  0  0  0
 80176  1  0  0  0
 81 83  1  0  0  0
 81177  1  0  0  0
 81178  1  0  0  0
 82 85  1  0  0  0
 82179  1  0  0  0
 82180  1  0  0  0
 83 84  1  0  0  0
 83181  1  0  0  0
 83182  1  0  0  0
 84 86  1  0  0  0
 84183  1  0  0  0
 84184  1  0  0  0
 85 89  1  0  0  0
 85185  1  0  0  0
 85186  1  0  0  0
 86 92  1  0  0  0
 86187  1  0  0  0
 86188  1  0  0  0
 87 90  1  0  0  0
 87 91  1  0  0  0
 87189  1  0  0  0
 87190  1  0  0  0
 88 96  1  0  0  0
 88191  1  0  0  0
 88192  1  0  0  0
 89 97  1  0  0  0
 89193  1  0  0  0
 89194  1  0  0  0
 90 95  1  0  0  0
 90195  1  0  0  0
 90196  1  0  0  0
 91 98  1  0  0  0
 91197  1  0  0  0
 91198  1  0  0  0
 92199  1  0  0  0
 92200  1  0  0  0
 93 94  1  0  0  0
 93 99  1  0  0  0
 93201  1  0  0  0
 94202  1  0  0  0
 95203  1  0  0  0
 96204  1  0  0  0
 97205  1  0  0  0
 99206  1  0  0  0
 99207  1  0  0  0
 99208  1  0  0  0
M  CHG  1  99   1
M  ISO  4   1 100  68 101  92 101  97 100
M  END
> <chiral flag>
0

> <version>
0

> <s_m_source_file>
/data/baiqing/PycharmProjects/Reinvent-master-3.2/result/LINK_invent/BTK/process_docking_weight1_custom_sum_contain_oxygen_bond_distance_aromatic_linkinvent_7_9_3/rearranged_h_0004.sdf

> <i_m_source_file_index>
5

> <r_mmod_Potential_Energy-OPLS-2005>
-222.535736083984

> <r_mmod_Stretch_Energy-OPLS-2005>
65.5251159667969

> <r_mmod_Bend_Energy-OPLS-2005>
149.518539428711

> <r_mmod_Torsional_Energy-OPLS-2005>
361.75830078125

> <r_mmod_Improper_Torsional_Energy-OPLS-2005>
4.74680042266846

> <r_mmod_Van_der_Waal_Energy-OPLS-2005>
139.763671875

> <r_mmod_Electrostatic_Energy-OPLS-2005>
-371.911193847656

> <r_mmod_Solvation_Energy-OPLS-2005>
-588.174682617188

> <b_mmod_Minimization_Converged-OPLS-2005>
0

> <r_mmod_RMS_Derivative-OPLS-2005>
12.3132562637329

$$$$
5
                    3D
 Structure written by MMmdl.
164172  0  0  1  0            999 V2000
  -30.7007  -14.5252   20.4100 C   0  0  0  0  0  0
  -30.4205  -12.2962   19.4542 C   0  0  0  0  0  0
  -29.5005  -12.4491   18.2267 C   0  0  0  0  0  0
  -28.0239  -12.3159   18.6476 C   0  0  0  0  0  0
  -27.6534  -13.2111   19.8604 C   0  0  2  0  0  0
  -28.7032  -13.0875   20.9913 C   0  0  0  0  0  0
  -25.2582  -13.8199   20.5736 C   0  0  0  0  0  0
  -24.1815  -13.0460   20.9210 C   0  0  0  0  0  0
  -24.6376  -11.6937   20.8751 C   0  0  0  0  0  0
  -23.9062  -10.4307   21.0398 C   0  0  0  0  0  0
  -24.3608   -9.4215   21.9176 C   0  0  0  0  0  0
  -23.6278   -8.2246   22.0760 C   0  0  0  0  0  0
  -22.4263   -8.0279   21.3549 C   0  0  0  0  0  0
  -21.9902   -9.0260   20.4652 C   0  0  0  0  0  0
  -22.7236  -10.2143   20.3049 C   0  0  0  0  0  0
  -21.6850   -6.0733   22.5288 C   0  0  0  0  0  0
  -21.3989   -6.5633   23.8216 C   0  0  0  0  0  0
  -21.3656   -5.6787   24.9187 C   0  0  0  0  0  0
  -21.6049   -4.3054   24.7233 C   0  0  0  0  0  0
  -21.8813   -3.8146   23.4354 C   0  0  0  0  0  0
  -21.9187   -4.6964   22.3408 C   0  0  0  0  0  0
  -22.7840  -13.5259   21.1857 C   0  0  0  0  0  0
  -22.1655   -4.2146   21.0987 F   0  0  0  0  0  0
  -21.5642   -3.4540   25.7749 F   0  0  0  0  0  0
  -30.0345  -13.3389   20.4155 N   0  0  0  0  0  0
  -26.2994  -12.9356   20.3352 N   0  0  0  0  0  0
  -25.9300  -11.6534   20.5799 N   0  0  0  0  0  0
  -22.0450  -12.8253   22.0401 N   0  0  0  0  0  0
  -25.4323  -15.1915   20.4226 N   0  0  0  0  0  0
  -31.8996  -14.6160   20.1413 O   0  0  0  0  0  0
  -21.6627   -6.8879   21.4247 O   0  0  0  0  0  0
  -22.3527  -14.5561   20.6706 O   0  0  0  0  0  0
  -24.6164  -31.8644   23.2075 C   0  0  0  0  0  0
  -25.9030  -32.4817   23.8382 C   0  0  1  0  0  0
  -27.2459  -27.4086   20.1040 C   0  0  0  0  0  0
  -25.5875  -33.8610   24.2314 N   0  0  0  0  0  0
  -23.4106  -30.4846   21.5469 C   0  0  2  0  0  0
  -24.8567  -28.9490   20.1117 C   0  0  0  0  0  0
  -22.7456  -29.4583   22.4951 C   0  0  0  0  0  0
  -18.0295  -28.1343   22.8490 C   0  0  0  0  0  0
  -24.1484  -36.7291   23.2658 C   0  0  0  0  0  0
  -25.9377  -30.8244   21.3604 C   0  0  0  0  0  0
  -26.0154  -29.4541   20.7132 C   0  0  0  0  0  0
  -27.2090  -28.6927   20.7024 C   0  0  0  0  0  0
  -26.0593  -26.9208   19.5010 C   0  0  0  0  0  0
  -24.8749  -27.6826   19.5039 C   0  0  0  0  0  0
  -23.6211  -29.8182   20.1601 C   0  0  0  0  0  0
  -25.4109  -36.3102   24.0356 C   0  0  1  0  0  0
  -20.5896  -28.3616   23.1322 C   0  0  2  0  0  0
  -20.6773  -26.9347   22.5416 C   0  0  0  0  0  0
  -19.5734  -26.6365   21.5213 C   0  0  0  0  0  0
  -18.1914  -26.7901   22.1621 C   0  0  0  0  0  0
  -19.1549  -28.8800   23.2912 C   0  0  0  0  0  0
  -18.9476  -30.1422   23.8909 C   0  0  0  0  0  0
  -17.6477  -30.6562   24.0541 C   0  0  0  0  0  0
  -25.9032  -34.9466   23.5141 C   0  0  0  0  0  0
  -16.5370  -29.9057   23.6305 C   0  0  0  0  0  0
  -16.7282  -28.6470   23.0327 C   0  0  0  0  0  0
  -26.4461  -31.6617   25.0724 C   0  0  0  0  0  0
  -25.3699  -31.3757   26.1458 C   0  0  0  0  0  0
  -27.0317  -30.3074   24.6090 C   0  0  0  0  0  0
  -27.6030  -32.4351   25.7508 C   0  0  0  0  0  0
  -27.5588  -37.1799   24.8484 C   0  0  0  0  0  0
  -21.4169  -29.2993   22.3719 N   0  0  0  0  0  0
  -26.4292  -37.3779   23.9439 N   0  0  0  0  0  0
  -24.6740  -31.0734   22.0981 N   0  0  0  0  0  0
  -23.4207  -28.8113   23.2995 O   0  0  0  0  0  0
  -28.4274  -26.6784   20.1332 O   0  0  0  0  0  0
  -26.5591  -34.8915   22.4699 O   0  0  0  0  0  0
  -23.5342  -32.1400   23.7449 O   0  0  0  0  0  0
  -31.3399  -18.8731   19.0092 C   0  0  0  0  0  0
  -29.7077  -18.6830   20.7962 C   0  0  0  0  0  0
  -31.4581  -20.2589   19.2510 C   0  0  0  0  0  0
  -29.8233  -20.0733   21.0354 C   0  0  0  0  0  0
  -30.4269  -18.0779   19.7446 C   0  0  0  0  0  0
  -30.6649  -20.8829   20.2354 C   0  0  0  0  0  0
  -27.6398  -17.7790   16.3679 C   0  0  0  0  0  0
  -28.9444  -17.6837   17.1593 C   0  0  0  0  0  0
  -28.8870  -16.6509   18.3128 C   0  0  0  0  0  0
  -29.6315  -24.4879   20.3556 C   0  0  0  0  0  0
  -29.4909  -22.9488   20.2049 C   0  0  0  0  0  0
  -28.3642  -25.2580   19.8937 C   0  0  0  0  0  0
  -30.1165  -16.6505   19.2612 C   0  0  2  0  0  0
  -27.1721  -18.9957   16.1132 N   0  0  0  0  0  0
  -29.9111  -15.6127   20.2998 N   0  0  0  0  0  0
  -27.0490  -16.7707   15.9877 O   0  0  0  0  0  0
  -30.7354  -22.2554   20.3795 O   0  0  0  0  0  0
  -31.4669  -12.3695   19.1541 H   0  0  0  0  0  0
  -30.3094  -11.3095   19.9032 H   0  0  0  0  0  0
  -29.7445  -11.6899   17.4824 H   0  0  0  0  0  0
  -29.6731  -13.4132   17.7461 H   0  0  0  0  0  0
  -27.8617  -11.2702   18.9106 H   0  0  0  0  0  0
  -27.3637  -12.5203   17.8047 H   0  0  0  0  0  0
  -27.6622  -14.2384   19.5001 H   0  0  0  0  0  0
  -28.6710  -12.0918   21.4334 H   0  0  0  0  0  0
  -28.4837  -13.7851   21.8013 H   0  0  0  0  0  0
  -25.2757   -9.5694   22.4753 H   0  0  0  0  0  0
  -23.9997   -7.4643   22.7480 H   0  0  0  0  0  0
  -21.0838   -8.8773   19.8950 H   0  0  0  0  0  0
  -22.3693  -10.9672   19.6151 H   0  0  0  0  0  0
  -21.1946   -7.6136   23.9723 H   0  0  0  0  0  0
  -21.1488   -6.0516   25.9092 H   0  0  0  0  0  0
  -22.0588   -2.7606   23.2860 H   0  0  0  0  0  0
  -22.4053  -11.9929   22.4817 H   0  0  0  0  0  0
  -21.1053  -13.1277   22.2541 H   0  0  0  0  0  0
  -24.6783  -15.8554   20.5658 H   0  0  0  0  0  0
  -26.2921  -15.6357   20.1298 H   0  0  0  0  0  0
  -26.7096  -32.5513   23.1137 H   0  0  0  0  0  0
  -24.9991  -33.9762   25.0441 H   0  0  0  0  0  0
  -22.6984  -31.2994   21.4069 H   0  0  0  0  0  0
  -23.3744  -35.9627   23.3319 H   0  0  0  0  0  0
  -24.3571  -36.8899   22.2074 H   0  0  0  0  0  0
  -23.7218  -37.6496   23.6649 H   0  0  0  0  0  0
  -26.0483  -31.5842   20.5852 H   0  0  0  0  0  0
  -26.8275  -30.8842   21.9757 H   0  0  0  0  0  0
  -28.1015  -29.0779   21.1751 H   0  0  0  0  0  0
  -26.0269  -25.9539   19.0213 H   0  0  0  0  0  0
  -23.9820  -27.2876   19.0385 H   0  0  0  0  0  0
  -23.7304  -30.5910   19.3985 H   0  0  0  0  0  0
  -22.7463  -29.2364   19.8674 H   0  0  0  0  0  0
  -25.1280  -36.1980   25.0844 H   0  0  0  0  0  0
  -21.0016  -28.3149   24.1431 H   0  0  0  0  0  0
  -20.5680  -26.2204   23.3585 H   0  0  0  0  0  0
  -21.6628  -26.7359   22.1203 H   0  0  0  0  0  0
  -19.6890  -25.6294   21.1187 H   0  0  0  0  0  0
  -19.6693  -27.3212   20.6767 H   0  0  0  0  0  0
  -17.4208  -26.6678   21.4007 H   0  0  0  0  0  0
  -18.0288  -26.0037   22.9011 H   0  0  0  0  0  0
  -19.7963  -30.7222   24.2284 H   0  0  0  0  0  0
  -17.5030  -31.6248   24.5122 H   0  0  0  0  0  0
  -15.5370  -30.2946   23.7633 H   0  0  0  0  0  0
  -15.8680  -28.0802   22.7018 H   0  0  0  0  0  0
  -24.5875  -30.7098   25.7799 H   0  0  0  0  0  0
  -24.8880  -32.2938   26.4824 H   0  0  0  0  0  0
  -25.8015  -30.8988   27.0258 H   0  0  0  0  0  0
  -26.2868  -29.6812   24.1173 H   0  0  0  0  0  0
  -27.4168  -29.7337   25.4532 H   0  0  0  0  0  0
  -27.8641  -30.4456   23.9185 H   0  0  0  0  0  0
  -27.2654  -33.3694   26.1994 H   0  0  0  0  0  0
  -28.3884  -32.6830   25.0360 H   0  0  0  0  0  0
  -28.0590  -31.8506   26.5499 H   0  0  0  0  0  0
  -28.2601  -38.0107   24.7512 H   0  0  0  0  0  0
  -28.1081  -36.2623   24.6315 H   0  0  0  0  0  0
  -27.2293  -37.1453   25.8887 H   0  0  0  0  0  0
  -20.9317  -29.8759   21.7001 H   0  0  0  0  0  0
  -26.0181  -38.2856   24.1443 H   0  0  0  0  0  0
  -31.8965  -18.4370   18.1910 H   0  0  0  0  0  0
  -29.0112  -18.0974   21.3786 H   0  0  0  0  0  0
  -32.1134  -20.8582   18.6308 H   0  0  0  0  0  0
  -29.2358  -20.5207   21.8229 H   0  0  0  0  0  0
  -29.1495  -18.6773   17.5532 H   0  0  0  0  0  0
  -29.7626  -17.4474   16.4773 H   0  0  0  0  0  0
  -28.7553  -15.6561   17.8842 H   0  0  0  0  0  0
  -27.9890  -16.8474   18.8995 H   0  0  0  0  0  0
  -30.4979  -24.8373   19.7923 H   0  0  0  0  0  0
  -29.8347  -24.7168   21.4016 H   0  0  0  0  0  0
  -29.1004  -22.7226   19.2122 H   0  0  0  0  0  0
  -28.7580  -22.5920   20.9276 H   0  0  0  0  0  0
  -28.2196  -25.0947   18.8251 H   0  0  0  0  0  0
  -27.5035  -24.8274   20.4126 H   0  0  0  0  0  0
  -30.9686  -16.3614   18.6406 H   0  0  0  0  0  0
  -27.6765  -19.8137   16.4278 H   0  0  0  0  0  0
  -26.3017  -19.1248   15.6160 H   0  0  0  0  0  0
  -28.9589  -15.4824   20.6007 H   0  0  0  0  0  0
  1 25  1  0  0  0
  1 30  2  0  0  0
  1 85  1  0  0  0
  2  3  1  0  0  0
  2 25  1  0  0  0
  2 88  1  0  0  0
  2 89  1  0  0  0
  3  4  1  0  0  0
  3 90  1  0  0  0
  3 91  1  0  0  0
  4  5  1  0  0  0
  4 92  1  0  0  0
  4 93  1  0  0  0
  5  6  1  0  0  0
  5 26  1  0  0  0
  5 94  1  0  0  0
  6 25  1  0  0  0
  6 95  1  0  0  0
  6 96  1  0  0  0
  7  8  2  0  0  0
  7 26  1  0  0  0
  7 29  1  0  0  0
  8  9  1  0  0  0
  8 22  1  0  0  0
  9 10  1  0  0  0
  9 27  2  0  0  0
 10 11  2  0  0  0
 10 15  1  0  0  0
 11 12  1  0  0  0
 11 97  1  0  0  0
 12 13  2  0  0  0
 12 98  1  0  0  0
 13 14  1  0  0  0
 13 31  1  0  0  0
 14 15  2  0  0  0
 14 99  1  0  0  0
 15100  1  0  0  0
 16 17  2  0  0  0
 16 21  1  0  0  0
 16 31  1  0  0  0
 17 18  1  0  0  0
 17101  1  0  0  0
 18 19  2  0  0  0
 18102  1  0  0  0
 19 20  1  0  0  0
 19 24  1  0  0  0
 20 21  2  0  0  0
 20103  1  0  0  0
 21 23  1  0  0  0
 22 28  1  0  0  0
 22 32  2  0  0  0
 26 27  1  0  0  0
 28104  1  0  0  0
 28105  1  0  0  0
 29106  1  0  0  0
 29107  1  0  0  0
 33 34  1  0  0  0
 33 66  1  0  0  0
 33 70  2  0  0  0
 34 36  1  0  0  0
 34 59  1  0  0  0
 34108  1  0  0  0
 35 44  2  0  0  0
 35 45  1  0  0  0
 35 68  1  0  0  0
 36 56  1  0  0  0
 36109  1  0  0  0
 37 39  1  0  0  0
 37 47  1  0  0  0
 37 66  1  0  0  0
 37110  1  0  0  0
 38 43  2  0  0  0
 38 46  1  0  0  0
 38 47  1  0  0  0
 39 64  1  0  0  0
 39 67  2  0  0  0
 40 52  1  0  0  0
 40 53  2  0  0  0
 40 58  1  0  0  0
 41111  1  0  0  0
 41112  1  0  0  0
 41113  1  0  0  0
 41 48  1  0  0  0
 42 43  1  0  0  0
 42 66  1  0  0  0
 42114  1  0  0  0
 42115  1  0  0  0
 43 44  1  0  0  0
 44116  1  0  0  0
 45 46  2  0  0  0
 45117  1  0  0  0
 46118  1  0  0  0
 47119  1  0  0  0
 47120  1  0  0  0
 48 56  1  0  0  0
 48 65  1  0  0  0
 48121  1  0  0  0
 49 50  1  0  0  0
 49 53  1  0  0  0
 49 64  1  0  0  0
 49122  1  0  0  0
 50 51  1  0  0  0
 50123  1  0  0  0
 50124  1  0  0  0
 51 52  1  0  0  0
 51125  1  0  0  0
 51126  1  0  0  0
 52127  1  0  0  0
 52128  1  0  0  0
 53 54  1  0  0  0
 54 55  2  0  0  0
 54129  1  0  0  0
 55 57  1  0  0  0
 55130  1  0  0  0
 56 69  2  0  0  0
 57 58  2  0  0  0
 57131  1  0  0  0
 58132  1  0  0  0
 59 60  1  0  0  0
 59 61  1  0  0  0
 59 62  1  0  0  0
 60133  1  0  0  0
 60134  1  0  0  0
 60135  1  0  0  0
 61136  1  0  0  0
 61137  1  0  0  0
 61138  1  0  0  0
 62139  1  0  0  0
 62140  1  0  0  0
 62141  1  0  0  0
 63 65  1  0  0  0
 63142  1  0  0  0
 63143  1  0  0  0
 63144  1  0  0  0
 64145  1  0  0  0
 65146  1  0  0  0
 68 82  1  0  0  0
 71 73  2  0  0  0
 71 75  1  0  0  0
 71147  1  0  0  0
 72 74  1  0  0  0
 72 75  2  0  0  0
 72148  1  0  0  0
 73 76  1  0  0  0
 73149  1  0  0  0
 74 76  2  0  0  0
 74150  1  0  0  0
 75 83  1  0  0  0
 76 87  1  0  0  0
 77 78  1  0  0  0
 77 84  1  0  0  0
 77 86  2  0  0  0
 78 79  1  0  0  0
 78151  1  0  0  0
 78152  1  0  0  0
 79153  1  0  0  0
 79154  1  0  0  0
 79 83  1  0  0  0
 80 81  1  0  0  0
 80 82  1  0  0  0
 80155  1  0  0  0
 80156  1  0  0  0
 81 87  1  0  0  0
 81157  1  0  0  0
 81158  1  0  0  0
 82159  1  0  0  0
 82160  1  0  0  0
 83 85  1  0  0  0
 83161  1  0  0  0
 84162  1  0  0  0
 84163  1  0  0  0
 85164  1  0  0  0
M  ISO  4   1 100  68 101  82 101  85 100
M  END
> <chiral flag>
0

> <version>
0

> <s_m_source_file>
/data/baiqing/PycharmProjects/Reinvent-master-3.2/result/LINK_invent/BTK/process_docking_weight1_custom_sum_contain_oxygen_bond_distance_aromatic_linkinvent_7_9_3/rearranged_h_0004.sdf

> <i_m_source_file_index>
6

> <r_mmod_Potential_Energy-OPLS-2005>
-232.059631347656

> <r_mmod_Stretch_Energy-OPLS-2005>
41.8922653198242

> <r_mmod_Bend_Energy-OPLS-2005>
99.5889129638672

> <r_mmod_Torsional_Energy-OPLS-2005>
254.215637207031

> <r_mmod_Improper_Torsional_Energy-OPLS-2005>
14.5257940292358

> <r_mmod_Van_der_Waal_Energy-OPLS-2005>
146.147827148438

> <r_mmod_Electrostatic_Energy-OPLS-2005>
-559.98681640625

> <r_mmod_Solvation_Energy-OPLS-2005>
-256.836334228516

> <b_mmod_Minimization_Converged-OPLS-2005>
0

> <r_mmod_RMS_Derivative-OPLS-2005>
4.29671621322632

$$$$
6
                    3D
 Structure written by MMmdl.
168176  0  0  1  0            999 V2000
  -30.6320  -14.6279   20.4980 C   0  0  0  0  0  0
  -30.4327  -12.3814   19.4568 C   0  0  0  0  0  0
  -29.5053  -12.4982   18.2268 C   0  0  0  0  0  0
  -28.0278  -12.3388   18.6378 C   0  0  0  0  0  0
  -27.6508  -13.2152   19.8614 C   0  0  2  0  0  0
  -28.6936  -13.0759   20.9927 C   0  0  0  0  0  0
  -25.2535  -13.8147   20.5646 C   0  0  0  0  0  0
  -24.1808  -13.0426   20.9181 C   0  0  0  0  0  0
  -24.6375  -11.6903   20.8745 C   0  0  0  0  0  0
  -23.9043  -10.4290   21.0408 C   0  0  0  0  0  0
  -24.3605   -9.4203   21.9179 C   0  0  0  0  0  0
  -23.6296   -8.2230   22.0742 C   0  0  0  0  0  0
  -22.4273   -8.0268   21.3539 C   0  0  0  0  0  0
  -21.9902   -9.0235   20.4641 C   0  0  0  0  0  0
  -22.7219  -10.2123   20.3055 C   0  0  0  0  0  0
  -21.6845   -6.0724   22.5280 C   0  0  0  0  0  0
  -21.3999   -6.5630   23.8214 C   0  0  0  0  0  0
  -21.3668   -5.6784   24.9179 C   0  0  0  0  0  0
  -21.6053   -4.3047   24.7227 C   0  0  0  0  0  0
  -21.8815   -3.8137   23.4348 C   0  0  0  0  0  0
  -21.9190   -4.6954   22.3400 C   0  0  0  0  0  0
  -22.7835  -13.5228   21.1871 C   0  0  0  0  0  0
  -22.1662   -4.2142   21.0978 F   0  0  0  0  0  0
  -21.5651   -3.4528   25.7741 F   0  0  0  0  0  0
  -30.0113  -13.4085   20.4301 N   0  0  0  0  0  0
  -26.2971  -12.9340   20.3312 N   0  0  0  0  0  0
  -25.9308  -11.6499   20.5776 N   0  0  0  0  0  0
  -22.0482  -12.8216   22.0436 N   0  0  0  0  0  0
  -25.4224  -15.1851   20.3994 N   0  0  0  0  0  0
  -31.8000  -14.7656   20.1252 O   0  0  0  0  0  0
  -21.6638   -6.8865   21.4240 O   0  0  0  0  0  0
  -22.3525  -14.5534   20.6730 O   0  0  0  0  0  0
  -24.6245  -31.8618   23.2053 C   0  0  0  0  0  0
  -25.9088  -32.4800   23.8382 C   0  0  1  0  0  0
  -27.2210  -27.3381   20.1104 C   0  0  0  0  0  0
  -25.5914  -33.8603   24.2308 N   0  0  0  0  0  0
  -23.4178  -30.4875   21.5478 C   0  0  2  0  0  0
  -24.8625  -28.9486   20.1143 C   0  0  0  0  0  0
  -22.7466  -29.4634   22.4941 C   0  0  0  0  0  0
  -18.0296  -28.1377   22.8497 C   0  0  0  0  0  0
  -24.1499  -36.7302   23.2639 C   0  0  0  0  0  0
  -25.9590  -30.8013   21.3719 C   0  0  0  0  0  0
  -26.0330  -29.4308   20.7131 C   0  0  0  0  0  0
  -27.2180  -28.6392   20.6989 C   0  0  0  0  0  0
  -26.0233  -26.9058   19.4941 C   0  0  0  0  0  0
  -24.8578  -27.6901   19.4986 C   0  0  0  0  0  0
  -23.6312  -29.8270   20.1622 C   0  0  0  0  0  0
  -25.4117  -36.3094   24.0339 C   0  0  1  0  0  0
  -20.5898  -28.3667   23.1297 C   0  0  2  0  0  0
  -20.6775  -26.9381   22.5424 C   0  0  0  0  0  0
  -19.5753  -26.6376   21.5221 C   0  0  0  0  0  0
  -18.1931  -26.7932   22.1616 C   0  0  0  0  0  0
  -19.1547  -28.8837   23.2901 C   0  0  0  0  0  0
  -18.9465  -30.1445   23.8903 C   0  0  0  0  0  0
  -17.6459  -30.6576   24.0566 C   0  0  0  0  0  0
  -25.9046  -34.9463   23.5118 C   0  0  0  0  0  0
  -16.5353  -29.9071   23.6324 C   0  0  0  0  0  0
  -16.7280  -28.6493   23.0342 C   0  0  0  0  0  0
  -26.4473  -31.6600   25.0740 C   0  0  0  0  0  0
  -25.3714  -31.3745   26.1480 C   0  0  0  0  0  0
  -27.0283  -30.3025   24.6146 C   0  0  0  0  0  0
  -27.6066  -32.4308   25.7476 C   0  0  0  0  0  0
  -27.5596  -37.1787   24.8451 C   0  0  0  0  0  0
  -21.4183  -29.3036   22.3694 N   0  0  0  0  0  0
  -26.4299  -37.3779   23.9413 N   0  0  0  0  0  0
  -24.6862  -31.0656   22.0984 N   0  0  0  0  0  0
  -23.4201  -28.8167   23.3008 O   0  0  0  0  0  0
  -28.3464  -26.5028   20.1389 O   0  0  0  0  0  0
  -26.5608  -34.8920   22.4682 O   0  0  0  0  0  0
  -23.5411  -32.1401   23.7384 O   0  0  0  0  0  0
  -31.2541  -19.1923   20.1173 C   0  0  0  0  0  0
  -31.1774  -17.7815   20.2583 C   0  0  0  0  0  0
  -28.9670  -19.4156   20.8027 C   0  0  0  0  0  0
  -30.1521  -20.0681   20.3685 C   0  0  0  0  0  0
  -29.9891  -17.1386   20.6771 C   0  0  0  0  0  0
  -28.8788  -17.9871   20.9602 C   0  0  0  0  0  0
  -32.1272  -22.8552   20.7107 C   0  0  0  0  0  0
  -33.0425  -23.7646   20.3302 C   0  0  0  0  0  0
  -31.4088  -22.0628   19.7256 C   0  0  0  0  0  0
  -33.4244  -26.1151   21.1524 C   0  0  0  0  0  0
  -26.6070  -18.1468   21.7358 C   0  0  0  0  0  0
  -33.8216  -24.6408   21.2871 C   0  0  0  0  0  0
  -29.3519  -24.0891   20.2592 C   0  0  0  0  0  0
  -29.0979  -22.5023   20.3790 C   0  0  0  0  0  0
  -28.1074  -25.0458   20.1501 C   0  0  0  0  0  0
  -29.8346  -15.6911   20.8319 N   0  0  0  0  0  0
  -30.2615  -21.5407   20.2183 N   0  0  0  0  0  0
  -31.7704  -21.8886   18.5565 O   0  0  0  0  0  0
  -27.7327  -17.3486   21.3883 O   0  0  0  0  0  0
  -31.4752  -12.4977   19.1560 H   0  0  0  0  0  0
  -30.3616  -11.3873   19.9010 H   0  0  0  0  0  0
  -29.7713  -11.7452   17.4834 H   0  0  0  0  0  0
  -29.6485  -13.4675   17.7464 H   0  0  0  0  0  0
  -27.8655  -11.2872   18.8763 H   0  0  0  0  0  0
  -27.3724  -12.5626   17.7956 H   0  0  0  0  0  0
  -27.6690  -14.2484   19.5143 H   0  0  0  0  0  0
  -28.6998  -12.0580   21.3855 H   0  0  0  0  0  0
  -28.4381  -13.7186   21.8363 H   0  0  0  0  0  0
  -25.2750   -9.5685   22.4755 H   0  0  0  0  0  0
  -24.0015   -7.4612   22.7441 H   0  0  0  0  0  0
  -21.0840   -8.8740   19.8943 H   0  0  0  0  0  0
  -22.3665  -10.9660   19.6167 H   0  0  0  0  0  0
  -21.1967   -7.6136   23.9715 H   0  0  0  0  0  0
  -21.1510   -6.0514   25.9087 H   0  0  0  0  0  0
  -22.0588   -2.7599   23.2841 H   0  0  0  0  0  0
  -22.4100  -11.9876   22.4821 H   0  0  0  0  0  0
  -21.1099  -13.1244   22.2654 H   0  0  0  0  0  0
  -24.6508  -15.8351   20.4982 H   0  0  0  0  0  0
  -26.2837  -15.6317   20.1125 H   0  0  0  0  0  0
  -26.7164  -32.5474   23.1140 H   0  0  0  0  0  0
  -25.0057  -33.9767   25.0447 H   0  0  0  0  0  0
  -22.7113  -31.3085   21.4074 H   0  0  0  0  0  0
  -23.3776  -35.9617   23.3275 H   0  0  0  0  0  0
  -24.3612  -36.8938   22.2060 H   0  0  0  0  0  0
  -23.7238  -37.6496   23.6666 H   0  0  0  0  0  0
  -26.0920  -31.5674   20.6067 H   0  0  0  0  0  0
  -26.8398  -30.8464   22.0002 H   0  0  0  0  0  0
  -28.1185  -29.0095   21.1681 H   0  0  0  0  0  0
  -25.9492  -25.9514   18.9983 H   0  0  0  0  0  0
  -23.9592  -27.3149   19.0288 H   0  0  0  0  0  0
  -23.7500  -30.6048   19.4075 H   0  0  0  0  0  0
  -22.7523  -29.2552   19.8600 H   0  0  0  0  0  0
  -25.1299  -36.1943   25.0833 H   0  0  0  0  0  0
  -21.0016  -28.3225   24.1406 H   0  0  0  0  0  0
  -20.5655  -26.2259   23.3618 H   0  0  0  0  0  0
  -21.6644  -26.7385   22.1221 H   0  0  0  0  0  0
  -19.6890  -25.6286   21.1243 H   0  0  0  0  0  0
  -19.6714  -27.3196   20.6762 H   0  0  0  0  0  0
  -17.4210  -26.6717   21.4005 H   0  0  0  0  0  0
  -18.0290  -26.0073   22.8998 H   0  0  0  0  0  0
  -19.7936  -30.7277   24.2263 H   0  0  0  0  0  0
  -17.5003  -31.6255   24.5166 H   0  0  0  0  0  0
  -15.5348  -30.2963   23.7652 H   0  0  0  0  0  0
  -15.8686  -28.0819   22.7024 H   0  0  0  0  0  0
  -24.5916  -30.7040   25.7845 H   0  0  0  0  0  0
  -24.8866  -32.2909   26.4854 H   0  0  0  0  0  0
  -25.8059  -30.8992   27.0282 H   0  0  0  0  0  0
  -26.2821  -29.6813   24.1173 H   0  0  0  0  0  0
  -27.4009  -29.7237   25.4610 H   0  0  0  0  0  0
  -27.8691  -30.4345   23.9333 H   0  0  0  0  0  0
  -27.2715  -33.3606   26.2080 H   0  0  0  0  0  0
  -28.3839  -32.6861   25.0262 H   0  0  0  0  0  0
  -28.0769  -31.8408   26.5350 H   0  0  0  0  0  0
  -28.2590  -38.0105   24.7529 H   0  0  0  0  0  0
  -28.1113  -36.2643   24.6224 H   0  0  0  0  0  0
  -27.2324  -37.1370   25.8853 H   0  0  0  0  0  0
  -20.9318  -29.8795   21.6964 H   0  0  0  0  0  0
  -26.0187  -38.2850   24.1439 H   0  0  0  0  0  0
  -32.2101  -19.5804   19.7978 H   0  0  0  0  0  0
  -32.0627  -17.2056   20.0364 H   0  0  0  0  0  0
  -28.1142  -20.0375   21.0251 H   0  0  0  0  0  0
  -31.9124  -22.7114   21.7594 H   0  0  0  0  0  0
  -33.2500  -23.9115   19.2782 H   0  0  0  0  0  0
  -33.9797  -26.7332   21.8583 H   0  0  0  0  0  0
  -32.3614  -26.2568   21.3549 H   0  0  0  0  0  0
  -33.6270  -26.4916   20.1485 H   0  0  0  0  0  0
  -26.2208  -18.6829   20.8675 H   0  0  0  0  0  0
  -26.8449  -18.8619   22.5250 H   0  0  0  0  0  0
  -25.8080  -17.5085   22.1101 H   0  0  0  0  0  0
  -34.8862  -24.5177   21.0823 H   0  0  0  0  0  0
  -33.6600  -24.3062   22.3132 H   0  0  0  0  0  0
  -29.9554  -24.2977   19.3755 H   0  0  0  0  0  0
  -29.9421  -24.4175   21.1150 H   0  0  0  0  0  0
  -28.3562  -22.2201   19.6313 H   0  0  0  0  0  0
  -28.6343  -22.3084   21.3467 H   0  0  0  0  0  0
  -27.4260  -24.8227   20.9719 H   0  0  0  0  0  0
  -27.6051  -24.7474   19.2314 H   0  0  0  0  0  0
  -28.9094  -15.4191   21.1285 H   0  0  0  0  0  0
  1 25  1  0  0  0
  1 30  2  0  0  0
  1 86  1  0  0  0
  2  3  1  0  0  0
  2 25  1  0  0  0
  2 90  1  0  0  0
  2 91  1  0  0  0
  3  4  1  0  0  0
  3 92  1  0  0  0
  3 93  1  0  0  0
  4  5  1  0  0  0
  4 94  1  0  0  0
  4 95  1  0  0  0
  5  6  1  0  0  0
  5 26  1  0  0  0
  5 96  1  0  0  0
  6 25  1  0  0  0
  6 97  1  0  0  0
  6 98  1  0  0  0
  7  8  2  0  0  0
  7 26  1  0  0  0
  7 29  1  0  0  0
  8  9  1  0  0  0
  8 22  1  0  0  0
  9 10  1  0  0  0
  9 27  2  0  0  0
 10 11  2  0  0  0
 10 15  1  0  0  0
 11 12  1  0  0  0
 11 99  1  0  0  0
 12 13  2  0  0  0
 12100  1  0  0  0
 13 14  1  0  0  0
 13 31  1  0  0  0
 14 15  2  0  0  0
 14101  1  0  0  0
 15102  1  0  0  0
 16 17  2  0  0  0
 16 21  1  0  0  0
 16 31  1  0  0  0
 17 18  1  0  0  0
 17103  1  0  0  0
 18 19  2  0  0  0
 18104  1  0  0  0
 19 20  1  0  0  0
 19 24  1  0  0  0
 20 21  2  0  0  0
 20105  1  0  0  0
 21 23  1  0  0  0
 22 28  1  0  0  0
 22 32  2  0  0  0
 26 27  1  0  0  0
 28106  1  0  0  0
 28107  1  0  0  0
 29108  1  0  0  0
 29109  1  0  0  0
 33 34  1  0  0  0
 33 66  1  0  0  0
 33 70  2  0  0  0
 34 36  1  0  0  0
 34 59  1  0  0  0
 34110  1  0  0  0
 35 44  2  0  0  0
 35 45  1  0  0  0
 35 68  1  0  0  0
 36 56  1  0  0  0
 36111  1  0  0  0
 37 39  1  0  0  0
 37 47  1  0  0  0
 37 66  1  0  0  0
 37112  1  0  0  0
 38 43  2  0  0  0
 38 46  1  0  0  0
 38 47  1  0  0  0
 39 64  1  0  0  0
 39 67  2  0  0  0
 40 52  1  0  0  0
 40 53  2  0  0  0
 40 58  1  0  0  0
 41113  1  0  0  0
 41114  1  0  0  0
 41115  1  0  0  0
 41 48  1  0  0  0
 42 43  1  0  0  0
 42 66  1  0  0  0
 42116  1  0  0  0
 42117  1  0  0  0
 43 44  1  0  0  0
 44118  1  0  0  0
 45 46  2  0  0  0
 45119  1  0  0  0
 46120  1  0  0  0
 47121  1  0  0  0
 47122  1  0  0  0
 48 56  1  0  0  0
 48 65  1  0  0  0
 48123  1  0  0  0
 49 50  1  0  0  0
 49 53  1  0  0  0
 49 64  1  0  0  0
 49124  1  0  0  0
 50 51  1  0  0  0
 50125  1  0  0  0
 50126  1  0  0  0
 51 52  1  0  0  0
 51127  1  0  0  0
 51128  1  0  0  0
 52129  1  0  0  0
 52130  1  0  0  0
 53 54  1  0  0  0
 54 55  2  0  0  0
 54131  1  0  0  0
 55 57  1  0  0  0
 55132  1  0  0  0
 56 69  2  0  0  0
 57 58  2  0  0  0
 57133  1  0  0  0
 58134  1  0  0  0
 59 60  1  0  0  0
 59 61  1  0  0  0
 59 62  1  0  0  0
 60135  1  0  0  0
 60136  1  0  0  0
 60137  1  0  0  0
 61138  1  0  0  0
 61139  1  0  0  0
 61140  1  0  0  0
 62141  1  0  0  0
 62142  1  0  0  0
 62143  1  0  0  0
 63 65  1  0  0  0
 63144  1  0  0  0
 63145  1  0  0  0
 63146  1  0  0  0
 64147  1  0  0  0
 65148  1  0  0  0
 68 85  1  0  0  0
 71 72  2  0  0  0
 71 74  1  0  0  0
 71149  1  0  0  0
 72 75  1  0  0  0
 72150  1  0  0  0
 73 74  2  0  0  0
 73 76  1  0  0  0
 73151  1  0  0  0
 74 87  1  0  0  0
 75 76  2  0  0  0
 75 86  1  0  0  0
 76 89  1  0  0  0
 77 78  2  0  0  0
 77 79  1  0  0  0
 77152  1  0  0  0
 78 82  1  0  0  0
 78153  1  0  0  0
 79 87  1  0  0  0
 79 88  2  0  0  0
 80 82  1  0  0  0
 80154  1  0  0  0
 80155  1  0  0  0
 80156  1  0  0  0
 81 89  1  0  0  0
 81157  1  0  0  0
 81158  1  0  0  0
 81159  1  0  0  0
 82160  1  0  0  0
 82161  1  0  0  0
 83 84  1  0  0  0
 83 85  1  0  0  0
 83162  1  0  0  0
 83163  1  0  0  0
 84 87  1  0  0  0
 84164  1  0  0  0
 84165  1  0  0  0
 85166  1  0  0  0
 85167  1  0  0  0
 86168  1  0  0  0
M  ISO  4   1 100  68 101  85 101  86 100
M  END
> <chiral flag>
0

> <version>
0

> <s_m_source_file>
/data/baiqing/PycharmProjects/Reinvent-master-3.2/result/LINK_invent/BTK/process_docking_weight1_custom_sum_contain_oxygen_bond_distance_aromatic_linkinvent_7_9_3/rearranged_h_0004.sdf

> <i_m_source_file_index>
7

> <r_mmod_Potential_Energy-OPLS-2005>
151.279556274414

> <r_mmod_Stretch_Energy-OPLS-2005>
86.3142318725586

> <r_mmod_Bend_Energy-OPLS-2005>
141.068908691406

> <r_mmod_Torsional_Energy-OPLS-2005>
296.845855712891

> <r_mmod_Improper_Torsional_Energy-OPLS-2005>
4.23914003372192

> <r_mmod_Van_der_Waal_Energy-OPLS-2005>
170.873519897461

> <r_mmod_Electrostatic_Energy-OPLS-2005>
-377.649963378906

> <r_mmod_Solvation_Energy-OPLS-2005>
-213.160537719727

> <b_mmod_Minimization_Converged-OPLS-2005>
0

> <r_mmod_RMS_Derivative-OPLS-2005>
1.7331577539444

$$$$
7
                    3D
 Structure written by MMmdl.
187195  0  0  1  0            999 V2000
  -30.5208  -14.9913   20.2692 C   0  0  0  0  0  0
  -30.4551  -12.5746   19.4835 C   0  0  0  0  0  0
  -29.5146  -12.2733   18.2859 C   0  0  0  0  0  0
  -28.0307  -12.2225   18.6985 C   0  0  0  0  0  0
  -27.6247  -13.2100   19.8264 C   0  0  2  0  0  0
  -28.6844  -13.3177   20.9338 C   0  0  0  0  0  0
  -25.2528  -13.8165   20.5791 C   0  0  0  0  0  0
  -24.1777  -13.0441   20.9259 C   0  0  0  0  0  0
  -24.6327  -11.6919   20.8823 C   0  0  0  0  0  0
  -23.9013  -10.4292   21.0443 C   0  0  0  0  0  0
  -24.3588   -9.4203   21.9193 C   0  0  0  0  0  0
  -23.6303   -8.2219   22.0732 C   0  0  0  0  0  0
  -22.4297   -8.0247   21.3519 C   0  0  0  0  0  0
  -21.9912   -9.0223   20.4629 C   0  0  0  0  0  0
  -22.7202  -10.2129   20.3073 C   0  0  0  0  0  0
  -21.6854   -6.0736   22.5280 C   0  0  0  0  0  0
  -21.4003   -6.5638   23.8209 C   0  0  0  0  0  0
  -21.3664   -5.6786   24.9158 C   0  0  0  0  0  0
  -21.6052   -4.3050   24.7211 C   0  0  0  0  0  0
  -21.8823   -3.8151   23.4329 C   0  0  0  0  0  0
  -21.9197   -4.6971   22.3390 C   0  0  0  0  0  0
  -22.7807  -13.5263   21.1873 C   0  0  0  0  0  0
  -22.1685   -4.2165   21.0969 F   0  0  0  0  0  0
  -21.5632   -3.4528   25.7720 F   0  0  0  0  0  0
  -29.9250  -13.7259   20.2636 N   0  0  0  0  0  0
  -26.2890  -12.9308   20.3358 N   0  0  0  0  0  0
  -25.9250  -11.6505   20.5918 N   0  0  0  0  0  0
  -22.0441  -12.8263   22.0411 N   0  0  0  0  0  0
  -25.4307  -15.1870   20.4215 N   0  0  0  0  0  0
  -31.7568  -15.0107   20.2845 O   0  0  0  0  0  0
  -21.6656   -6.8857   21.4232 O   0  0  0  0  0  0
  -22.3512  -14.5583   20.6717 O   0  0  0  0  0  0
  -24.6380  -31.8480   23.1927 C   0  0  0  0  0  0
  -25.9180  -32.4708   23.8292 C   0  0  1  0  0  0
  -27.2029  -27.1805   20.1439 C   0  0  0  0  0  0
  -25.5949  -33.8516   24.2205 N   0  0  0  0  0  0
  -23.4362  -30.4711   21.5386 C   0  0  2  0  0  0
  -24.8816  -28.9083   20.1054 C   0  0  0  0  0  0
  -22.7532  -29.4562   22.4886 C   0  0  0  0  0  0
  -18.0300  -28.1383   22.8477 C   0  0  0  0  0  0
  -24.1494  -36.7275   23.2635 C   0  0  0  0  0  0
  -25.9881  -30.7350   21.3838 C   0  0  0  0  0  0
  -26.0568  -29.3520   20.7239 C   0  0  0  0  0  0
  -27.2205  -28.5028   20.7276 C   0  0  0  0  0  0
  -26.0063  -26.8293   19.4797 C   0  0  0  0  0  0
  -24.8678  -27.6597   19.4665 C   0  0  0  0  0  0
  -23.6553  -29.8046   20.1546 C   0  0  0  0  0  0
  -25.4121  -36.3039   24.0306 C   0  0  1  0  0  0
  -20.5910  -28.3700   23.1253 C   0  0  2  0  0  0
  -20.6780  -26.9407   22.5409 C   0  0  0  0  0  0
  -19.5760  -26.6378   21.5205 C   0  0  0  0  0  0
  -18.1941  -26.7923   22.1614 C   0  0  0  0  0  0
  -19.1555  -28.8853   23.2858 C   0  0  0  0  0  0
  -18.9469  -30.1462   23.8875 C   0  0  0  0  0  0
  -17.6463  -30.6582   24.0556 C   0  0  0  0  0  0
  -25.9064  -34.9412   23.5058 C   0  0  0  0  0  0
  -16.5358  -29.9074   23.6335 C   0  0  0  0  0  0
  -16.7282  -28.6489   23.0355 C   0  0  0  0  0  0
  -26.4516  -31.6566   25.0717 C   0  0  0  0  0  0
  -25.3715  -31.3754   26.1421 C   0  0  0  0  0  0
  -27.0366  -30.2965   24.6266 C   0  0  0  0  0  0
  -27.6038  -32.4332   25.7509 C   0  0  0  0  0  0
  -27.5577  -37.1792   24.8453 C   0  0  0  0  0  0
  -21.4224  -29.3046   22.3632 N   0  0  0  0  0  0
  -26.4285  -37.3749   23.9401 N   0  0  0  0  0  0
  -24.7071  -31.0377   22.0937 N   0  0  0  0  0  0
  -23.4189  -28.8097   23.3007 O   0  0  0  0  0  0
  -28.2605  -26.2208   20.2332 O   0  0  0  0  0  0
  -26.5654  -34.8899   22.4640 O   0  0  0  0  0  0
  -23.5515  -32.1344   23.7176 O   0  0  0  0  0  0
  -29.5966  -18.3117   21.1786 C   0  0  0  0  0  0
  -29.5333  -19.7357   21.5797 C   0  0  0  0  0  0
  -27.7907  -20.2060   19.3906 C   0  0  0  0  0  0
  -29.5854  -18.5129   18.7831 C   0  0  0  0  0  0
  -27.8007  -21.5017   19.9894 C   0  0  0  0  0  0
  -29.6904  -17.6194   19.9077 C   0  0  0  0  0  0
  -28.9001  -19.7585   18.6093 C   0  0  0  0  0  0
  -29.8429  -21.0735   21.0238 C   0  0  0  0  0  0
  -29.0333  -23.6116   20.6027 C   0  0  0  0  0  0
  -29.2489  -15.7540   15.0906 C   0  0  0  0  0  0
  -26.7758  -15.5924   15.5708 C   0  0  0  0  0  0
  -31.1130  -22.0944   16.9234 C   0  0  0  0  0  0
  -30.7941  -19.8931   15.6850 C   0  0  0  0  0  0
  -28.1599  -21.1757   16.7326 C   0  0  0  0  0  0
  -31.3032  -21.4807   21.2197 C   0  0  0  0  0  0
  -27.9697  -24.7196   20.0562 C   0  0  0  0  0  0
  -28.3721  -16.0734   17.4745 C   0  0  0  0  0  0
  -29.7430  -15.7901   18.1668 C   0  0  0  0  0  0
  -31.6522  -21.9229   22.6525 C   0  0  0  0  0  0
  -28.1857  -15.3462   16.1272 C   0  0  0  0  0  0
  -30.6325  -20.6402   17.0204 C   0  0  0  0  0  0
  -28.9183  -22.0507   20.5439 N   0  0  0  0  0  0
  -29.8366  -16.0889   19.6309 N   0  0  0  0  0  0
  -29.2529  -20.5791   17.5058 N   0  0  0  0  0  0
  -30.0513  -24.0577   21.1291 O   0  0  0  0  0  0
  -31.5982  -20.9037   23.5124 F   0  0  0  0  0  0
  -31.4617  -12.7711   19.1132 H   0  0  0  0  0  0
  -30.5403  -11.7015   20.1324 H   0  0  0  0  0  0
  -29.7854  -11.2953   17.8841 H   0  0  0  0  0  0
  -29.6629  -12.9178   17.4287 H   0  0  0  0  0  0
  -27.8564  -11.2037   19.0476 H   0  0  0  0  0  0
  -27.3861  -12.3428   17.8272 H   0  0  0  0  0  0
  -27.5672  -14.1842   19.3633 H   0  0  0  0  0  0
  -28.8024  -12.3721   21.4666 H   0  0  0  0  0  0
  -28.3876  -14.0647   21.6730 H   0  0  0  0  0  0
  -25.2709   -9.5719   22.4796 H   0  0  0  0  0  0
  -24.0020   -7.4624   22.7462 H   0  0  0  0  0  0
  -21.0836   -8.8733   19.8944 H   0  0  0  0  0  0
  -22.3620  -10.9685   19.6217 H   0  0  0  0  0  0
  -21.1986   -7.6144   23.9720 H   0  0  0  0  0  0
  -21.1489   -6.0505   25.9066 H   0  0  0  0  0  0
  -22.0601   -2.7621   23.2820 H   0  0  0  0  0  0
  -22.4098  -11.9935   22.4799 H   0  0  0  0  0  0
  -21.1037  -13.1248   22.2616 H   0  0  0  0  0  0
  -24.6691  -15.8472   20.5314 H   0  0  0  0  0  0
  -26.2997  -15.6174   20.1328 H   0  0  0  0  0  0
  -26.7236  -32.5311   23.1012 H   0  0  0  0  0  0
  -25.0071  -33.9642   25.0334 H   0  0  0  0  0  0
  -22.7356  -31.2956   21.3906 H   0  0  0  0  0  0
  -23.3748  -35.9617   23.3273 H   0  0  0  0  0  0
  -24.3577  -36.8936   22.2055 H   0  0  0  0  0  0
  -23.7264  -37.6465   23.6695 H   0  0  0  0  0  0
  -26.1351  -31.4894   20.6098 H   0  0  0  0  0  0
  -26.8633  -30.7847   22.0200 H   0  0  0  0  0  0
  -28.1167  -28.8312   21.2353 H   0  0  0  0  0  0
  -25.9150  -25.8762   18.9802 H   0  0  0  0  0  0
  -23.9710  -27.3212   18.9675 H   0  0  0  0  0  0
  -23.7785  -30.5820   19.3994 H   0  0  0  0  0  0
  -22.7703  -29.2419   19.8509 H   0  0  0  0  0  0
  -25.1315  -36.1860   25.0799 H   0  0  0  0  0  0
  -20.9993  -28.3275   24.1373 H   0  0  0  0  0  0
  -20.5666  -26.2296   23.3621 H   0  0  0  0  0  0
  -21.6645  -26.7414   22.1199 H   0  0  0  0  0  0
  -19.6914  -25.6277   21.1257 H   0  0  0  0  0  0
  -19.6717  -27.3178   20.6728 H   0  0  0  0  0  0
  -17.4209  -26.6671   21.4020 H   0  0  0  0  0  0
  -18.0348  -26.0071   22.9014 H   0  0  0  0  0  0
  -19.7945  -30.7302   24.2217 H   0  0  0  0  0  0
  -17.5013  -31.6265   24.5163 H   0  0  0  0  0  0
  -15.5358  -30.2967   23.7681 H   0  0  0  0  0  0
  -15.8676  -28.0811   22.7081 H   0  0  0  0  0  0
  -24.5890  -30.7097   25.7751 H   0  0  0  0  0  0
  -24.8913  -32.2943   26.4799 H   0  0  0  0  0  0
  -25.8014  -30.8960   27.0227 H   0  0  0  0  0  0
  -26.2967  -29.6704   24.1261 H   0  0  0  0  0  0
  -27.3972  -29.7244   25.4824 H   0  0  0  0  0  0
  -27.8881  -30.4197   23.9569 H   0  0  0  0  0  0
  -27.2606  -33.3629   26.2062 H   0  0  0  0  0  0
  -28.3876  -32.6906   25.0370 H   0  0  0  0  0  0
  -28.0680  -31.8480   26.5459 H   0  0  0  0  0  0
  -28.2571  -38.0111   24.7504 H   0  0  0  0  0  0
  -28.1106  -36.2640   24.6276 H   0  0  0  0  0  0
  -27.2295  -37.1415   25.8856 H   0  0  0  0  0  0
  -20.9401  -29.8754   21.6836 H   0  0  0  0  0  0
  -26.0148  -38.2812   24.1420 H   0  0  0  0  0  0
  -29.5303  -17.6382   22.0218 H   0  0  0  0  0  0
  -29.4813  -19.7939   22.6566 H   0  0  0  0  0  0
  -26.9371  -19.5595   19.5336 H   0  0  0  0  0  0
  -30.1074  -18.2257   17.8913 H   0  0  0  0  0  0
  -26.8717  -22.0340   20.1392 H   0  0  0  0  0  0
  -29.1237  -15.2015   14.1588 H   0  0  0  0  0  0
  -30.2614  -15.5541   15.4424 H   0  0  0  0  0  0
  -29.1892  -16.8159   14.8495 H   0  0  0  0  0  0
  -26.6093  -15.0284   14.6511 H   0  0  0  0  0  0
  -26.6109  -16.6468   15.3473 H   0  0  0  0  0  0
  -26.0122  -15.2840   16.2880 H   0  0  0  0  0  0
  -32.1659  -22.1368   16.6435 H   0  0  0  0  0  0
  -31.0143  -22.6028   17.8825 H   0  0  0  0  0  0
  -30.5550  -22.6666   16.1827 H   0  0  0  0  0  0
  -31.8291  -19.9270   15.3444 H   0  0  0  0  0  0
  -30.1835  -20.3219   14.8904 H   0  0  0  0  0  0
  -30.5189  -18.8423   15.7764 H   0  0  0  0  0  0
  -27.3540  -20.4552   16.5778 H   0  0  0  0  0  0
  -28.4949  -21.5027   15.7466 H   0  0  0  0  0  0
  -27.7460  -22.0487   17.2394 H   0  0  0  0  0  0
  -31.5909  -22.2483   20.5031 H   0  0  0  0  0  0
  -31.9254  -20.6254   20.9593 H   0  0  0  0  0  0
  -27.0220  -24.4892   20.5432 H   0  0  0  0  0  0
  -27.8305  -24.5219   18.9919 H   0  0  0  0  0  0
  -28.2304  -17.1316   17.2670 H   0  0  0  0  0  0
  -27.5427  -15.8283   18.1334 H   0  0  0  0  0  0
  -30.5543  -16.2968   17.6463 H   0  0  0  0  0  0
  -30.0273  -14.7831   17.9316 H   0  0  0  0  0  0
  -30.9804  -22.6986   23.0175 H   0  0  0  0  0  0
  -32.6676  -22.3152   22.6931 H   0  0  0  0  0  0
  -28.2719  -14.2730   16.2957 H   0  0  0  0  0  0
  -31.2864  -20.1614   17.7510 H   0  0  0  0  0  0
  1 25  1  0  0  0
  1 30  2  0  0  0
  1 93  1  0  0  0
  2  3  1  0  0  0
  2 25  1  0  0  0
  2 97  1  0  0  0
  2 98  1  0  0  0
  3  4  1  0  0  0
  3 99  1  0  0  0
  3100  1  0  0  0
  4  5  1  0  0  0
  4101  1  0  0  0
  4102  1  0  0  0
  5  6  1  0  0  0
  5 26  1  0  0  0
  5103  1  0  0  0
  6 25  1  0  0  0
  6104  1  0  0  0
  6105  1  0  0  0
  7  8  2  0  0  0
  7 26  1  0  0  0
  7 29  1  0  0  0
  8  9  1  0  0  0
  8 22  1  0  0  0
  9 10  1  0  0  0
  9 27  2  0  0  0
 10 11  2  0  0  0
 10 15  1  0  0  0
 11 12  1  0  0  0
 11106  1  0  0  0
 12 13  2  0  0  0
 12107  1  0  0  0
 13 14  1  0  0  0
 13 31  1  0  0  0
 14 15  2  0  0  0
 14108  1  0  0  0
 15109  1  0  0  0
 16 17  2  0  0  0
 16 21  1  0  0  0
 16 31  1  0  0  0
 17 18  1  0  0  0
 17110  1  0  0  0
 18 19  2  0  0  0
 18111  1  0  0  0
 19 20  1  0  0  0
 19 24  1  0  0  0
 20 21  2  0  0  0
 20112  1  0  0  0
 21 23  1  0  0  0
 22 28  1  0  0  0
 22 32  2  0  0  0
 26 27  1  0  0  0
 28113  1  0  0  0
 28114  1  0  0  0
 29115  1  0  0  0
 29116  1  0  0  0
 33 34  1  0  0  0
 33 66  1  0  0  0
 33 70  2  0  0  0
 34 36  1  0  0  0
 34 59  1  0  0  0
 34117  1  0  0  0
 35 44  2  0  0  0
 35 45  1  0  0  0
 35 68  1  0  0  0
 36 56  1  0  0  0
 36118  1  0  0  0
 37 39  1  0  0  0
 37 47  1  0  0  0
 37 66  1  0  0  0
 37119  1  0  0  0
 38 43  2  0  0  0
 38 46  1  0  0  0
 38 47  1  0  0  0
 39 64  1  0  0  0
 39 67  2  0  0  0
 40 52  1  0  0  0
 40 53  2  0  0  0
 40 58  1  0  0  0
 41120  1  0  0  0
 41121  1  0  0  0
 41122  1  0  0  0
 41 48  1  0  0  0
 42 43  1  0  0  0
 42 66  1  0  0  0
 42123  1  0  0  0
 42124  1  0  0  0
 43 44  1  0  0  0
 44125  1  0  0  0
 45 46  2  0  0  0
 45126  1  0  0  0
 46127  1  0  0  0
 47128  1  0  0  0
 47129  1  0  0  0
 48 56  1  0  0  0
 48 65  1  0  0  0
 48130  1  0  0  0
 49 50  1  0  0  0
 49 53  1  0  0  0
 49 64  1  0  0  0
 49131  1  0  0  0
 50 51  1  0  0  0
 50132  1  0  0  0
 50133  1  0  0  0
 51 52  1  0  0  0
 51134  1  0  0  0
 51135  1  0  0  0
 52136  1  0  0  0
 52137  1  0  0  0
 53 54  1  0  0  0
 54 55  2  0  0  0
 54138  1  0  0  0
 55 57  1  0  0  0
 55139  1  0  0  0
 56 69  2  0  0  0
 57 58  2  0  0  0
 57140  1  0  0  0
 58141  1  0  0  0
 59 60  1  0  0  0
 59 61  1  0  0  0
 59 62  1  0  0  0
 60142  1  0  0  0
 60143  1  0  0  0
 60144  1  0  0  0
 61145  1  0  0  0
 61146  1  0  0  0
 61147  1  0  0  0
 62148  1  0  0  0
 62149  1  0  0  0
 62150  1  0  0  0
 63 65  1  0  0  0
 63151  1  0  0  0
 63152  1  0  0  0
 63153  1  0  0  0
 64154  1  0  0  0
 65155  1  0  0  0
 68 86  1  0  0  0
 71 72  1  0  0  0
 71 76  2  0  0  0
 71156  1  0  0  0
 72 78  2  0  0  0
 72157  1  0  0  0
 73 75  2  0  0  0
 73 77  1  0  0  0
 73158  1  0  0  0
 74 76  1  0  0  0
 74 77  2  0  0  0
 74159  1  0  0  0
 75 92  1  0  0  0
 75160  1  0  0  0
 76 93  1  0  0  0
 77 94  1  0  0  0
 78 85  1  0  0  0
 78 92  1  0  0  0
 79 86  1  0  0  0
 79 92  1  0  0  0
 79 95  2  0  0  0
 80161  1  0  0  0
 80162  1  0  0  0
 80163  1  0  0  0
 80 90  1  0  0  0
 81 90  1  0  0  0
 81164  1  0  0  0
 81165  1  0  0  0
 81166  1  0  0  0
 82167  1  0  0  0
 82168  1  0  0  0
 82169  1  0  0  0
 82 91  1  0  0  0
 83 91  1  0  0  0
 83170  1  0  0  0
 83171  1  0  0  0
 83172  1  0  0  0
 84 94  1  0  0  0
 84173  1  0  0  0
 84174  1  0  0  0
 84175  1  0  0  0
 85 89  1  0  0  0
 85176  1  0  0  0
 85177  1  0  0  0
 86178  1  0  0  0
 86179  1  0  0  0
 87 88  1  0  0  0
 87 90  1  0  0  0
 87180  1  0  0  0
 87181  1  0  0  0
 88 93  1  0  0  0
 88182  1  0  0  0
 88183  1  0  0  0
 89 96  1  0  0  0
 89184  1  0  0  0
 89185  1  0  0  0
 90186  1  0  0  0
 91 94  1  0  0  0
 91187  1  0  0  0
M  ISO  4   1 100  68 101  86 101  93 100
M  END
> <chiral flag>
0

> <version>
0

> <s_m_source_file>
/data/baiqing/PycharmProjects/Reinvent-master-3.2/result/LINK_invent/BTK/process_docking_weight1_custom_sum_contain_oxygen_bond_distance_aromatic_linkinvent_7_9_3/rearranged_h_0004.sdf

> <i_m_source_file_index>
8

> <r_mmod_Potential_Energy-OPLS-2005>
1187.21569824219

> <r_mmod_Stretch_Energy-OPLS-2005>
248.072662353516

> <r_mmod_Bend_Energy-OPLS-2005>
331.737121582031

> <r_mmod_Torsional_Energy-OPLS-2005>
669.577941894531

> <r_mmod_Improper_Torsional_Energy-OPLS-2005>
28.2653007507324

> <r_mmod_Van_der_Waal_Energy-OPLS-2005>
190.080535888672

> <r_mmod_Electrostatic_Energy-OPLS-2005>
-287.354614257812

> <r_mmod_Solvation_Energy-OPLS-2005>
-209.244857788086

> <b_mmod_Minimization_Converged-OPLS-2005>
0

> <r_mmod_RMS_Derivative-OPLS-2005>
2.78631854057312

$$$$
8
                    3D
 Structure written by MMmdl.
164172  0  0  1  0            999 V2000
  -30.7681  -14.5000   20.3287 C   0  0  0  0  0  0
  -30.4092  -12.2522   19.4505 C   0  0  0  0  0  0
  -29.4847  -12.2328   18.2192 C   0  0  0  0  0  0
  -27.9906  -12.2614   18.6277 C   0  0  0  0  0  0
  -27.6290  -13.1786   19.8358 C   0  0  2  0  0  0
  -28.7035  -13.1497   20.9429 C   0  0  0  0  0  0
  -25.2550  -13.8066   20.5782 C   0  0  0  0  0  0
  -24.1778  -13.0394   20.9260 C   0  0  0  0  0  0
  -24.6296  -11.6853   20.8852 C   0  0  0  0  0  0
  -23.8972  -10.4264   21.0477 C   0  0  0  0  0  0
  -24.3554   -9.4177   21.9229 C   0  0  0  0  0  0
  -23.6256   -8.2205   22.0763 C   0  0  0  0  0  0
  -22.4244   -8.0255   21.3545 C   0  0  0  0  0  0
  -21.9870   -9.0222   20.4647 C   0  0  0  0  0  0
  -22.7175  -10.2115   20.3087 C   0  0  0  0  0  0
  -21.6838   -6.0715   22.5277 C   0  0  0  0  0  0
  -21.3998   -6.5626   23.8207 C   0  0  0  0  0  0
  -21.3658   -5.6783   24.9173 C   0  0  0  0  0  0
  -21.6053   -4.3045   24.7231 C   0  0  0  0  0  0
  -21.8820   -3.8132   23.4352 C   0  0  0  0  0  0
  -21.9190   -4.6947   22.3408 C   0  0  0  0  0  0
  -22.7817  -13.5239   21.1879 C   0  0  0  0  0  0
  -22.1670   -4.2137   21.0987 F   0  0  0  0  0  0
  -21.5635   -3.4531   25.7744 F   0  0  0  0  0  0
  -30.0051  -13.3749   20.3041 N   0  0  0  0  0  0
  -26.2899  -12.9143   20.3408 N   0  0  0  0  0  0
  -25.9212  -11.6359   20.5944 N   0  0  0  0  0  0
  -22.0427  -12.8242   22.0411 N   0  0  0  0  0  0
  -25.4341  -15.1790   20.4204 N   0  0  0  0  0  0
  -31.9923  -14.4265   20.3806 O   0  0  0  0  0  0
  -21.6618   -6.8850   21.4232 O   0  0  0  0  0  0
  -22.3558  -14.5568   20.6726 O   0  0  0  0  0  0
  -24.6055  -31.8727   23.2147 C   0  0  0  0  0  0
  -25.8983  -32.4846   23.8421 C   0  0  1  0  0  0
  -27.2453  -27.5069   20.0882 C   0  0  0  0  0  0
  -25.5870  -33.8647   24.2354 N   0  0  0  0  0  0
  -23.3899  -30.4949   21.5530 C   0  0  2  0  0  0
  -24.8367  -28.9638   20.1169 C   0  0  0  0  0  0
  -22.7357  -29.4676   22.5026 C   0  0  0  0  0  0
  -18.0255  -28.1373   22.8499 C   0  0  0  0  0  0
  -24.1485  -36.7330   23.2637 C   0  0  0  0  0  0
  -25.9084  -30.8579   21.3573 C   0  0  0  0  0  0
  -25.9857  -29.4940   20.7142 C   0  0  0  0  0  0
  -27.1847  -28.7634   20.7124 C   0  0  0  0  0  0
  -26.0799  -26.9623   19.5000 C   0  0  0  0  0  0
  -24.8737  -27.6919   19.5139 C   0  0  0  0  0  0
  -23.5943  -29.8220   20.1674 C   0  0  0  0  0  0
  -25.4102  -36.3133   24.0345 C   0  0  1  0  0  0
  -20.5838  -28.3644   23.1344 C   0  0  2  0  0  0
  -20.6749  -26.9390   22.5423 C   0  0  0  0  0  0
  -19.5731  -26.6384   21.5214 C   0  0  0  0  0  0
  -18.1907  -26.7922   22.1623 C   0  0  0  0  0  0
  -19.1503  -28.8823   23.2921 C   0  0  0  0  0  0
  -18.9437  -30.1436   23.8922 C   0  0  0  0  0  0
  -17.6444  -30.6584   24.0565 C   0  0  0  0  0  0
  -25.9020  -34.9492   23.5148 C   0  0  0  0  0  0
  -16.5335  -29.9092   23.6325 C   0  0  0  0  0  0
  -16.7247  -28.6508   23.0344 C   0  0  0  0  0  0
  -26.4449  -31.6609   25.0722 C   0  0  0  0  0  0
  -25.3741  -31.3684   26.1486 C   0  0  0  0  0  0
  -27.0274  -30.3069   24.6037 C   0  0  0  0  0  0
  -27.6042  -32.4317   25.7471 C   0  0  0  0  0  0
  -27.5586  -37.1811   24.8460 C   0  0  0  0  0  0
  -21.4095  -29.3021   22.3759 N   0  0  0  0  0  0
  -26.4293  -37.3810   23.9415 N   0  0  0  0  0  0
  -24.6524  -31.0887   22.1013 N   0  0  0  0  0  0
  -23.4160  -28.8221   23.3045 O   0  0  0  0  0  0
  -28.4648  -26.8870   20.1071 O   0  0  0  0  0  0
  -26.5583  -34.8932   22.4707 O   0  0  0  0  0  0
  -23.5271  -32.1451   23.7592 O   0  0  0  0  0  0
  -32.4462  -19.3834   19.6678 C   0  0  0  0  0  0
  -30.5213  -18.1690   20.1561 C   0  0  0  0  0  0
  -30.0556  -16.5862   17.6198 C   0  0  0  0  0  0
  -31.4480  -16.7712   18.1942 C   0  0  0  0  0  0
  -29.3756  -15.7098   18.6759 C   0  0  0  0  0  0
  -31.1447  -16.8283   19.7033 C   0  0  2  0  0  0
  -29.8173  -22.2953   19.3402 C   0  0  0  0  0  0
  -29.7447  -23.7131   18.7889 C   0  0  0  0  0  0
  -30.6774  -21.4341   18.4240 C   0  0  0  0  0  0
  -28.8903  -24.6195   19.6603 C   0  0  0  0  0  0
  -30.3830  -19.9477   18.5822 C   0  0  0  0  0  0
  -28.8155  -26.0157   19.0579 C   0  0  0  0  0  0
  -33.5994  -19.4839   19.6374 N   0  0  0  0  0  0
  -30.2209  -15.6771   19.8964 N   0  0  0  0  0  0
  -31.0993  -19.2860   19.6791 N   0  0  0  0  0  0
  -29.4408  -18.1855   20.7554 O   0  0  0  0  0  0
  -31.4510  -12.3162   19.1295 H   0  0  0  0  0  0
  -30.3246  -11.3173   20.0064 H   0  0  0  0  0  0
  -29.6647  -11.3041   17.6752 H   0  0  0  0  0  0
  -29.7512  -12.9945   17.4918 H   0  0  0  0  0  0
  -27.7389  -11.2309   18.8804 H   0  0  0  0  0  0
  -27.3674  -12.5071   17.7668 H   0  0  0  0  0  0
  -27.5676  -14.1833   19.4506 H   0  0  0  0  0  0
  -28.7000  -12.1908   21.4633 H   0  0  0  0  0  0
  -28.5033  -13.9193   21.6902 H   0  0  0  0  0  0
  -25.2705   -9.5651   22.4796 H   0  0  0  0  0  0
  -23.9977   -7.4581   22.7453 H   0  0  0  0  0  0
  -21.0818   -8.8726   19.8937 H   0  0  0  0  0  0
  -22.3647  -10.9656   19.6194 H   0  0  0  0  0  0
  -21.1976   -7.6135   23.9704 H   0  0  0  0  0  0
  -21.1490   -6.0521   25.9079 H   0  0  0  0  0  0
  -22.0603   -2.7595   23.2856 H   0  0  0  0  0  0
  -22.4027  -11.9905   22.4812 H   0  0  0  0  0  0
  -21.1042  -13.1271   22.2592 H   0  0  0  0  0  0
  -24.6774  -15.8428   20.5443 H   0  0  0  0  0  0
  -26.3096  -15.6177   20.1630 H   0  0  0  0  0  0
  -26.7058  -32.5591   23.1200 H   0  0  0  0  0  0
  -25.0036  -33.9825   25.0511 H   0  0  0  0  0  0
  -22.6750  -31.3090   21.4155 H   0  0  0  0  0  0
  -23.3747  -35.9662   23.3303 H   0  0  0  0  0  0
  -24.3585  -36.8938   22.2050 H   0  0  0  0  0  0
  -23.7231  -37.6537   23.6643 H   0  0  0  0  0  0
  -26.0059  -31.6214   20.5845 H   0  0  0  0  0  0
  -26.8024  -30.9198   21.9657 H   0  0  0  0  0  0
  -28.0754  -29.1718   21.1695 H   0  0  0  0  0  0
  -26.0910  -25.9849   19.0396 H   0  0  0  0  0  0
  -23.9862  -27.2728   19.0602 H   0  0  0  0  0  0
  -23.6929  -30.5942   19.4034 H   0  0  0  0  0  0
  -22.7216  -29.2333   19.8783 H   0  0  0  0  0  0
  -25.1275  -36.2011   25.0838 H   0  0  0  0  0  0
  -20.9929  -28.3204   24.1464 H   0  0  0  0  0  0
  -20.5659  -26.2247   23.3598 H   0  0  0  0  0  0
  -21.6622  -26.7448   22.1212 H   0  0  0  0  0  0
  -19.6893  -25.6303   21.1225 H   0  0  0  0  0  0
  -19.6676  -27.3210   20.6758 H   0  0  0  0  0  0
  -17.4180  -26.6673   21.4022 H   0  0  0  0  0  0
  -18.0306  -26.0057   22.9010 H   0  0  0  0  0  0
  -19.7917  -30.7239   24.2302 H   0  0  0  0  0  0
  -17.5006  -31.6267   24.5160 H   0  0  0  0  0  0
  -15.5343  -30.3003   23.7636 H   0  0  0  0  0  0
  -15.8644  -28.0840   22.7044 H   0  0  0  0  0  0
  -24.5909  -30.7038   25.7825 H   0  0  0  0  0  0
  -24.8937  -32.2826   26.4979 H   0  0  0  0  0  0
  -25.8117  -30.8824   27.0213 H   0  0  0  0  0  0
  -26.2792  -29.6834   24.1124 H   0  0  0  0  0  0
  -27.4116  -29.7296   25.4458 H   0  0  0  0  0  0
  -27.8594  -30.4425   23.9120 H   0  0  0  0  0  0
  -27.2673  -33.3599   26.2101 H   0  0  0  0  0  0
  -28.3817  -32.6905   25.0272 H   0  0  0  0  0  0
  -28.0744  -31.8407   26.5339 H   0  0  0  0  0  0
  -28.2596  -38.0119   24.7538 H   0  0  0  0  0  0
  -28.1091  -36.2653   24.6249 H   0  0  0  0  0  0
  -27.2307  -37.1419   25.8863 H   0  0  0  0  0  0
  -20.9238  -29.8745   21.6996 H   0  0  0  0  0  0
  -26.0191  -38.2890   24.1429 H   0  0  0  0  0  0
  -30.0826  -16.1086   16.6390 H   0  0  0  0  0  0
  -29.5204  -17.5279   17.5048 H   0  0  0  0  0  0
  -31.9714  -17.6303   17.7786 H   0  0  0  0  0  0
  -32.0675  -15.9013   17.9695 H   0  0  0  0  0  0
  -28.4076  -16.1446   18.9283 H   0  0  0  0  0  0
  -29.1784  -14.7592   18.2223 H   0  0  0  0  0  0
  -32.0729  -16.7571   20.2733 H   0  0  0  0  0  0
  -28.8040  -21.8945   19.3998 H   0  0  0  0  0  0
  -30.2167  -22.2846   20.3552 H   0  0  0  0  0  0
  -29.3283  -23.6969   17.7801 H   0  0  0  0  0  0
  -30.7516  -24.1248   18.7027 H   0  0  0  0  0  0
  -31.7363  -21.6618   18.5531 H   0  0  0  0  0  0
  -30.4484  -21.6899   17.3879 H   0  0  0  0  0  0
  -29.3326  -24.6696   20.6567 H   0  0  0  0  0  0
  -27.8855  -24.2141   19.7838 H   0  0  0  0  0  0
  -30.6969  -19.4756   17.6517 H   0  0  0  0  0  0
  -29.3033  -19.7846   18.6367 H   0  0  0  0  0  0
  -28.1622  -26.0560   18.1854 H   0  0  0  0  0  0
  -29.8011  -26.3290   18.7118 H   0  0  0  0  0  0
  1 25  1  0  0  0
  1 30  2  0  0  0
  1 84  1  0  0  0
  2  3  1  0  0  0
  2 25  1  0  0  0
  2 87  1  0  0  0
  2 88  1  0  0  0
  3  4  1  0  0  0
  3 89  1  0  0  0
  3 90  1  0  0  0
  4  5  1  0  0  0
  4 91  1  0  0  0
  4 92  1  0  0  0
  5  6  1  0  0  0
  5 26  1  0  0  0
  5 93  1  0  0  0
  6 25  1  0  0  0
  6 94  1  0  0  0
  6 95  1  0  0  0
  7  8  2  0  0  0
  7 26  1  0  0  0
  7 29  1  0  0  0
  8  9  1  0  0  0
  8 22  1  0  0  0
  9 10  1  0  0  0
  9 27  2  0  0  0
 10 11  2  0  0  0
 10 15  1  0  0  0
 11 12  1  0  0  0
 11 96  1  0  0  0
 12 13  2  0  0  0
 12 97  1  0  0  0
 13 14  1  0  0  0
 13 31  1  0  0  0
 14 15  2  0  0  0
 14 98  1  0  0  0
 15 99  1  0  0  0
 16 17  2  0  0  0
 16 21  1  0  0  0
 16 31  1  0  0  0
 17 18  1  0  0  0
 17100  1  0  0  0
 18 19  2  0  0  0
 18101  1  0  0  0
 19 20  1  0  0  0
 19 24  1  0  0  0
 20 21  2  0  0  0
 20102  1  0  0  0
 21 23  1  0  0  0
 22 28  1  0  0  0
 22 32  2  0  0  0
 26 27  1  0  0  0
 28103  1  0  0  0
 28104  1  0  0  0
 29105  1  0  0  0
 29106  1  0  0  0
 33 34  1  0  0  0
 33 66  1  0  0  0
 33 70  2  0  0  0
 34 36  1  0  0  0
 34 59  1  0  0  0
 34107  1  0  0  0
 35 44  2  0  0  0
 35 45  1  0  0  0
 35 68  1  0  0  0
 36 56  1  0  0  0
 36108  1  0  0  0
 37 39  1  0  0  0
 37 47  1  0  0  0
 37 66  1  0  0  0
 37109  1  0  0  0
 38 43  2  0  0  0
 38 46  1  0  0  0
 38 47  1  0  0  0
 39 64  1  0  0  0
 39 67  2  0  0  0
 40 52  1  0  0  0
 40 53  2  0  0  0
 40 58  1  0  0  0
 41110  1  0  0  0
 41111  1  0  0  0
 41112  1  0  0  0
 41 48  1  0  0  0
 42 43  1  0  0  0
 42 66  1  0  0  0
 42113  1  0  0  0
 42114  1  0  0  0
 43 44  1  0  0  0
 44115  1  0  0  0
 45 46  2  0  0  0
 45116  1  0  0  0
 46117  1  0  0  0
 47118  1  0  0  0
 47119  1  0  0  0
 48 56  1  0  0  0
 48 65  1  0  0  0
 48120  1  0  0  0
 49 50  1  0  0  0
 49 53  1  0  0  0
 49 64  1  0  0  0
 49121  1  0  0  0
 50 51  1  0  0  0
 50122  1  0  0  0
 50123  1  0  0  0
 51 52  1  0  0  0
 51124  1  0  0  0
 51125  1  0  0  0
 52126  1  0  0  0
 52127  1  0  0  0
 53 54  1  0  0  0
 54 55  2  0  0  0
 54128  1  0  0  0
 55 57  1  0  0  0
 55129  1  0  0  0
 56 69  2  0  0  0
 57 58  2  0  0  0
 57130  1  0  0  0
 58131  1  0  0  0
 59 60  1  0  0  0
 59 61  1  0  0  0
 59 62  1  0  0  0
 60132  1  0  0  0
 60133  1  0  0  0
 60134  1  0  0  0
 61135  1  0  0  0
 61136  1  0  0  0
 61137  1  0  0  0
 62138  1  0  0  0
 62139  1  0  0  0
 62140  1  0  0  0
 63 65  1  0  0  0
 63141  1  0  0  0
 63142  1  0  0  0
 63143  1  0  0  0
 64144  1  0  0  0
 65145  1  0  0  0
 68 82  1  0  0  0
 71 83  3  0  0  0
 71 85  1  0  0  0
 72 85  1  0  0  0
 72 86  2  0  0  0
 72 76  1  0  0  0
 73 74  1  0  0  0
 73 75  1  0  0  0
 73146  1  0  0  0
 73147  1  0  0  0
 74 76  1  0  0  0
 74148  1  0  0  0
 74149  1  0  0  0
 75 84  1  0  0  0
 75150  1  0  0  0
 75151  1  0  0  0
 76 84  1  0  0  0
 76152  1  0  0  0
 77 78  1  0  0  0
 77 79  1  0  0  0
 77153  1  0  0  0
 77154  1  0  0  0
 78 80  1  0  0  0
 78155  1  0  0  0
 78156  1  0  0  0
 79 81  1  0  0  0
 79157  1  0  0  0
 79158  1  0  0  0
 80 82  1  0  0  0
 80159  1  0  0  0
 80160  1  0  0  0
 81 85  1  0  0  0
 81161  1  0  0  0
 81162  1  0  0  0
 82163  1  0  0  0
 82164  1  0  0  0
M  ISO  4   1 100  68 101  82 101  84 100
M  END
> <chiral flag>
0

> <version>
0

> <s_m_source_file>
/data/baiqing/PycharmProjects/Reinvent-master-3.2/result/LINK_invent/BTK/process_docking_weight1_custom_sum_contain_oxygen_bond_distance_aromatic_linkinvent_7_9_3/rearranged_h_0004.sdf

> <i_m_source_file_index>
9

> <r_mmod_Potential_Energy-OPLS-2005>
317.295288085938

> <r_mmod_Stretch_Energy-OPLS-2005>
36.5399742126465

> <r_mmod_Bend_Energy-OPLS-2005>
158.679901123047

> <r_mmod_Torsional_Energy-OPLS-2005>
402.132568359375

> <r_mmod_Improper_Torsional_Energy-OPLS-2005>
21.1474475860596

> <r_mmod_Van_der_Waal_Energy-OPLS-2005>
171.103256225586

> <r_mmod_Electrostatic_Energy-OPLS-2005>
-339.030517578125

> <r_mmod_Solvation_Energy-OPLS-2005>
-198.132385253906

> <b_mmod_Minimization_Converged-OPLS-2005>
0

> <r_mmod_RMS_Derivative-OPLS-2005>
1.31228137016296

$$$$
9
                    3D
 Structure written by MMmdl.
205213  0  0  1  0            999 V2000
  -30.7522  -14.4135   20.6356 C   0  0  0  0  0  0
  -30.4182  -12.3053   19.3877 C   0  0  0  0  0  0
  -29.4777  -12.5031   18.1843 C   0  0  0  0  0  0
  -28.0036  -12.3392   18.6028 C   0  0  0  0  0  0
  -27.6526  -13.1732   19.8605 C   0  0  2  0  0  0
  -28.7039  -12.9612   20.9778 C   0  0  0  0  0  0
  -25.2600  -13.8052   20.5663 C   0  0  0  0  0  0
  -24.1829  -13.0385   20.9177 C   0  0  0  0  0  0
  -24.6342  -11.6848   20.8743 C   0  0  0  0  0  0
  -23.9015  -10.4270   21.0403 C   0  0  0  0  0  0
  -24.3597   -9.4198   21.9180 C   0  0  0  0  0  0
  -23.6301   -8.2231   22.0755 C   0  0  0  0  0  0
  -22.4281   -8.0265   21.3544 C   0  0  0  0  0  0
  -21.9906   -9.0227   20.4652 C   0  0  0  0  0  0
  -22.7208  -10.2120   20.3053 C   0  0  0  0  0  0
  -21.6832   -6.0739   22.5287 C   0  0  0  0  0  0
  -21.3992   -6.5638   23.8225 C   0  0  0  0  0  0
  -21.3649   -5.6792   24.9187 C   0  0  0  0  0  0
  -21.6042   -4.3053   24.7221 C   0  0  0  0  0  0
  -21.8817   -3.8156   23.4346 C   0  0  0  0  0  0
  -21.9186   -4.6980   22.3408 C   0  0  0  0  0  0
  -22.7866  -13.5219   21.1822 C   0  0  0  0  0  0
  -22.1639   -4.2169   21.0981 F   0  0  0  0  0  0
  -21.5657   -3.4524   25.7726 F   0  0  0  0  0  0
  -30.0348  -13.2728   20.4270 N   0  0  0  0  0  0
  -26.2981  -12.9140   20.3325 N   0  0  0  0  0  0
  -25.9248  -11.6353   20.5779 N   0  0  0  0  0  0
  -22.0497  -12.8251   22.0395 N   0  0  0  0  0  0
  -25.4339  -15.1762   20.4038 N   0  0  0  0  0  0
  -31.8584  -14.6116   20.1254 O   0  0  0  0  0  0
  -21.6640   -6.8874   21.4247 O   0  0  0  0  0  0
  -22.3591  -14.5545   20.6678 O   0  0  0  0  0  0
  -24.6100  -31.8702   23.2146 C   0  0  0  0  0  0
  -25.9000  -32.4831   23.8443 C   0  0  1  0  0  0
  -27.2212  -27.4686   20.1054 C   0  0  0  0  0  0
  -25.5857  -33.8635   24.2347 N   0  0  0  0  0  0
  -23.3966  -30.4952   21.5526 C   0  0  2  0  0  0
  -24.8433  -28.9732   20.1074 C   0  0  0  0  0  0
  -22.7398  -29.4659   22.4987 C   0  0  0  0  0  0
  -18.0266  -28.1347   22.8467 C   0  0  0  0  0  0
  -24.1497  -36.7319   23.2641 C   0  0  0  0  0  0
  -25.9228  -30.8483   21.3650 C   0  0  0  0  0  0
  -25.9964  -29.4865   20.7139 C   0  0  0  0  0  0
  -27.1916  -28.7380   20.7190 C   0  0  0  0  0  0
  -26.0679  -26.9756   19.4637 C   0  0  0  0  0  0
  -24.8713  -27.7150   19.4778 C   0  0  0  0  0  0
  -23.6030  -29.8351   20.1627 C   0  0  0  0  0  0
  -25.4109  -36.3121   24.0344 C   0  0  1  0  0  0
  -20.5851  -28.3635   23.1323 C   0  0  2  0  0  0
  -20.6786  -26.9403   22.5354 C   0  0  0  0  0  0
  -19.5773  -26.6352   21.5173 C   0  0  0  0  0  0
  -18.1931  -26.7922   22.1538 C   0  0  0  0  0  0
  -19.1506  -28.8797   23.2912 C   0  0  0  0  0  0
  -18.9424  -30.1403   23.8932 C   0  0  0  0  0  0
  -17.6420  -30.6539   24.0589 C   0  0  0  0  0  0
  -25.9007  -34.9485   23.5140 C   0  0  0  0  0  0
  -16.5322  -29.9038   23.6323 C   0  0  0  0  0  0
  -16.7253  -28.6468   23.0319 C   0  0  0  0  0  0
  -26.4457  -31.6590   25.0754 C   0  0  0  0  0  0
  -25.3728  -31.3657   26.1502 C   0  0  0  0  0  0
  -27.0265  -30.3046   24.6053 C   0  0  0  0  0  0
  -27.6048  -32.4318   25.7485 C   0  0  0  0  0  0
  -27.5582  -37.1817   24.8465 C   0  0  0  0  0  0
  -21.4111  -29.3049   22.3787 N   0  0  0  0  0  0
  -26.4300  -37.3810   23.9397 N   0  0  0  0  0  0
  -24.6610  -31.0864   22.1011 N   0  0  0  0  0  0
  -23.4196  -28.8146   23.2966 O   0  0  0  0  0  0
  -28.3442  -26.6876   20.1330 O   0  0  0  0  0  0
  -26.5600  -34.8952   22.4723 O   0  0  0  0  0  0
  -23.5303  -32.1425   23.7542 O   0  0  0  0  0  0
  -20.7028  -24.0187   24.9584 C   0  0  0  0  0  0
  -22.0929  -23.9169   24.7612 C   0  0  0  0  0  0
  -19.8755  -22.8935   24.7956 C   0  0  0  0  0  0
  -21.8377  -21.5313   24.3293 C   0  0  0  0  0  0
  -22.6727  -22.6693   24.4375 C   0  0  0  0  0  0
  -20.4316  -21.6390   24.4678 C   0  0  0  0  0  0
  -25.7747  -23.6850   22.7070 C   0  0  0  0  0  0
  -17.4029  -18.5870   23.0393 C   0  0  0  0  0  0
  -30.9922  -15.8395   22.6027 C   0  0  0  0  0  0
  -23.4239  -20.5454   19.0232 C   0  0  0  0  0  0
  -24.1834  -22.5271   24.2464 C   0  0  0  0  0  0
  -19.4979  -20.4359   24.2836 C   0  0  0  0  0  0
  -26.4487  -25.0176   22.3379 C   0  0  0  0  0  0
  -27.8781  -24.8485   21.7508 C   0  0  0  0  0  0
  -28.3214  -18.3959   20.0785 C   0  0  0  0  0  0
  -27.0179  -18.5940   20.8676 C   0  0  0  0  0  0
  -29.4144  -17.6531   20.8748 C   0  0  0  0  0  0
  -25.8330  -19.0588   20.0044 C   0  0  0  0  0  0
  -20.8326  -19.8018   20.7657 C   0  0  0  0  0  0
  -29.0861  -16.1560   21.0372 C   0  0  0  0  0  0
  -18.9304  -18.3707   22.9942 C   0  0  0  0  0  0
  -24.6297  -19.4278   20.8937 C   0  0  0  0  0  0
  -22.2991  -20.0799   21.1704 C   0  0  0  0  0  0
  -19.7998  -20.3736   21.7722 C   0  0  0  0  0  0
  -28.6432  -26.1580   21.4297 C   0  0  0  0  0  0
  -24.8534  -23.7038   23.6819 N   0  0  0  0  0  0
  -30.2067  -15.3135   21.4857 N   0  0  0  0  0  0
  -23.3302  -19.6356   20.1924 N   0  3  1  0  0  0
  -19.7512  -19.6169   23.0612 N   0  3  1  0  0  0
  -26.0920  -22.6476   22.1216 O   0  0  0  0  0  0
  -31.4577  -12.4134   19.0727 H   0  0  0  0  0  0
  -30.3349  -11.2876   19.7721 H   0  0  0  0  0  0
  -29.7231  -11.7872   17.4004 H   0  0  0  0  0  0
  -29.6320  -13.4922   17.7514 H   0  0  0  0  0  0
  -27.8240  -11.2812   18.7973 H   0  0  0  0  0  0
  -27.3458  -12.6094   17.7750 H   0  0  0  0  0  0
  -27.6657  -14.2029   19.5274 H   0  0  0  0  0  0
  -28.6881  -11.9213   21.3088 H   0  0  0  0  0  0
  -28.4565  -13.5416   21.8667 H   0  0  0  0  0  0
  -25.2726   -9.5695   22.4765 H   0  0  0  0  0  0
  -24.0011   -7.4610   22.7461 H   0  0  0  0  0  0
  -21.0848   -8.8722   19.8949 H   0  0  0  0  0  0
  -22.3633  -10.9666   19.6184 H   0  0  0  0  0  0
  -21.1960   -7.6139   23.9733 H   0  0  0  0  0  0
  -21.1472   -6.0517   25.9092 H   0  0  0  0  0  0
  -22.0617   -2.7627   23.2833 H   0  0  0  0  0  0
  -22.4059  -11.9887   22.4759 H   0  0  0  0  0  0
  -21.1101  -13.1285   22.2530 H   0  0  0  0  0  0
  -24.6598  -15.8179   20.5097 H   0  0  0  0  0  0
  -26.2825  -15.6181   20.0738 H   0  0  0  0  0  0
  -26.7069  -32.5539   23.1215 H   0  0  0  0  0  0
  -25.0071  -33.9845   25.0524 H   0  0  0  0  0  0
  -22.6835  -31.3101   21.4168 H   0  0  0  0  0  0
  -23.3773  -35.9638   23.3326 H   0  0  0  0  0  0
  -24.3600  -36.8915   22.2052 H   0  0  0  0  0  0
  -23.7257  -37.6535   23.6641 H   0  0  0  0  0  0
  -26.0404  -31.6164   20.5991 H   0  0  0  0  0  0
  -26.8112  -30.8939   21.9847 H   0  0  0  0  0  0
  -28.0807  -29.1289   21.1964 H   0  0  0  0  0  0
  -26.0920  -26.0021   18.9953 H   0  0  0  0  0  0
  -23.9830  -27.3165   19.0040 H   0  0  0  0  0  0
  -23.7038  -30.6149   19.4060 H   0  0  0  0  0  0
  -22.7296  -29.2505   19.8696 H   0  0  0  0  0  0
  -25.1306  -36.1997   25.0843 H   0  0  0  0  0  0
  -20.9928  -28.3132   24.1450 H   0  0  0  0  0  0
  -20.5646  -26.2295   23.3506 H   0  0  0  0  0  0
  -21.6679  -26.7438   22.1191 H   0  0  0  0  0  0
  -19.6959  -25.6249   21.1244 H   0  0  0  0  0  0
  -19.6734  -27.3142   20.6695 H   0  0  0  0  0  0
  -17.4253  -26.6747   21.3877 H   0  0  0  0  0  0
  -18.0250  -26.0022   22.8862 H   0  0  0  0  0  0
  -19.7895  -30.7214   24.2342 H   0  0  0  0  0  0
  -17.4957  -31.6216   24.5205 H   0  0  0  0  0  0
  -15.5320  -30.2924   23.7666 H   0  0  0  0  0  0
  -15.8655  -28.0811   22.6992 H   0  0  0  0  0  0
  -24.5918  -30.6985   25.7835 H   0  0  0  0  0  0
  -24.8909  -32.2805   26.4967 H   0  0  0  0  0  0
  -25.8111  -30.8816   27.0243 H   0  0  0  0  0  0
  -26.2779  -29.6816   24.1144 H   0  0  0  0  0  0
  -27.4142  -29.7263   25.4452 H   0  0  0  0  0  0
  -27.8582  -30.4427   23.9135 H   0  0  0  0  0  0
  -27.2670  -33.3618   26.2079 H   0  0  0  0  0  0
  -28.3828  -32.6862   25.0266 H   0  0  0  0  0  0
  -28.0742  -31.8419   26.5371 H   0  0  0  0  0  0
  -28.2619  -38.0103   24.7538 H   0  0  0  0  0  0
  -28.1079  -36.2647   24.6276 H   0  0  0  0  0  0
  -27.2310  -37.1464   25.8877 H   0  0  0  0  0  0
  -20.9224  -29.8840   21.7093 H   0  0  0  0  0  0
  -26.0191  -38.2894   24.1400 H   0  0  0  0  0  0
  -20.2638  -24.9692   25.2291 H   0  0  0  0  0  0
  -22.7077  -24.7972   24.8806 H   0  0  0  0  0  0
  -18.8082  -22.9994   24.9392 H   0  0  0  0  0  0
  -22.2852  -20.5688   24.1316 H   0  0  0  0  0  0
  -16.8827  -17.6454   22.8594 H   0  0  0  0  0  0
  -17.0542  -19.2915   22.2860 H   0  0  0  0  0  0
  -17.0723  -18.9432   24.0143 H   0  0  0  0  0  0
  -30.3415  -16.2529   23.3752 H   0  0  0  0  0  0
  -31.6718  -16.6238   22.2677 H   0  0  0  0  0  0
  -31.5927  -15.0537   23.0649 H   0  0  0  0  0  0
  -24.0682  -20.1320   18.2484 H   0  0  0  0  0  0
  -23.8202  -21.5203   19.3091 H   0  0  0  0  0  0
  -22.4516  -20.7039   18.5575 H   0  0  0  0  0  0
  -24.3688  -21.6466   23.6311 H   0  0  0  0  0  0
  -24.6325  -22.3167   25.2195 H   0  0  0  0  0  0
  -18.4691  -20.7988   24.2622 H   0  0  0  0  0  0
  -19.5769  -19.8039   25.1691 H   0  0  0  0  0  0
  -26.5008  -25.6412   23.2312 H   0  0  0  0  0  0
  -25.7942  -25.5329   21.6373 H   0  0  0  0  0  0
  -27.8567  -24.2174   20.8607 H   0  0  0  0  0  0
  -28.4685  -24.3027   22.4888 H   0  0  0  0  0  0
  -28.7001  -19.3728   19.7748 H   0  0  0  0  0  0
  -28.1173  -17.8602   19.1506 H   0  0  0  0  0  0
  -27.1988  -19.3177   21.6624 H   0  0  0  0  0  0
  -26.7337  -17.6682   21.3670 H   0  0  0  0  0  0
  -29.5580  -18.1256   21.8474 H   0  0  0  0  0  0
  -30.3595  -17.7543   20.3411 H   0  0  0  0  0  0
  -25.5616  -18.2658   19.3062 H   0  0  0  0  0  0
  -26.1338  -19.9213   19.4076 H   0  0  0  0  0  0
  -20.6767  -18.7326   20.6227 H   0  0  0  0  0  0
  -20.6276  -20.2558   19.7979 H   0  0  0  0  0  0
  -28.7721  -15.8297   20.0491 H   0  0  0  0  0  0
  -28.2368  -16.0032   21.7045 H   0  0  0  0  0  0
  -19.1808  -17.8154   22.0895 H   0  0  0  0  0  0
  -19.2161  -17.7177   23.8209 H   0  0  0  0  0  0
  -24.8802  -20.3280   21.4571 H   0  0  0  0  0  0
  -24.4885  -18.6349   21.6304 H   0  0  0  0  0  0
  -22.4756  -19.5529   22.1071 H   0  0  0  0  0  0
  -22.4444  -21.1396   21.3863 H   0  0  0  0  0  0
  -18.8094  -20.3865   21.3177 H   0  0  0  0  0  0
  -20.0359  -21.4247   21.9347 H   0  0  0  0  0  0
  -29.7134  -25.9482   21.4353 H   0  0  0  0  0  0
  -28.4910  -26.8943   22.2204 H   0  0  0  0  0  0
  -24.6501  -24.5947   24.1151 H   0  0  0  0  0  0
  -23.0447  -18.7328   19.8388 H   0  0  0  0  0  0
  -20.6847  -19.2731   23.2115 H   0  0  0  0  0  0
  1 25  1  0  0  0
  1 30  2  0  0  0
  1 97  1  0  0  0
  2  3  1  0  0  0
  2 25  1  0  0  0
  2101  1  0  0  0
  2102  1  0  0  0
  3  4  1  0  0  0
  3103  1  0  0  0
  3104  1  0  0  0
  4  5  1  0  0  0
  4105  1  0  0  0
  4106  1  0  0  0
  5  6  1  0  0  0
  5 26  1  0  0  0
  5107  1  0  0  0
  6 25  1  0  0  0
  6108  1  0  0  0
  6109  1  0  0  0
  7  8  2  0  0  0
  7 26  1  0  0  0
  7 29  1  0  0  0
  8  9  1  0  0  0
  8 22  1  0  0  0
  9 10  1  0  0  0
  9 27  2  0  0  0
 10 11  2  0  0  0
 10 15  1  0  0  0
 11 12  1  0  0  0
 11110  1  0  0  0
 12 13  2  0  0  0
 12111  1  0  0  0
 13 14  1  0  0  0
 13 31  1  0  0  0
 14 15  2  0  0  0
 14112  1  0  0  0
 15113  1  0  0  0
 16 17  2  0  0  0
 16 21  1  0  0  0
 16 31  1  0  0  0
 17 18  1  0  0  0
 17114  1  0  0  0
 18 19  2  0  0  0
 18115  1  0  0  0
 19 20  1  0  0  0
 19 24  1  0  0  0
 20 21  2  0  0  0
 20116  1  0  0  0
 21 23  1  0  0  0
 22 28  1  0  0  0
 22 32  2  0  0  0
 26 27  1  0  0  0
 28117  1  0  0  0
 28118  1  0  0  0
 29119  1  0  0  0
 29120  1  0  0  0
 33 34  1  0  0  0
 33 66  1  0  0  0
 33 70  2  0  0  0
 34 36  1  0  0  0
 34 59  1  0  0  0
 34121  1  0  0  0
 35 44  2  0  0  0
 35 45  1  0  0  0
 35 68  1  0  0  0
 36 56  1  0  0  0
 36122  1  0  0  0
 37 39  1  0  0  0
 37 47  1  0  0  0
 37 66  1  0  0  0
 37123  1  0  0  0
 38 43  2  0  0  0
 38 46  1  0  0  0
 38 47  1  0  0  0
 39 64  1  0  0  0
 39 67  2  0  0  0
 40 52  1  0  0  0
 40 53  2  0  0  0
 40 58  1  0  0  0
 41124  1  0  0  0
 41125  1  0  0  0
 41126  1  0  0  0
 41 48  1  0  0  0
 42 43  1  0  0  0
 42 66  1  0  0  0
 42127  1  0  0  0
 42128  1  0  0  0
 43 44  1  0  0  0
 44129  1  0  0  0
 45 46  2  0  0  0
 45130  1  0  0  0
 46131  1  0  0  0
 47132  1  0  0  0
 47133  1  0  0  0
 48 56  1  0  0  0
 48 65  1  0  0  0
 48134  1  0  0  0
 49 50  1  0  0  0
 49 53  1  0  0  0
 49 64  1  0  0  0
 49135  1  0  0  0
 50 51  1  0  0  0
 50136  1  0  0  0
 50137  1  0  0  0
 51 52  1  0  0  0
 51138  1  0  0  0
 51139  1  0  0  0
 52140  1  0  0  0
 52141  1  0  0  0
 53 54  1  0  0  0
 54 55  2  0  0  0
 54142  1  0  0  0
 55 57  1  0  0  0
 55143  1  0  0  0
 56 69  2  0  0  0
 57 58  2  0  0  0
 57144  1  0  0  0
 58145  1  0  0  0
 59 60  1  0  0  0
 59 61  1  0  0  0
 59 62  1  0  0  0
 60146  1  0  0  0
 60147  1  0  0  0
 60148  1  0  0  0
 61149  1  0  0  0
 61150  1  0  0  0
 61151  1  0  0  0
 62152  1  0  0  0
 62153  1  0  0  0
 62154  1  0  0  0
 63 65  1  0  0  0
 63155  1  0  0  0
 63156  1  0  0  0
 63157  1  0  0  0
 64158  1  0  0  0
 65159  1  0  0  0
 68 95  1  0  0  0
 71 72  2  0  0  0
 71 73  1  0  0  0
 71160  1  0  0  0
 72 75  1  0  0  0
 72161  1  0  0  0
 73 76  2  0  0  0
 73162  1  0  0  0
 74 75  2  0  0  0
 74 76  1  0  0  0
 74163  1  0  0  0
 75 81  1  0  0  0
 76 82  1  0  0  0
 77 83  1  0  0  0
 77 96  1  0  0  0
 77100  2  0  0  0
 78 91  1  0  0  0
 78164  1  0  0  0
 78165  1  0  0  0
 78166  1  0  0  0
 79 97  1  0  0  0
 79167  1  0  0  0
 79168  1  0  0  0
 79169  1  0  0  0
 80170  1  0  0  0
 80171  1  0  0  0
 80172  1  0  0  0
 80 98  1  0  0  0
 81 96  1  0  0  0
 81173  1  0  0  0
 81174  1  0  0  0
 82175  1  0  0  0
 82176  1  0  0  0
 82 99  1  0  0  0
 83 84  1  0  0  0
 83177  1  0  0  0
 83178  1  0  0  0
 84 95  1  0  0  0
 84179  1  0  0  0
 84180  1  0  0  0
 85 86  1  0  0  0
 85 87  1  0  0  0
 85181  1  0  0  0
 85182  1  0  0  0
 86 88  1  0  0  0
 86183  1  0  0  0
 86184  1  0  0  0
 87 90  1  0  0  0
 87185  1  0  0  0
 87186  1  0  0  0
 88 92  1  0  0  0
 88187  1  0  0  0
 88188  1  0  0  0
 89 93  1  0  0  0
 89 94  1  0  0  0
 89189  1  0  0  0
 89190  1  0  0  0
 90 97  1  0  0  0
 90191  1  0  0  0
 90192  1  0  0  0
 91 99  1  0  0  0
 91193  1  0  0  0
 91194  1  0  0  0
 92 98  1  0  0  0
 92195  1  0  0  0
 92196  1  0  0  0
 93 98  1  0  0  0
 93197  1  0  0  0
 93198  1  0  0  0
 94 99  1  0  0  0
 94199  1  0  0  0
 94200  1  0  0  0
 95201  1  0  0  0
 95202  1  0  0  0
 96203  1  0  0  0
 98204  1  0  0  0
 99205  1  0  0  0
M  CHG  2  98   1  99   1
M  ISO  4   1 100  68 101  95 101  97 100
M  END
> <chiral flag>
0

> <version>
0

> <s_m_source_file>
/data/baiqing/PycharmProjects/Reinvent-master-3.2/result/LINK_invent/BTK/process_docking_weight1_custom_sum_contain_oxygen_bond_distance_aromatic_linkinvent_7_9_3/rearranged_h_0004.sdf

> <i_m_source_file_index>
10

> <r_mmod_Potential_Energy-OPLS-2005>
-191.318954467773

> <r_mmod_Stretch_Energy-OPLS-2005>
41.5623893737793

> <r_mmod_Bend_Energy-OPLS-2005>
116.311325073242

> <r_mmod_Torsional_Energy-OPLS-2005>
336.650024414062

> <r_mmod_Improper_Torsional_Energy-OPLS-2005>
3.34187769889832

> <r_mmod_Van_der_Waal_Energy-OPLS-2005>
133.755722045898

> <r_mmod_Electrostatic_Energy-OPLS-2005>
83.9833526611328

> <r_mmod_Solvation_Energy-OPLS-2005>
-918.517639160156

> <b_mmod_Minimization_Converged-OPLS-2005>
0

> <r_mmod_RMS_Derivative-OPLS-2005>
3.37179660797119

$$$$
10
                    3D
 Structure written by MMmdl.
167175  0  0  1  0            999 V2000
  -30.7247  -14.4890   20.4467 C   0  0  0  0  0  0
  -30.4123  -12.2704   19.4693 C   0  0  0  0  0  0
  -29.5103  -12.4499   18.2327 C   0  0  0  0  0  0
  -28.0321  -12.3023   18.6481 C   0  0  0  0  0  0
  -27.6481  -13.1832   19.8729 C   0  0  2  0  0  0
  -28.6965  -13.0792   21.0042 C   0  0  0  0  0  0
  -25.2453  -13.8033   20.5608 C   0  0  0  0  0  0
  -24.1746  -13.0341   20.9203 C   0  0  0  0  0  0
  -24.6340  -11.6826   20.8830 C   0  0  0  0  0  0
  -23.9032  -10.4258   21.0466 C   0  0  0  0  0  0
  -24.3618   -9.4195   21.9208 C   0  0  0  0  0  0
  -23.6331   -8.2216   22.0719 C   0  0  0  0  0  0
  -22.4297   -8.0288   21.3519 C   0  0  0  0  0  0
  -21.9931   -9.0268   20.4614 C   0  0  0  0  0  0
  -22.7258  -10.2155   20.3058 C   0  0  0  0  0  0
  -21.6873   -6.0793   22.5291 C   0  0  0  0  0  0
  -21.4014   -6.5670   23.8241 C   0  0  0  0  0  0
  -21.3626   -5.6797   24.9179 C   0  0  0  0  0  0
  -21.6017   -4.3056   24.7224 C   0  0  0  0  0  0
  -21.8801   -3.8189   23.4337 C   0  0  0  0  0  0
  -21.9177   -4.7015   22.3411 C   0  0  0  0  0  0
  -22.7758  -13.5153   21.1872 C   0  0  0  0  0  0
  -22.1642   -4.2195   21.0988 F   0  0  0  0  0  0
  -21.5633   -3.4528   25.7742 F   0  0  0  0  0  0
  -30.0301  -13.3177   20.4236 N   0  0  0  0  0  0
  -26.2931  -12.9175   20.3395 N   0  0  0  0  0  0
  -25.9272  -11.6368   20.5906 N   0  0  0  0  0  0
  -22.0362  -12.8225   22.0478 N   0  0  0  0  0  0
  -25.3836  -15.1741   20.3896 N   0  0  0  0  0  0
  -31.9155  -14.5633   20.1461 O   0  0  0  0  0  0
  -21.6629   -6.8927   21.4255 O   0  0  0  0  0  0
  -22.3439  -14.5465   20.6732 O   0  0  0  0  0  0
  -24.6116  -31.8707   23.2146 C   0  0  0  0  0  0
  -25.9032  -32.4838   23.8394 C   0  0  1  0  0  0
  -27.2260  -27.4650   20.0744 C   0  0  0  0  0  0
  -25.5893  -33.8628   24.2320 N   0  0  0  0  0  0
  -23.3943  -30.4945   21.5591 C   0  0  2  0  0  0
  -24.8339  -28.9666   20.1114 C   0  0  0  0  0  0
  -22.7387  -29.4660   22.5069 C   0  0  0  0  0  0
  -18.0262  -28.1401   22.8516 C   0  0  0  0  0  0
  -24.1481  -36.7305   23.2636 C   0  0  0  0  0  0
  -25.9193  -30.8441   21.3604 C   0  0  0  0  0  0
  -25.9912  -29.4805   20.7076 C   0  0  0  0  0  0
  -27.1837  -28.7305   20.6946 C   0  0  0  0  0  0
  -26.0520  -26.9540   19.4735 C   0  0  0  0  0  0
  -24.8581  -27.7027   19.4943 C   0  0  0  0  0  0
  -23.5944  -29.8301   20.1708 C   0  0  0  0  0  0
  -25.4103  -36.3099   24.0327 C   0  0  1  0  0  0
  -20.5843  -28.3645   23.1391 C   0  0  2  0  0  0
  -20.6759  -26.9398   22.5449 C   0  0  0  0  0  0
  -19.5737  -26.6406   21.5241 C   0  0  0  0  0  0
  -18.1904  -26.7959   22.1635 C   0  0  0  0  0  0
  -19.1505  -28.8847   23.2945 C   0  0  0  0  0  0
  -18.9426  -30.1465   23.8929 C   0  0  0  0  0  0
  -17.6427  -30.6612   24.0573 C   0  0  0  0  0  0
  -25.9033  -34.9476   23.5123 C   0  0  0  0  0  0
  -16.5318  -29.9101   23.6346 C   0  0  0  0  0  0
  -16.7250  -28.6526   23.0349 C   0  0  0  0  0  0
  -26.4469  -31.6615   25.0719 C   0  0  0  0  0  0
  -25.3753  -31.3714   26.1482 C   0  0  0  0  0  0
  -27.0247  -30.3058   24.6051 C   0  0  0  0  0  0
  -27.6057  -32.4337   25.7450 C   0  0  0  0  0  0
  -27.5574  -37.1793   24.8461 C   0  0  0  0  0  0
  -21.4123  -29.3009   22.3814 N   0  0  0  0  0  0
  -26.4282  -37.3795   23.9416 N   0  0  0  0  0  0
  -24.6605  -31.0811   22.1052 N   0  0  0  0  0  0
  -23.4178  -28.8230   23.3114 O   0  0  0  0  0  0
  -28.4272  -26.7984   20.1069 O   0  0  0  0  0  0
  -26.5593  -34.8932   22.4685 O   0  0  0  0  0  0
  -23.5330  -32.1451   23.7577 O   0  0  0  0  0  0
  -29.7173  -18.8274   18.6253 C   0  0  0  0  0  0
  -30.8606  -19.5018   19.0583 C   0  0  0  0  0  0
  -31.5136  -17.5634   20.3709 C   0  0  0  0  0  0
  -29.4412  -17.5231   19.0750 C   0  0  0  0  0  0
  -30.3196  -16.8812   19.9906 C   0  0  0  0  0  0
  -31.7895  -18.8733   19.9118 C   0  0  0  0  0  0
  -31.9743  -23.5751   19.0528 C   0  0  0  0  0  0
  -32.2081  -22.2946   16.9593 C   0  0  0  0  0  0
  -30.6205  -24.1628   18.6017 C   0  0  0  0  0  0
  -30.0812  -25.2380   19.5670 C   0  0  0  0  0  0
  -33.4621  -21.5939   18.9961 C   0  0  0  0  0  0
  -28.6385  -25.6683   19.2745 C   0  0  0  0  0  0
  -32.9900  -20.9384   20.3310 C   0  0  0  0  0  0
  -28.1704  -16.8740   18.5701 C   0  0  0  0  0  0
  -29.9788  -15.6022   20.5566 N   0  0  0  0  0  0
  -32.4803  -22.5121   18.3831 N   0  0  0  0  0  0
  -32.5228  -24.0177   20.0657 O   0  0  0  0  0  0
  -32.9495  -19.5014   20.3197 O   0  0  0  0  0  0
  -28.4407  -15.6742   18.0761 F   0  0  0  0  0  0
  -27.3542  -16.7861   19.6130 F   0  0  0  0  0  0
  -27.5559  -17.5667   17.6096 F   0  0  0  0  0  0
  -31.4729  -12.2995   19.2060 H   0  0  0  0  0  0
  -30.2448  -11.2897   19.9162 H   0  0  0  0  0  0
  -29.7678  -11.6988   17.4823 H   0  0  0  0  0  0
  -29.6784  -13.4237   17.7725 H   0  0  0  0  0  0
  -27.8845  -11.2484   18.8967 H   0  0  0  0  0  0
  -27.3745  -12.5093   17.8057 H   0  0  0  0  0  0
  -27.6389  -14.2108   19.5458 H   0  0  0  0  0  0
  -28.6652  -12.0982   21.4784 H   0  0  0  0  0  0
  -28.4702  -13.7984   21.7925 H   0  0  0  0  0  0
  -25.2738   -9.5760   22.4795 H   0  0  0  0  0  0
  -24.0072   -7.4615   22.7418 H   0  0  0  0  0  0
  -21.0863   -8.8861   19.8903 H   0  0  0  0  0  0
  -22.3747  -10.9746   19.6197 H   0  0  0  0  0  0
  -21.2025   -7.6173   23.9784 H   0  0  0  0  0  0
  -21.1432   -6.0502   25.9094 H   0  0  0  0  0  0
  -22.0613   -2.7651   23.2823 H   0  0  0  0  0  0
  -22.3906  -11.9928   22.4988 H   0  0  0  0  0  0
  -21.0956  -13.1270   22.2591 H   0  0  0  0  0  0
  -24.5886  -15.7975   20.4773 H   0  0  0  0  0  0
  -26.2118  -15.6627   20.0627 H   0  0  0  0  0  0
  -26.7109  -32.5551   23.1156 H   0  0  0  0  0  0
  -25.0011  -33.9788   25.0439 H   0  0  0  0  0  0
  -22.6823  -31.3125   21.4307 H   0  0  0  0  0  0
  -23.3742  -35.9634   23.3294 H   0  0  0  0  0  0
  -24.3571  -36.8936   22.2052 H   0  0  0  0  0  0
  -23.7243  -37.6508   23.6671 H   0  0  0  0  0  0
  -26.0198  -31.6129   20.5915 H   0  0  0  0  0  0
  -26.8137  -30.9005   21.9700 H   0  0  0  0  0  0
  -28.0802  -29.1261   21.1502 H   0  0  0  0  0  0
  -26.0357  -25.9869   18.9919 H   0  0  0  0  0  0
  -23.9627  -27.3076   19.0319 H   0  0  0  0  0  0
  -23.6909  -30.6080   19.4126 H   0  0  0  0  0  0
  -22.7172  -29.2471   19.8849 H   0  0  0  0  0  0
  -25.1278  -36.1940   25.0820 H   0  0  0  0  0  0
  -20.9904  -28.3175   24.1519 H   0  0  0  0  0  0
  -20.5718  -26.2210   23.3591 H   0  0  0  0  0  0
  -21.6629  -26.7503   22.1205 H   0  0  0  0  0  0
  -19.6889  -25.6322   21.1253 H   0  0  0  0  0  0
  -19.6697  -27.3237   20.6785 H   0  0  0  0  0  0
  -17.4185  -26.6744   21.4019 H   0  0  0  0  0  0
  -18.0274  -26.0096   22.9025 H   0  0  0  0  0  0
  -19.7884  -30.7303   24.2297 H   0  0  0  0  0  0
  -17.4965  -31.6293   24.5159 H   0  0  0  0  0  0
  -15.5319  -30.2997   23.7672 H   0  0  0  0  0  0
  -15.8649  -28.0870   22.7032 H   0  0  0  0  0  0
  -24.5889  -30.7110   25.7822 H   0  0  0  0  0  0
  -24.8981  -32.2866   26.4995 H   0  0  0  0  0  0
  -25.8111  -30.8821   27.0201 H   0  0  0  0  0  0
  -26.2731  -29.6856   24.1163 H   0  0  0  0  0  0
  -27.4074  -29.7270   25.4463 H   0  0  0  0  0  0
  -27.8553  -30.4357   23.9112 H   0  0  0  0  0  0
  -27.2693  -33.3647   26.2022 H   0  0  0  0  0  0
  -28.3838  -32.6899   25.0251 H   0  0  0  0  0  0
  -28.0756  -31.8480   26.5359 H   0  0  0  0  0  0
  -28.2592  -38.0091   24.7512 H   0  0  0  0  0  0
  -28.1058  -36.2619   24.6258 H   0  0  0  0  0  0
  -27.2293  -37.1428   25.8867 H   0  0  0  0  0  0
  -20.9288  -29.8624   21.6953 H   0  0  0  0  0  0
  -26.0152  -38.2857   24.1454 H   0  0  0  0  0  0
  -29.0333  -19.3272   17.9561 H   0  0  0  0  0  0
  -30.9918  -20.5065   18.7062 H   0  0  0  0  0  0
  -32.2091  -17.0807   21.0426 H   0  0  0  0  0  0
  -31.2939  -21.7183   16.8234 H   0  0  0  0  0  0
  -33.0231  -21.7614   16.4676 H   0  0  0  0  0  0
  -32.0971  -23.2323   16.4138 H   0  0  0  0  0  0
  -29.9028  -23.3438   18.5301 H   0  0  0  0  0  0
  -30.6967  -24.5951   17.6036 H   0  0  0  0  0  0
  -30.7266  -26.1149   19.4971 H   0  0  0  0  0  0
  -30.1377  -24.8952   20.6023 H   0  0  0  0  0  0
  -33.7791  -20.8157   18.2997 H   0  0  0  0  0  0
  -34.3638  -22.1781   19.1861 H   0  0  0  0  0  0
  -27.9424  -24.8573   19.5019 H   0  0  0  0  0  0
  -28.5271  -25.9438   18.2243 H   0  0  0  0  0  0
  -32.0435  -21.3432   20.6956 H   0  0  0  0  0  0
  -33.7149  -21.2089   21.1002 H   0  0  0  0  0  0
  -28.9965  -15.4415   20.7198 H   0  0  0  0  0  0
  1 25  1  0  0  0
  1 30  2  0  0  0
  1 85  1  0  0  0
  2  3  1  0  0  0
  2 25  1  0  0  0
  2 92  1  0  0  0
  2 93  1  0  0  0
  3  4  1  0  0  0
  3 94  1  0  0  0
  3 95  1  0  0  0
  4  5  1  0  0  0
  4 96  1  0  0  0
  4 97  1  0  0  0
  5  6  1  0  0  0
  5 26  1  0  0  0
  5 98  1  0  0  0
  6 25  1  0  0  0
  6 99  1  0  0  0
  6100  1  0  0  0
  7  8  2  0  0  0
  7 26  1  0  0  0
  7 29  1  0  0  0
  8  9  1  0  0  0
  8 22  1  0  0  0
  9 10  1  0  0  0
  9 27  2  0  0  0
 10 11  2  0  0  0
 10 15  1  0  0  0
 11 12  1  0  0  0
 11101  1  0  0  0
 12 13  2  0  0  0
 12102  1  0  0  0
 13 14  1  0  0  0
 13 31  1  0  0  0
 14 15  2  0  0  0
 14103  1  0  0  0
 15104  1  0  0  0
 16 17  2  0  0  0
 16 21  1  0  0  0
 16 31  1  0  0  0
 17 18  1  0  0  0
 17105  1  0  0  0
 18 19  2  0  0  0
 18106  1  0  0  0
 19 20  1  0  0  0
 19 24  1  0  0  0
 20 21  2  0  0  0
 20107  1  0  0  0
 21 23  1  0  0  0
 22 28  1  0  0  0
 22 32  2  0  0  0
 26 27  1  0  0  0
 28108  1  0  0  0
 28109  1  0  0  0
 29110  1  0  0  0
 29111  1  0  0  0
 33 34  1  0  0  0
 33 66  1  0  0  0
 33 70  2  0  0  0
 34 36  1  0  0  0
 34 59  1  0  0  0
 34112  1  0  0  0
 35 44  2  0  0  0
 35 45  1  0  0  0
 35 68  1  0  0  0
 36 56  1  0  0  0
 36113  1  0  0  0
 37 39  1  0  0  0
 37 47  1  0  0  0
 37 66  1  0  0  0
 37114  1  0  0  0
 38 43  2  0  0  0
 38 46  1  0  0  0
 38 47  1  0  0  0
 39 64  1  0  0  0
 39 67  2  0  0  0
 40 52  1  0  0  0
 40 53  2  0  0  0
 40 58  1  0  0  0
 41115  1  0  0  0
 41116  1  0  0  0
 41117  1  0  0  0
 41 48  1  0  0  0
 42 43  1  0  0  0
 42 66  1  0  0  0
 42118  1  0  0  0
 42119  1  0  0  0
 43 44  1  0  0  0
 44120  1  0  0  0
 45 46  2  0  0  0
 45121  1  0  0  0
 46122  1  0  0  0
 47123  1  0  0  0
 47124  1  0  0  0
 48 56  1  0  0  0
 48 65  1  0  0  0
 48125  1  0  0  0
 49 50  1  0  0  0
 49 53  1  0  0  0
 49 64  1  0  0  0
 49126  1  0  0  0
 50 51  1  0  0  0
 50127  1  0  0  0
 50128  1  0  0  0
 51 52  1  0  0  0
 51129  1  0  0  0
 51130  1  0  0  0
 52131  1  0  0  0
 52132  1  0  0  0
 53 54  1  0  0  0
 54 55  2  0  0  0
 54133  1  0  0  0
 55 57  1  0  0  0
 55134  1  0  0  0
 56 69  2  0  0  0
 57 58  2  0  0  0
 57135  1  0  0  0
 58136  1  0  0  0
 59 60  1  0  0  0
 59 61  1  0  0  0
 59 62  1  0  0  0
 60137  1  0  0  0
 60138  1  0  0  0
 60139  1  0  0  0
 61140  1  0  0  0
 61141  1  0  0  0
 61142  1  0  0  0
 62143  1  0  0  0
 62144  1  0  0  0
 62145  1  0  0  0
 63 65  1  0  0  0
 63146  1  0  0  0
 63147  1  0  0  0
 63148  1  0  0  0
 64149  1  0  0  0
 65150  1  0  0  0
 68 82  1  0  0  0
 71 72  2  0  0  0
 71 74  1  0  0  0
 71151  1  0  0  0
 72 76  1  0  0  0
 72152  1  0  0  0
 73 75  1  0  0  0
 73 76  2  0  0  0
 73153  1  0  0  0
 74 75  2  0  0  0
 74 84  1  0  0  0
 75 85  1  0  0  0
 76 88  1  0  0  0
 77 79  1  0  0  0
 77 86  1  0  0  0
 77 87  2  0  0  0
 78 86  1  0  0  0
 78154  1  0  0  0
 78155  1  0  0  0
 78156  1  0  0  0
 79 80  1  0  0  0
 79157  1  0  0  0
 79158  1  0  0  0
 80 82  1  0  0  0
 80159  1  0  0  0
 80160  1  0  0  0
 81 83  1  0  0  0
 81 86  1  0  0  0
 81161  1  0  0  0
 81162  1  0  0  0
 82163  1  0  0  0
 82164  1  0  0  0
 83 88  1  0  0  0
 83165  1  0  0  0
 83166  1  0  0  0
 84 89  1  0  0  0
 84 90  1  0  0  0
 84 91  1  0  0  0
 85167  1  0  0  0
M  ISO  4   1 100  68 101  82 101  85 100
M  END
> <chiral flag>
0

> <version>
0

> <s_m_source_file>
/data/baiqing/PycharmProjects/Reinvent-master-3.2/result/LINK_invent/BTK/process_docking_weight1_custom_sum_contain_oxygen_bond_distance_aromatic_linkinvent_7_9_3/rearranged_h_0004.sdf

> <i_m_source_file_index>
11

> <r_mmod_Potential_Energy-OPLS-2005>
34.8370361328125

> <r_mmod_Stretch_Energy-OPLS-2005>
39.6727905273438

> <r_mmod_Bend_Energy-OPLS-2005>
115.700355529785

> <r_mmod_Torsional_Energy-OPLS-2005>
269.428161621094

> <r_mmod_Improper_Torsional_Energy-OPLS-2005>
8.62522125244141

> <r_mmod_Van_der_Waal_Energy-OPLS-2005>
179.328506469727

> <r_mmod_Electrostatic_Energy-OPLS-2005>
-376.240905761719

> <r_mmod_Solvation_Energy-OPLS-2005>
-226.546951293945

> <b_mmod_Minimization_Converged-OPLS-2005>
0

> <r_mmod_RMS_Derivative-OPLS-2005>
5.80871629714966

$$$$
11
                    3D
 Structure written by MMmdl.
151159  0  0  1  0            999 V2000
  -30.4085  -15.3511   20.3767 C   0  0  0  0  0  0
  -30.4389  -12.8783   19.5161 C   0  0  0  0  0  0
  -29.5339  -12.5863   18.2912 C   0  0  0  0  0  0
  -28.0927  -12.2841   18.7339 C   0  0  0  0  0  0
  -27.6061  -13.2772   19.8151 C   0  0  2  0  0  0
  -28.6378  -13.4985   20.9407 C   0  0  0  0  0  0
  -25.2368  -13.8241   20.5752 C   0  0  0  0  0  0
  -24.1726  -13.0429   20.9266 C   0  0  0  0  0  0
  -24.6393  -11.6926   20.8778 C   0  0  0  0  0  0
  -23.9107  -10.4284   21.0410 C   0  0  0  0  0  0
  -24.3647   -9.4197   21.9187 C   0  0  0  0  0  0
  -23.6311   -8.2237   22.0761 C   0  0  0  0  0  0
  -22.4292   -8.0281   21.3543 C   0  0  0  0  0  0
  -21.9933   -9.0261   20.4647 C   0  0  0  0  0  0
  -22.7280  -10.2131   20.3057 C   0  0  0  0  0  0
  -21.6854   -6.0744   22.5277 C   0  0  0  0  0  0
  -21.4019   -6.5648   23.8215 C   0  0  0  0  0  0
  -21.3652   -5.6795   24.9173 C   0  0  0  0  0  0
  -21.6040   -4.3061   24.7222 C   0  0  0  0  0  0
  -21.8820   -3.8154   23.4345 C   0  0  0  0  0  0
  -21.9194   -4.6971   22.3401 C   0  0  0  0  0  0
  -22.7752  -13.5182   21.1912 C   0  0  0  0  0  0
  -22.1657   -4.2154   21.0982 F   0  0  0  0  0  0
  -21.5623   -3.4543   25.7739 F   0  0  0  0  0  0
  -29.8501  -14.0342   20.2964 N   0  0  0  0  0  0
  -26.2799  -12.9519   20.3219 N   0  0  0  0  0  0
  -25.9327  -11.6624   20.5721 N   0  0  0  0  0  0
  -22.0414  -12.8155   22.0469 N   0  0  0  0  0  0
  -25.4001  -15.1980   20.4176 N   0  0  0  0  0  0
  -31.6413  -15.3286   20.2348 O   0  0  0  0  0  0
  -21.6642   -6.8882   21.4244 O   0  0  0  0  0  0
  -22.3431  -14.5478   20.6754 O   0  0  0  0  0  0
  -24.6693  -31.8186   23.1638 C   0  0  0  0  0  0
  -25.9340  -32.4565   23.8134 C   0  0  1  0  0  0
  -27.2246  -26.8750   20.2017 C   0  0  0  0  0  0
  -25.5973  -33.8376   24.2031 N   0  0  0  0  0  0
  -23.4866  -30.4256   21.5157 C   0  0  2  0  0  0
  -24.9393  -28.7943   20.1247 C   0  0  0  0  0  0
  -22.7696  -29.4409   22.4773 C   0  0  0  0  0  0
  -18.0302  -28.1427   22.8436 C   0  0  0  0  0  0
  -24.1476  -36.7191   23.2653 C   0  0  0  0  0  0
  -26.0588  -30.6111   21.3985 C   0  0  0  0  0  0
  -26.1265  -29.1910   20.7515 C   0  0  0  0  0  0
  -27.2653  -28.2560   20.7569 C   0  0  0  0  0  0
  -26.0032  -26.6384   19.5329 C   0  0  0  0  0  0
  -24.9027  -27.5380   19.4963 C   0  0  0  0  0  0
  -23.7301  -29.7316   20.1469 C   0  0  0  0  0  0
  -25.4127  -36.2945   24.0288 C   0  0  1  0  0  0
  -20.5943  -28.3769   23.1171 C   0  0  2  0  0  0
  -20.6789  -26.9443   22.5401 C   0  0  0  0  0  0
  -19.5762  -26.6383   21.5211 C   0  0  0  0  0  0
  -18.1942  -26.7951   22.1607 C   0  0  0  0  0  0
  -19.1573  -28.8912   23.2783 C   0  0  0  0  0  0
  -18.9496  -30.1500   23.8830 C   0  0  0  0  0  0
  -17.6504  -30.6615   24.0552 C   0  0  0  0  0  0
  -25.9102  -34.9340   23.4986 C   0  0  0  0  0  0
  -16.5380  -29.9115   23.6352 C   0  0  0  0  0  0
  -16.7292  -28.6531   23.0357 C   0  0  0  0  0  0
  -26.4560  -31.6535   25.0686 C   0  0  0  0  0  0
  -25.3666  -31.3813   26.1321 C   0  0  0  0  0  0
  -27.0470  -30.2897   24.6460 C   0  0  0  0  0  0
  -27.6027  -32.4383   25.7497 C   0  0  0  0  0  0
  -27.5546  -37.1745   24.8474 C   0  0  0  0  0  0
  -21.4360  -29.3052   22.3522 N   0  0  0  0  0  0
  -26.4260  -37.3696   23.9412 N   0  0  0  0  0  0
  -24.7603  -30.9799   22.0800 N   0  0  0  0  0  0
  -23.4219  -28.7984   23.3035 O   0  0  0  0  0  0
  -28.2554  -25.7788   20.1707 O   0  0  0  0  0  0
  -26.5732  -34.8885   22.4599 O   0  0  0  0  0  0
  -23.5747  -32.1185   23.6677 O   0  0  0  0  0  0
  -30.2835  -18.9337   22.9155 C   0  0  0  0  0  0
  -30.7483  -18.3135   21.7351 C   0  0  0  0  0  0
  -28.2650  -19.7038   21.7606 C   0  0  0  0  0  0
  -28.9906  -19.5119   22.9606 C   0  0  0  0  0  0
  -29.8679  -18.2434   20.6359 C   0  0  0  0  0  0
  -28.9937  -19.5701   20.5661 C   0  0  0  0  0  0
  -28.2071  -24.1599   20.6189 C   0  0  0  0  0  0
  -28.4660  -22.4589   19.9584 C   0  0  0  0  0  0
  -28.4359  -20.0498   24.2726 C   0  0  0  0  0  0
  -29.6358  -16.6447   20.3519 N   0  0  0  0  0  0
  -29.3253  -21.0471   20.2542 O   0  0  0  0  0  0
  -29.0028  -19.4520   25.3221 F   0  0  0  0  0  0
  -28.6728  -21.3586   24.3477 F   0  0  0  0  0  0
  -27.1190  -19.8504   24.3381 F   0  0  0  0  0  0
  -31.4455  -13.1101   19.1668 H   0  0  0  0  0  0
  -30.5435  -11.9935   20.1480 H   0  0  0  0  0  0
  -29.9308  -11.7509   17.7117 H   0  0  0  0  0  0
  -29.5348  -13.4523   17.6287 H   0  0  0  0  0  0
  -28.0788  -11.2721   19.1401 H   0  0  0  0  0  0
  -27.4162  -12.2783   17.8781 H   0  0  0  0  0  0
  -27.5034  -14.2274   19.2888 H   0  0  0  0  0  0
  -28.8331  -12.5805   21.4951 H   0  0  0  0  0  0
  -28.2595  -14.2230   21.6641 H   0  0  0  0  0  0
  -25.2787   -9.5666   22.4773 H   0  0  0  0  0  0
  -24.0003   -7.4631   22.7493 H   0  0  0  0  0  0
  -21.0858   -8.8804   19.8961 H   0  0  0  0  0  0
  -22.3749  -10.9679   19.6169 H   0  0  0  0  0  0
  -21.2021   -7.6156   23.9721 H   0  0  0  0  0  0
  -21.1464   -6.0526   25.9074 H   0  0  0  0  0  0
  -22.0606   -2.7617   23.2849 H   0  0  0  0  0  0
  -22.4043  -11.9816   22.4844 H   0  0  0  0  0  0
  -21.1030  -13.1168   22.2693 H   0  0  0  0  0  0
  -24.6333  -15.8501   20.5406 H   0  0  0  0  0  0
  -26.2432  -15.6414   20.0799 H   0  0  0  0  0  0
  -26.7433  -32.5088   23.0872 H   0  0  0  0  0  0
  -25.0047  -33.9455   25.0130 H   0  0  0  0  0  0
  -22.8035  -31.2571   21.3356 H   0  0  0  0  0  0
  -23.3739  -35.9516   23.3315 H   0  0  0  0  0  0
  -24.3526  -36.8851   22.2065 H   0  0  0  0  0  0
  -23.7245  -37.6378   23.6727 H   0  0  0  0  0  0
  -26.2412  -31.3469   20.6141 H   0  0  0  0  0  0
  -26.9167  -30.6746   22.0562 H   0  0  0  0  0  0
  -28.1737  -28.5666   21.2527 H   0  0  0  0  0  0
  -25.8812  -25.6846   19.0390 H   0  0  0  0  0  0
  -23.9988  -27.2251   18.9915 H   0  0  0  0  0  0
  -23.8999  -30.4950   19.3871 H   0  0  0  0  0  0
  -22.8372  -29.1910   19.8235 H   0  0  0  0  0  0
  -25.1339  -36.1727   25.0778 H   0  0  0  0  0  0
  -20.9998  -28.3374   24.1313 H   0  0  0  0  0  0
  -20.5666  -26.2393   23.3653 H   0  0  0  0  0  0
  -21.6659  -26.7440   22.1210 H   0  0  0  0  0  0
  -19.6960  -25.6285   21.1284 H   0  0  0  0  0  0
  -19.6711  -27.3158   20.6715 H   0  0  0  0  0  0
  -17.4219  -26.6666   21.4010 H   0  0  0  0  0  0
  -18.0326  -26.0126   22.9032 H   0  0  0  0  0  0
  -19.7988  -30.7297   24.2189 H   0  0  0  0  0  0
  -17.5078  -31.6295   24.5160 H   0  0  0  0  0  0
  -15.5382  -30.3012   23.7736 H   0  0  0  0  0  0
  -15.8671  -28.0853   22.7122 H   0  0  0  0  0  0
  -24.5858  -30.7161   25.7621 H   0  0  0  0  0  0
  -24.8822  -32.3015   26.4596 H   0  0  0  0  0  0
  -25.7860  -30.9082   27.0203 H   0  0  0  0  0  0
  -26.3146  -29.6531   24.1482 H   0  0  0  0  0  0
  -27.4019  -29.7320   25.5129 H   0  0  0  0  0  0
  -27.9080  -30.4062   23.9875 H   0  0  0  0  0  0
  -27.2581  -33.3745   26.1911 H   0  0  0  0  0  0
  -28.3921  -32.6857   25.0389 H   0  0  0  0  0  0
  -28.0608  -31.8632   26.5544 H   0  0  0  0  0  0
  -28.2569  -38.0030   24.7485 H   0  0  0  0  0  0
  -28.1027  -36.2555   24.6354 H   0  0  0  0  0  0
  -27.2255  -37.1472   25.8873 H   0  0  0  0  0  0
  -20.9654  -29.8745   21.6631 H   0  0  0  0  0  0
  -26.0098  -38.2747   24.1427 H   0  0  0  0  0  0
  -30.8700  -18.8605   23.8198 H   0  0  0  0  0  0
  -31.5770  -17.6275   21.8428 H   0  0  0  0  0  0
  -27.4418  -20.4007   21.8247 H   0  0  0  0  0  0
  -28.9097  -24.1758   21.4530 H   0  0  0  0  0  0
  -27.2438  -24.0914   21.1259 H   0  0  0  0  0  0
  -28.8423  -22.6829   18.9604 H   0  0  0  0  0  0
  -27.4594  -22.0978   19.7487 H   0  0  0  0  0  0
  -28.6628  -16.4426   20.1767 H   0  0  0  0  0  0
  1 25  1  0  0  0
  1 30  2  0  0  0
  1 80  1  0  0  0
  2  3  1  0  0  0
  2 25  1  0  0  0
  2 85  1  0  0  0
  2 86  1  0  0  0
  3  4  1  0  0  0
  3 87  1  0  0  0
  3 88  1  0  0  0
  4  5  1  0  0  0
  4 89  1  0  0  0
  4 90  1  0  0  0
  5  6  1  0  0  0
  5 26  1  0  0  0
  5 91  1  0  0  0
  6 25  1  0  0  0
  6 92  1  0  0  0
  6 93  1  0  0  0
  7  8  2  0  0  0
  7 26  1  0  0  0
  7 29  1  0  0  0
  8  9  1  0  0  0
  8 22  1  0  0  0
  9 10  1  0  0  0
  9 27  2  0  0  0
 10 11  2  0  0  0
 10 15  1  0  0  0
 11 12  1  0  0  0
 11 94  1  0  0  0
 12 13  2  0  0  0
 12 95  1  0  0  0
 13 14  1  0  0  0
 13 31  1  0  0  0
 14 15  2  0  0  0
 14 96  1  0  0  0
 15 97  1  0  0  0
 16 17  2  0  0  0
 16 21  1  0  0  0
 16 31  1  0  0  0
 17 18  1  0  0  0
 17 98  1  0  0  0
 18 19  2  0  0  0
 18 99  1  0  0  0
 19 20  1  0  0  0
 19 24  1  0  0  0
 20 21  2  0  0  0
 20100  1  0  0  0
 21 23  1  0  0  0
 22 28  1  0  0  0
 22 32  2  0  0  0
 26 27  1  0  0  0
 28101  1  0  0  0
 28102  1  0  0  0
 29103  1  0  0  0
 29104  1  0  0  0
 33 34  1  0  0  0
 33 66  1  0  0  0
 33 70  2  0  0  0
 34 36  1  0  0  0
 34 59  1  0  0  0
 34105  1  0  0  0
 35 44  2  0  0  0
 35 45  1  0  0  0
 35 68  1  0  0  0
 36 56  1  0  0  0
 36106  1  0  0  0
 37 39  1  0  0  0
 37 47  1  0  0  0
 37 66  1  0  0  0
 37107  1  0  0  0
 38 43  2  0  0  0
 38 46  1  0  0  0
 38 47  1  0  0  0
 39 64  1  0  0  0
 39 67  2  0  0  0
 40 52  1  0  0  0
 40 53  2  0  0  0
 40 58  1  0  0  0
 41108  1  0  0  0
 41109  1  0  0  0
 41110  1  0  0  0
 41 48  1  0  0  0
 42 43  1  0  0  0
 42 66  1  0  0  0
 42111  1  0  0  0
 42112  1  0  0  0
 43 44  1  0  0  0
 44113  1  0  0  0
 45 46  2  0  0  0
 45114  1  0  0  0
 46115  1  0  0  0
 47116  1  0  0  0
 47117  1  0  0  0
 48 56  1  0  0  0
 48 65  1  0  0  0
 48118  1  0  0  0
 49 50  1  0  0  0
 49 53  1  0  0  0
 49 64  1  0  0  0
 49119  1  0  0  0
 50 51  1  0  0  0
 50120  1  0  0  0
 50121  1  0  0  0
 51 52  1  0  0  0
 51122  1  0  0  0
 51123  1  0  0  0
 52124  1  0  0  0
 52125  1  0  0  0
 53 54  1  0  0  0
 54 55  2  0  0  0
 54126  1  0  0  0
 55 57  1  0  0  0
 55127  1  0  0  0
 56 69  2  0  0  0
 57 58  2  0  0  0
 57128  1  0  0  0
 58129  1  0  0  0
 59 60  1  0  0  0
 59 61  1  0  0  0
 59 62  1  0  0  0
 60130  1  0  0  0
 60131  1  0  0  0
 60132  1  0  0  0
 61133  1  0  0  0
 61134  1  0  0  0
 61135  1  0  0  0
 62136  1  0  0  0
 62137  1  0  0  0
 62138  1  0  0  0
 63 65  1  0  0  0
 63139  1  0  0  0
 63140  1  0  0  0
 63141  1  0  0  0
 64142  1  0  0  0
 65143  1  0  0  0
 68 77  1  0  0  0
 71 72  2  0  0  0
 71 74  1  0  0  0
 71144  1  0  0  0
 72 75  1  0  0  0
 72145  1  0  0  0
 73 74  2  0  0  0
 73 76  1  0  0  0
 73146  1  0  0  0
 74 79  1  0  0  0
 75 76  2  0  0  0
 75 80  1  0  0  0
 76 81  1  0  0  0
 77 78  1  0  0  0
 77147  1  0  0  0
 77148  1  0  0  0
 78 81  1  0  0  0
 78149  1  0  0  0
 78150  1  0  0  0
 79 82  1  0  0  0
 79 83  1  0  0  0
 79 84  1  0  0  0
 80151  1  0  0  0
M  ISO  4   1 100  68 101  77 101  80 100
M  END
> <chiral flag>
0

> <version>
0

> <s_m_source_file>
/data/baiqing/PycharmProjects/Reinvent-master-3.2/result/LINK_invent/BTK/process_docking_weight1_custom_sum_contain_oxygen_bond_distance_aromatic_linkinvent_7_9_3/rearranged_h_0004.sdf

> <i_m_source_file_index>
12

> <r_mmod_Potential_Energy-OPLS-2005>
1869.73754882812

> <r_mmod_Stretch_Energy-OPLS-2005>
712.431884765625

> <r_mmod_Bend_Energy-OPLS-2005>
574.1875

> <r_mmod_Torsional_Energy-OPLS-2005>
470.447906494141

> <r_mmod_Improper_Torsional_Energy-OPLS-2005>
41.6492462158203

> <r_mmod_Van_der_Waal_Energy-OPLS-2005>
129.502944946289

> <r_mmod_Electrostatic_Energy-OPLS-2005>
-382.023529052734

> <r_mmod_Solvation_Energy-OPLS-2005>
-215.664794921875

> <b_mmod_Minimization_Converged-OPLS-2005>
0

> <r_mmod_RMS_Derivative-OPLS-2005>
2.20040082931519

$$$$
12
                    3D
 Structure written by MMmdl.
141148  0  0  1  0            999 V2000
  -30.1908  -15.8716   20.3057 C   0  0  0  0  0  0
  -30.4143  -13.2407   19.5756 C   0  0  0  0  0  0
  -29.5692  -12.7268   18.3649 C   0  0  0  0  0  0
  -28.1568  -12.3177   18.8028 C   0  0  0  0  0  0
  -27.5915  -13.3367   19.8132 C   0  0  2  0  0  0
  -28.5836  -13.7552   20.9295 C   0  0  0  0  0  0
  -25.2295  -13.8333   20.5817 C   0  0  0  0  0  0
  -24.1706  -13.0444   20.9282 C   0  0  0  0  0  0
  -24.6443  -11.6966   20.8740 C   0  0  0  0  0  0
  -23.9149  -10.4300   21.0377 C   0  0  0  0  0  0
  -24.3673   -9.4214   21.9168 C   0  0  0  0  0  0
  -23.6326   -8.2259   22.0750 C   0  0  0  0  0  0
  -22.4305   -8.0297   21.3544 C   0  0  0  0  0  0
  -21.9956   -9.0272   20.4641 C   0  0  0  0  0  0
  -22.7307  -10.2140   20.3038 C   0  0  0  0  0  0
  -21.6864   -6.0747   22.5279 C   0  0  0  0  0  0
  -21.4023   -6.5647   23.8213 C   0  0  0  0  0  0
  -21.3662   -5.6796   24.9173 C   0  0  0  0  0  0
  -21.6044   -4.3059   24.7222 C   0  0  0  0  0  0
  -21.8818   -3.8153   23.4342 C   0  0  0  0  0  0
  -21.9196   -4.6973   22.3400 C   0  0  0  0  0  0
  -22.7712  -13.5151   21.1923 C   0  0  0  0  0  0
  -22.1663   -4.2157   21.0978 F   0  0  0  0  0  0
  -21.5626   -3.4541   25.7734 F   0  0  0  0  0  0
  -29.7445  -14.4425   20.2960 N   0  0  0  0  0  0
  -26.2771  -12.9717   20.3240 N   0  0  0  0  0  0
  -25.9401  -11.6755   20.5661 N   0  0  0  0  0  0
  -22.0391  -12.8117   22.0477 N   0  0  0  0  0  0
  -25.3871  -15.2083   20.4306 N   0  0  0  0  0  0
  -31.4142  -15.7763   20.0575 O   0  0  0  0  0  0
  -21.6657   -6.8898   21.4245 O   0  0  0  0  0  0
  -22.3374  -14.5447   20.6764 O   0  0  0  0  0  0
  -24.6991  -31.7798   23.1368 C   0  0  0  0  0  0
  -25.9493  -32.4365   23.7978 C   0  0  1  0  0  0
  -27.2368  -26.5336   20.2291 C   0  0  0  0  0  0
  -25.6003  -33.8201   24.1847 N   0  0  0  0  0  0
  -23.5338  -30.3730   21.4937 C   0  0  2  0  0  0
  -24.9950  -28.6789   20.1177 C   0  0  0  0  0  0
  -22.7839  -29.4203   22.4655 C   0  0  0  0  0  0
  -18.0349  -28.1430   22.8446 C   0  0  0  0  0  0
  -24.1497  -36.7110   23.2657 C   0  0  0  0  0  0
  -26.1203  -30.4555   21.4284 C   0  0  0  0  0  0
  -26.1838  -29.0020   20.7808 C   0  0  0  0  0  0
  -27.2773  -27.9606   20.8032 C   0  0  0  0  0  0
  -26.0175  -26.4653   19.4954 C   0  0  0  0  0  0
  -24.9613  -27.4392   19.4504 C   0  0  0  0  0  0
  -23.7976  -29.6537   20.1357 C   0  0  0  0  0  0
  -25.4154  -36.2836   24.0268 C   0  0  1  0  0  0
  -20.5992  -28.3797   23.1109 C   0  0  2  0  0  0
  -20.6806  -26.9440   22.5407 C   0  0  0  0  0  0
  -19.5785  -26.6364   21.5219 C   0  0  0  0  0  0
  -18.1968  -26.7954   22.1616 C   0  0  0  0  0  0
  -19.1620  -28.8942   23.2753 C   0  0  0  0  0  0
  -18.9522  -30.1521   23.8806 C   0  0  0  0  0  0
  -17.6510  -30.6608   24.0546 C   0  0  0  0  0  0
  -25.9143  -34.9231   23.4909 C   0  0  0  0  0  0
  -16.5399  -29.9086   23.6355 C   0  0  0  0  0  0
  -16.7328  -28.6510   23.0370 C   0  0  0  0  0  0
  -26.4619  -31.6476   25.0675 C   0  0  0  0  0  0
  -25.3640  -31.3843   26.1259 C   0  0  0  0  0  0
  -27.0582  -30.2795   24.6704 C   0  0  0  0  0  0
  -27.6032  -32.4381   25.7503 C   0  0  0  0  0  0
  -27.5558  -37.1712   24.8467 C   0  0  0  0  0  0
  -21.4470  -29.3009   22.3407 N   0  0  0  0  0  0
  -26.4266  -37.3616   23.9405 N   0  0  0  0  0  0
  -24.8096  -30.9072   22.0715 N   0  0  0  0  0  0
  -23.4203  -28.7835   23.3082 O   0  0  0  0  0  0
  -28.1759  -25.2404   20.3560 O   0  0  0  0  0  0
  -26.5811  -34.8842   22.4545 O   0  0  0  0  0  0
  -23.5975  -32.0953   23.6214 O   0  0  0  0  0  0
  -29.4162  -17.6546   20.6126 C   0  0  0  0  0  0
  -29.2228  -19.6106   20.0193 C   0  0  0  0  0  0
  -28.7965  -21.5428   20.5759 C   0  0  0  0  0  0
  -28.1976  -23.4230   20.0026 C   0  0  0  0  0  0
  -31.3992  -13.5189   19.2003 H   0  0  0  0  0  0
  -30.6113  -12.4269   20.2758 H   0  0  0  0  0  0
  -30.0699  -11.8906   17.8754 H   0  0  0  0  0  0
  -29.4999  -13.5217   17.6210 H   0  0  0  0  0  0
  -28.2194  -11.3356   19.2732 H   0  0  0  0  0  0
  -27.4970  -12.2099   17.9410 H   0  0  0  0  0  0
  -27.4299  -14.2327   19.2120 H   0  0  0  0  0  0
  -28.8775  -12.9063   21.5488 H   0  0  0  0  0  0
  -28.1013  -14.4642   21.6037 H   0  0  0  0  0  0
  -25.2812   -9.5687   22.4753 H   0  0  0  0  0  0
  -24.0024   -7.4654   22.7481 H   0  0  0  0  0  0
  -21.0884   -8.8803   19.8950 H   0  0  0  0  0  0
  -22.3765  -10.9679   19.6148 H   0  0  0  0  0  0
  -21.2019   -7.6155   23.9720 H   0  0  0  0  0  0
  -21.1484   -6.0525   25.9077 H   0  0  0  0  0  0
  -22.0593   -2.7615   23.2840 H   0  0  0  0  0  0
  -22.4047  -11.9798   22.4868 H   0  0  0  0  0  0
  -21.0993  -13.1097   22.2679 H   0  0  0  0  0  0
  -24.6179  -15.8576   20.5548 H   0  0  0  0  0  0
  -26.2385  -15.6578   20.1185 H   0  0  0  0  0  0
  -26.7591  -32.4793   23.0697 H   0  0  0  0  0  0
  -25.0029  -33.9210   24.9921 H   0  0  0  0  0  0
  -22.8687  -31.2145   21.2889 H   0  0  0  0  0  0
  -23.3780  -35.9417   23.3256 H   0  0  0  0  0  0
  -24.3557  -36.8848   22.2084 H   0  0  0  0  0  0
  -23.7239  -37.6257   23.6792 H   0  0  0  0  0  0
  -26.3419  -31.1689   20.6335 H   0  0  0  0  0  0
  -26.9643  -30.5292   22.1014 H   0  0  0  0  0  0
  -28.1626  -28.2166   21.3681 H   0  0  0  0  0  0
  -25.8253  -25.5363   18.9775 H   0  0  0  0  0  0
  -24.0696  -27.1810   18.8959 H   0  0  0  0  0  0
  -23.9847  -30.4068   19.3695 H   0  0  0  0  0  0
  -22.8993  -29.1273   19.8085 H   0  0  0  0  0  0
  -25.1373  -36.1573   25.0758 H   0  0  0  0  0  0
  -21.0070  -28.3438   24.1238 H   0  0  0  0  0  0
  -20.5652  -26.2427   23.3685 H   0  0  0  0  0  0
  -21.6666  -26.7354   22.1237 H   0  0  0  0  0  0
  -19.6938  -25.6250   21.1308 H   0  0  0  0  0  0
  -19.6734  -27.3124   20.6710 H   0  0  0  0  0  0
  -17.4238  -26.6697   21.4019 H   0  0  0  0  0  0
  -18.0350  -26.0118   22.9033 H   0  0  0  0  0  0
  -19.7998  -30.7359   24.2136 H   0  0  0  0  0  0
  -17.5060  -31.6278   24.5167 H   0  0  0  0  0  0
  -15.5395  -30.2960   23.7731 H   0  0  0  0  0  0
  -15.8729  -28.0799   22.7136 H   0  0  0  0  0  0
  -24.5859  -30.7160   25.7552 H   0  0  0  0  0  0
  -24.8796  -32.3080   26.4431 H   0  0  0  0  0  0
  -25.7777  -30.9168   27.0203 H   0  0  0  0  0  0
  -26.3333  -29.6352   24.1720 H   0  0  0  0  0  0
  -27.3962  -29.7314   25.5510 H   0  0  0  0  0  0
  -27.9330  -30.3880   24.0293 H   0  0  0  0  0  0
  -27.2547  -33.3773   26.1812 H   0  0  0  0  0  0
  -28.3978  -32.6799   25.0431 H   0  0  0  0  0  0
  -28.0554  -31.8696   26.5640 H   0  0  0  0  0  0
  -28.2535  -38.0043   24.7511 H   0  0  0  0  0  0
  -28.1094  -36.2562   24.6300 H   0  0  0  0  0  0
  -27.2271  -37.1350   25.8868 H   0  0  0  0  0  0
  -20.9815  -29.8636   21.6423 H   0  0  0  0  0  0
  -26.0077  -38.2656   24.1419 H   0  0  0  0  0  0
  -28.3790  -17.3734   20.7944 H   0  0  0  0  0  0
  -29.8087  -17.8033   21.6183 H   0  0  0  0  0  0
  -28.4970  -19.4834   19.2158 H   0  0  0  0  0  0
  -30.1569  -19.7543   19.4758 H   0  0  0  0  0  0
  -29.7199  -21.7915   21.0993 H   0  0  0  0  0  0
  -28.0968  -21.3640   21.3924 H   0  0  0  0  0  0
  -27.1407  -23.2591   19.7918 H   0  0  0  0  0  0
  -28.6410  -23.4682   19.0079 H   0  0  0  0  0  0
  1 25  1  0  0  0
  1 30  2  0  0  0
  1 71  1  0  0  0
  2  3  1  0  0  0
  2 25  1  0  0  0
  2 75  1  0  0  0
  2 76  1  0  0  0
  3  4  1  0  0  0
  3 77  1  0  0  0
  3 78  1  0  0  0
  4  5  1  0  0  0
  4 79  1  0  0  0
  4 80  1  0  0  0
  5  6  1  0  0  0
  5 26  1  0  0  0
  5 81  1  0  0  0
  6 25  1  0  0  0
  6 82  1  0  0  0
  6 83  1  0  0  0
  7  8  2  0  0  0
  7 26  1  0  0  0
  7 29  1  0  0  0
  8  9  1  0  0  0
  8 22  1  0  0  0
  9 10  1  0  0  0
  9 27  2  0  0  0
 10 11  2  0  0  0
 10 15  1  0  0  0
 11 12  1  0  0  0
 11 84  1  0  0  0
 12 13  2  0  0  0
 12 85  1  0  0  0
 13 14  1  0  0  0
 13 31  1  0  0  0
 14 15  2  0  0  0
 14 86  1  0  0  0
 15 87  1  0  0  0
 16 17  2  0  0  0
 16 21  1  0  0  0
 16 31  1  0  0  0
 17 18  1  0  0  0
 17 88  1  0  0  0
 18 19  2  0  0  0
 18 89  1  0  0  0
 19 20  1  0  0  0
 19 24  1  0  0  0
 20 21  2  0  0  0
 20 90  1  0  0  0
 21 23  1  0  0  0
 22 28  1  0  0  0
 22 32  2  0  0  0
 26 27  1  0  0  0
 28 91  1  0  0  0
 28 92  1  0  0  0
 29 93  1  0  0  0
 29 94  1  0  0  0
 33 34  1  0  0  0
 33 66  1  0  0  0
 33 70  2  0  0  0
 34 36  1  0  0  0
 34 59  1  0  0  0
 34 95  1  0  0  0
 35 44  2  0  0  0
 35 45  1  0  0  0
 35 68  1  0  0  0
 36 56  1  0  0  0
 36 96  1  0  0  0
 37 39  1  0  0  0
 37 47  1  0  0  0
 37 66  1  0  0  0
 37 97  1  0  0  0
 38 43  2  0  0  0
 38 46  1  0  0  0
 38 47  1  0  0  0
 39 64  1  0  0  0
 39 67  2  0  0  0
 40 52  1  0  0  0
 40 53  2  0  0  0
 40 58  1  0  0  0
 41 98  1  0  0  0
 41 99  1  0  0  0
 41100  1  0  0  0
 41 48  1  0  0  0
 42 43  1  0  0  0
 42 66  1  0  0  0
 42101  1  0  0  0
 42102  1  0  0  0
 43 44  1  0  0  0
 44103  1  0  0  0
 45 46  2  0  0  0
 45104  1  0  0  0
 46105  1  0  0  0
 47106  1  0  0  0
 47107  1  0  0  0
 48 56  1  0  0  0
 48 65  1  0  0  0
 48108  1  0  0  0
 49 50  1  0  0  0
 49 53  1  0  0  0
 49 64  1  0  0  0
 49109  1  0  0  0
 50 51  1  0  0  0
 50110  1  0  0  0
 50111  1  0  0  0
 51 52  1  0  0  0
 51112  1  0  0  0
 51113  1  0  0  0
 52114  1  0  0  0
 52115  1  0  0  0
 53 54  1  0  0  0
 54 55  2  0  0  0
 54116  1  0  0  0
 55 57  1  0  0  0
 55117  1  0  0  0
 56 69  2  0  0  0
 57 58  2  0  0  0
 57118  1  0  0  0
 58119  1  0  0  0
 59 60  1  0  0  0
 59 61  1  0  0  0
 59 62  1  0  0  0
 60120  1  0  0  0
 60121  1  0  0  0
 60122  1  0  0  0
 61123  1  0  0  0
 61124  1  0  0  0
 61125  1  0  0  0
 62126  1  0  0  0
 62127  1  0  0  0
 62128  1  0  0  0
 63 65  1  0  0  0
 63129  1  0  0  0
 63130  1  0  0  0
 63131  1  0  0  0
 64132  1  0  0  0
 65133  1  0  0  0
 68 74  1  0  0  0
 71 72  1  0  0  0
 71134  1  0  0  0
 71135  1  0  0  0
 72 73  1  0  0  0
 72136  1  0  0  0
 72137  1  0  0  0
 73 74  1  0  0  0
 73138  1  0  0  0
 73139  1  0  0  0
 74140  1  0  0  0
 74141  1  0  0  0
M  ISO  4   1 100  68 101  71 100  74 101
M  END
> <chiral flag>
0

> <version>
0

> <s_m_source_file>
/data/baiqing/PycharmProjects/Reinvent-master-3.2/result/LINK_invent/BTK/process_docking_weight1_custom_sum_contain_oxygen_bond_distance_aromatic_linkinvent_7_9_3/rearranged_h_0004.sdf

> <i_m_source_file_index>
13

> <r_mmod_Potential_Energy-OPLS-2005>
3668.06030273438

> <r_mmod_Stretch_Energy-OPLS-2005>
1750.03735351562

> <r_mmod_Bend_Energy-OPLS-2005>
824.422912597656

> <r_mmod_Torsional_Energy-OPLS-2005>
187.771408081055

> <r_mmod_Improper_Torsional_Energy-OPLS-2005>
1.5564923286438

> <r_mmod_Van_der_Waal_Energy-OPLS-2005>
112.782829284668

> <r_mmod_Electrostatic_Energy-OPLS-2005>
-301.606292724609

> <r_mmod_Solvation_Energy-OPLS-2005>
-195.708908081055

> <b_mmod_Minimization_Converged-OPLS-2005>
1

> <r_mmod_RMS_Derivative-OPLS-2005>
0.0465158149600029

$$$$
13
                    3D
 Structure written by MMmdl.
140147  0  0  1  0            999 V2000
  -30.1611  -16.0041   20.3080 C   0  0  0  0  0  0
  -30.3940  -13.3709   19.5193 C   0  0  0  0  0  0
  -29.5602  -12.7495   18.3505 C   0  0  0  0  0  0
  -28.1679  -12.3098   18.8207 C   0  0  0  0  0  0
  -27.5837  -13.3431   19.8035 C   0  0  2  0  0  0
  -28.5794  -13.8362   20.8889 C   0  0  0  0  0  0
  -25.2278  -13.8329   20.5856 C   0  0  0  0  0  0
  -24.1700  -13.0433   20.9315 C   0  0  0  0  0  0
  -24.6450  -11.6960   20.8763 C   0  0  0  0  0  0
  -23.9156  -10.4295   21.0384 C   0  0  0  0  0  0
  -24.3676   -9.4207   21.9173 C   0  0  0  0  0  0
  -23.6326   -8.2253   22.0753 C   0  0  0  0  0  0
  -22.4305   -8.0296   21.3544 C   0  0  0  0  0  0
  -21.9960   -9.0273   20.4641 C   0  0  0  0  0  0
  -22.7315  -10.2138   20.3042 C   0  0  0  0  0  0
  -21.6863   -6.0747   22.5279 C   0  0  0  0  0  0
  -21.4022   -6.5646   23.8213 C   0  0  0  0  0  0
  -21.3661   -5.6796   24.9173 C   0  0  0  0  0  0
  -21.6044   -4.3059   24.7222 C   0  0  0  0  0  0
  -21.8818   -3.8153   23.4342 C   0  0  0  0  0  0
  -21.9196   -4.6972   22.3400 C   0  0  0  0  0  0
  -22.7702  -13.5137   21.1934 C   0  0  0  0  0  0
  -22.1662   -4.2158   21.0977 F   0  0  0  0  0  0
  -21.5626   -3.4540   25.7734 F   0  0  0  0  0  0
  -29.6775  -14.5802   20.1919 N   0  0  0  0  0  0
  -26.2769  -12.9729   20.3291 N   0  0  0  0  0  0
  -25.9412  -11.6758   20.5682 N   0  0  0  0  0  0
  -22.0374  -12.8106   22.0483 N   0  0  0  0  0  0
  -25.3817  -15.2078   20.4306 N   0  0  0  0  0  0
  -31.4087  -15.8722   20.2822 O   0  0  0  0  0  0
  -21.6655   -6.8899   21.4244 O   0  0  0  0  0  0
  -22.3368  -14.5432   20.6768 O   0  0  0  0  0  0
  -24.7122  -31.7741   23.1306 C   0  0  0  0  0  0
  -25.9575  -32.4339   23.7956 C   0  0  1  0  0  0
  -27.2357  -26.4414   20.2493 C   0  0  0  0  0  0
  -25.6043  -33.8173   24.1821 N   0  0  0  0  0  0
  -23.5502  -30.3697   21.4913 C   0  0  2  0  0  0
  -25.0042  -28.6446   20.1367 C   0  0  0  0  0  0
  -22.7896  -29.4343   22.4700 C   0  0  0  0  0  0
  -18.0162  -28.1569   22.8214 C   0  0  0  0  0  0
  -24.1498  -36.7093   23.2657 C   0  0  0  0  0  0
  -26.1405  -30.4200   21.4324 C   0  0  0  0  0  0
  -26.2010  -28.9529   20.7936 C   0  0  0  0  0  0
  -27.2917  -27.8910   20.8024 C   0  0  0  0  0  0
  -25.9991  -26.4075   19.5352 C   0  0  0  0  0  0
  -24.9575  -27.3998   19.4818 C   0  0  0  0  0  0
  -23.8153  -29.6344   20.1422 C   0  0  0  0  0  0
  -25.4158  -36.2817   24.0263 C   0  0  1  0  0  0
  -20.6073  -28.3875   23.0881 C   0  0  2  0  0  0
  -20.7786  -26.9756   22.4608 C   0  0  0  0  0  0
  -19.5498  -26.4216   21.7088 C   0  0  0  0  0  0
  -18.1097  -26.8638   22.0237 C   0  0  0  0  0  0
  -19.1588  -28.8842   23.2637 C   0  0  0  0  0  0
  -18.9570  -30.1345   23.8911 C   0  0  0  0  0  0
  -17.6624  -30.6560   24.0765 C   0  0  0  0  0  0
  -25.9160  -34.9216   23.4892 C   0  0  0  0  0  0
  -16.5419  -29.9202   23.6574 C   0  0  0  0  0  0
  -16.7219  -28.6723   23.0397 C   0  0  0  0  0  0
  -26.4648  -31.6466   25.0680 C   0  0  0  0  0  0
  -25.3637  -31.3855   26.1238 C   0  0  0  0  0  0
  -27.0614  -30.2776   24.6755 C   0  0  0  0  0  0
  -27.6047  -32.4377   25.7524 C   0  0  0  0  0  0
  -27.5558  -37.1705   24.8467 C   0  0  0  0  0  0
  -21.4495  -29.3435   22.3578 N   0  0  0  0  0  0
  -26.4262  -37.3606   23.9409 N   0  0  0  0  0  0
  -24.8283  -30.8941   22.0696 N   0  0  0  0  0  0
  -23.4210  -28.7802   23.3033 O   0  0  0  0  0  0
  -28.1967  -25.1262   20.2226 O   0  0  0  0  0  0
  -26.5824  -34.8842   22.4527 O   0  0  0  0  0  0
  -23.6085  -32.0940   23.6097 O   0  0  0  0  0  0
  -28.7705  -21.2825   19.9969 C   0  0  0  0  0  0
  -29.3625  -19.3536   20.6014 C   0  0  0  0  0  0
  -28.2110  -23.2498   20.5175 C   0  0  0  0  0  0
  -29.4079  -17.4693   20.2741 N   0  0  0  0  0  0
  -31.3466  -13.7011   19.1035 H   0  0  0  0  0  0
  -30.6640  -12.6081   20.2520 H   0  0  0  0  0  0
  -30.0920  -11.9085   17.9034 H   0  0  0  0  0  0
  -29.4512  -13.4961   17.5625 H   0  0  0  0  0  0
  -28.2677  -11.3481   19.3257 H   0  0  0  0  0  0
  -27.5014  -12.1499   17.9722 H   0  0  0  0  0  0
  -27.3925  -14.2099   19.1687 H   0  0  0  0  0  0
  -28.9347  -13.0208   21.5211 H   0  0  0  0  0  0
  -28.0774  -14.5353   21.5592 H   0  0  0  0  0  0
  -25.2813   -9.5677   22.4762 H   0  0  0  0  0  0
  -24.0020   -7.4647   22.7483 H   0  0  0  0  0  0
  -21.0888   -8.8807   19.8948 H   0  0  0  0  0  0
  -22.3776  -10.9680   19.6153 H   0  0  0  0  0  0
  -21.2018   -7.6155   23.9719 H   0  0  0  0  0  0
  -21.1482   -6.0525   25.9077 H   0  0  0  0  0  0
  -22.0594   -2.7615   23.2840 H   0  0  0  0  0  0
  -22.4027  -11.9789   22.4882 H   0  0  0  0  0  0
  -21.0974  -13.1085   22.2674 H   0  0  0  0  0  0
  -24.6092  -15.8546   20.5480 H   0  0  0  0  0  0
  -26.2271  -15.6547   20.1017 H   0  0  0  0  0  0
  -26.7689  -32.4750   23.0689 H   0  0  0  0  0  0
  -25.0068  -33.9166   24.9896 H   0  0  0  0  0  0
  -22.8946  -31.2157   21.2742 H   0  0  0  0  0  0
  -23.3788  -35.9392   23.3244 H   0  0  0  0  0  0
  -24.3558  -36.8846   22.2087 H   0  0  0  0  0  0
  -23.7232  -37.6231   23.6804 H   0  0  0  0  0  0
  -26.3681  -31.1235   20.6306 H   0  0  0  0  0  0
  -26.9832  -30.5006   22.1060 H   0  0  0  0  0  0
  -28.1975  -28.1537   21.3305 H   0  0  0  0  0  0
  -25.7911  -25.4872   19.0076 H   0  0  0  0  0  0
  -24.0632  -27.1495   18.9276 H   0  0  0  0  0  0
  -24.0136  -30.3783   19.3698 H   0  0  0  0  0  0
  -22.9130  -29.1146   19.8155 H   0  0  0  0  0  0
  -25.1379  -36.1542   25.0751 H   0  0  0  0  0  0
  -20.9993  -28.3319   24.1064 H   0  0  0  0  0  0
  -21.1583  -26.3040   23.2422 H   0  0  0  0  0  0
  -21.6163  -26.9721   21.7601 H   0  0  0  0  0  0
  -19.3880  -26.0269   22.7114 H   0  0  0  0  0  0
  -19.6128  -27.3462   21.1307 H   0  0  0  0  0  0
  -17.5815  -27.0283   21.0810 H   0  0  0  0  0  0
  -17.5017  -26.0951   22.5175 H   0  0  0  0  0  0
  -19.8097  -30.7074   24.2302 H   0  0  0  0  0  0
  -17.5302  -31.6181   24.5523 H   0  0  0  0  0  0
  -15.5460  -30.3152   23.8048 H   0  0  0  0  0  0
  -15.8546  -28.1225   22.6995 H   0  0  0  0  0  0
  -24.5858  -30.7178   25.7514 H   0  0  0  0  0  0
  -24.8793  -32.3100   26.4389 H   0  0  0  0  0  0
  -25.7743  -30.9184   27.0198 H   0  0  0  0  0  0
  -26.3378  -29.6321   24.1770 H   0  0  0  0  0  0
  -27.3966  -29.7315   25.5583 H   0  0  0  0  0  0
  -27.9387  -30.3845   24.0374 H   0  0  0  0  0  0
  -27.2557  -33.3779   26.1808 H   0  0  0  0  0  0
  -28.4013  -32.6778   25.0469 H   0  0  0  0  0  0
  -28.0543  -31.8704   26.5683 H   0  0  0  0  0  0
  -28.2525  -38.0046   24.7520 H   0  0  0  0  0  0
  -28.1104  -36.2565   24.6288 H   0  0  0  0  0  0
  -27.2271  -37.1326   25.8867 H   0  0  0  0  0  0
  -20.9859  -29.9264   21.6745 H   0  0  0  0  0  0
  -26.0065  -38.2641   24.1431 H   0  0  0  0  0  0
  -27.9479  -21.0312   19.3274 H   0  0  0  0  0  0
  -29.5799  -21.5046   19.3014 H   0  0  0  0  0  0
  -28.8623  -19.3135   21.5693 H   0  0  0  0  0  0
  -30.4044  -19.5229   20.8749 H   0  0  0  0  0  0
  -28.6621  -23.2870   21.5090 H   0  0  0  0  0  0
  -27.1534  -23.1048   20.7380 H   0  0  0  0  0  0
  -28.4467  -17.2150   20.0887 H   0  0  0  0  0  0
  1 25  1  0  0  0
  1 30  2  0  0  0
  1 74  1  0  0  0
  2  3  1  0  0  0
  2 25  1  0  0  0
  2 75  1  0  0  0
  2 76  1  0  0  0
  3  4  1  0  0  0
  3 77  1  0  0  0
  3 78  1  0  0  0
  4  5  1  0  0  0
  4 79  1  0  0  0
  4 80  1  0  0  0
  5  6  1  0  0  0
  5 26  1  0  0  0
  5 81  1  0  0  0
  6 25  1  0  0  0
  6 82  1  0  0  0
  6 83  1  0  0  0
  7  8  2  0  0  0
  7 26  1  0  0  0
  7 29  1  0  0  0
  8  9  1  0  0  0
  8 22  1  0  0  0
  9 10  1  0  0  0
  9 27  2  0  0  0
 10 11  2  0  0  0
 10 15  1  0  0  0
 11 12  1  0  0  0
 11 84  1  0  0  0
 12 13  2  0  0  0
 12 85  1  0  0  0
 13 14  1  0  0  0
 13 31  1  0  0  0
 14 15  2  0  0  0
 14 86  1  0  0  0
 15 87  1  0  0  0
 16 17  2  0  0  0
 16 21  1  0  0  0
 16 31  1  0  0  0
 17 18  1  0  0  0
 17 88  1  0  0  0
 18 19  2  0  0  0
 18 89  1  0  0  0
 19 20  1  0  0  0
 19 24  1  0  0  0
 20 21  2  0  0  0
 20 90  1  0  0  0
 21 23  1  0  0  0
 22 28  1  0  0  0
 22 32  2  0  0  0
 26 27  1  0  0  0
 28 91  1  0  0  0
 28 92  1  0  0  0
 29 93  1  0  0  0
 29 94  1  0  0  0
 33 34  1  0  0  0
 33 66  1  0  0  0
 33 70  2  0  0  0
 34 36  1  0  0  0
 34 59  1  0  0  0
 34 95  1  0  0  0
 35 44  2  0  0  0
 35 45  1  0  0  0
 35 68  1  0  0  0
 36 56  1  0  0  0
 36 96  1  0  0  0
 37 39  1  0  0  0
 37 47  1  0  0  0
 37 66  1  0  0  0
 37 97  1  0  0  0
 38 43  2  0  0  0
 38 46  1  0  0  0
 38 47  1  0  0  0
 39 64  1  0  0  0
 39 67  2  0  0  0
 40 52  1  0  0  0
 40 53  2  0  0  0
 40 58  1  0  0  0
 41 98  1  0  0  0
 41 99  1  0  0  0
 41100  1  0  0  0
 41 48  1  0  0  0
 42 43  1  0  0  0
 42 66  1  0  0  0
 42101  1  0  0  0
 42102  1  0  0  0
 43 44  1  0  0  0
 44103  1  0  0  0
 45 46  2  0  0  0
 45104  1  0  0  0
 46105  1  0  0  0
 47106  1  0  0  0
 47107  1  0  0  0
 48 56  1  0  0  0
 48 65  1  0  0  0
 48108  1  0  0  0
 49 50  1  0  0  0
 49 53  1  0  0  0
 49 64  1  0  0  0
 49109  1  0  0  0
 50 51  1  0  0  0
 50110  1  0  0  0
 50111  1  0  0  0
 51 52  1  0  0  0
 51112  1  0  0  0
 51113  1  0  0  0
 52114  1  0  0  0
 52115  1  0  0  0
 53 54  1  0  0  0
 54 55  2  0  0  0
 54116  1  0  0  0
 55 57  1  0  0  0
 55117  1  0  0  0
 56 69  2  0  0  0
 57 58  2  0  0  0
 57118  1  0  0  0
 58119  1  0  0  0
 59 60  1  0  0  0
 59 61  1  0  0  0
 59 62  1  0  0  0
 60120  1  0  0  0
 60121  1  0  0  0
 60122  1  0  0  0
 61123  1  0  0  0
 61124  1  0  0  0
 61125  1  0  0  0
 62126  1  0  0  0
 62127  1  0  0  0
 62128  1  0  0  0
 63 65  1  0  0  0
 63129  1  0  0  0
 63130  1  0  0  0
 63131  1  0  0  0
 64132  1  0  0  0
 65133  1  0  0  0
 68 73  1  0  0  0
 71 72  1  0  0  0
 71 73  1  0  0  0
 71134  1  0  0  0
 71135  1  0  0  0
 72 74  1  0  0  0
 72136  1  0  0  0
 72137  1  0  0  0
 73138  1  0  0  0
 73139  1  0  0  0
 74140  1  0  0  0
M  ISO  4   1 100  68 101  73 101  74 100
M  END
> <chiral flag>
0

> <version>
0

> <s_m_source_file>
/data/baiqing/PycharmProjects/Reinvent-master-3.2/result/LINK_invent/BTK/process_docking_weight1_custom_sum_contain_oxygen_bond_distance_aromatic_linkinvent_7_9_3/rearranged_h_0004.sdf

> <i_m_source_file_index>
14

> <r_mmod_Potential_Energy-OPLS-2005>
4439.1796875

> <r_mmod_Stretch_Energy-OPLS-2005>
1928.78686523438

> <r_mmod_Bend_Energy-OPLS-2005>
1134.07287597656

> <r_mmod_Torsional_Energy-OPLS-2005>
253.740341186523

> <r_mmod_Improper_Torsional_Energy-OPLS-2005>
5.21059560775757

> <r_mmod_Van_der_Waal_Energy-OPLS-2005>
136.971328735352

> <r_mmod_Electrostatic_Energy-OPLS-2005>
-343.119842529297

> <r_mmod_Solvation_Energy-OPLS-2005>
-223.109710693359

> <b_mmod_Minimization_Converged-OPLS-2005>
0

> <r_mmod_RMS_Derivative-OPLS-2005>
0.0710311159491539

$$$$
14
                    3D
 Structure written by MMmdl.
147155  0  0  1  0            999 V2000
  -30.4016  -15.3240   20.3761 C   0  0  0  0  0  0
  -30.4379  -12.8594   19.5126 C   0  0  0  0  0  0
  -29.5308  -12.5780   18.2878 C   0  0  0  0  0  0
  -28.0888  -12.2786   18.7314 C   0  0  0  0  0  0
  -27.6030  -13.2730   19.8141 C   0  0  2  0  0  0
  -28.6363  -13.4849   20.9405 C   0  0  0  0  0  0
  -25.2361  -13.8229   20.5753 C   0  0  0  0  0  0
  -24.1713  -13.0425   20.9272 C   0  0  0  0  0  0
  -24.6364  -11.6925   20.8782 C   0  0  0  0  0  0
  -23.9066  -10.4290   21.0423 C   0  0  0  0  0  0
  -24.3619   -9.4204   21.9198 C   0  0  0  0  0  0
  -23.6300   -8.2227   22.0737 C   0  0  0  0  0  0
  -22.4275   -8.0270   21.3533 C   0  0  0  0  0  0
  -21.9918   -9.0250   20.4641 C   0  0  0  0  0  0
  -22.7237  -10.2138   20.3070 C   0  0  0  0  0  0
  -21.6850   -6.0748   22.5284 C   0  0  0  0  0  0
  -21.4025   -6.5645   23.8227 C   0  0  0  0  0  0
  -21.3660   -5.6791   24.9177 C   0  0  0  0  0  0
  -21.6038   -4.3056   24.7227 C   0  0  0  0  0  0
  -21.8815   -3.8151   23.4346 C   0  0  0  0  0  0
  -21.9189   -4.6972   22.3403 C   0  0  0  0  0  0
  -22.7737  -13.5192   21.1928 C   0  0  0  0  0  0
  -22.1648   -4.2160   21.0984 F   0  0  0  0  0  0
  -21.5622   -3.4534   25.7738 F   0  0  0  0  0  0
  -29.8510  -14.0105   20.2941 N   0  0  0  0  0  0
  -26.2776  -12.9500   20.3216 N   0  0  0  0  0  0
  -25.9301  -11.6610   20.5724 N   0  0  0  0  0  0
  -22.0386  -12.8167   22.0466 N   0  0  0  0  0  0
  -25.3999  -15.1964   20.4192 N   0  0  0  0  0  0
  -31.6362  -15.3181   20.2522 O   0  0  0  0  0  0
  -21.6626   -6.8874   21.4241 O   0  0  0  0  0  0
  -22.3422  -14.5507   20.6786 O   0  0  0  0  0  0
  -24.6658  -31.8208   23.1649 C   0  0  0  0  0  0
  -25.9327  -32.4569   23.8144 C   0  0  1  0  0  0
  -27.2183  -26.8869   20.2030 C   0  0  0  0  0  0
  -25.5976  -33.8382   24.2047 N   0  0  0  0  0  0
  -23.4811  -30.4293   21.5172 C   0  0  2  0  0  0
  -24.9335  -28.8004   20.1225 C   0  0  0  0  0  0
  -22.7676  -29.4432   22.4790 C   0  0  0  0  0  0
  -18.0326  -28.1408   22.8465 C   0  0  0  0  0  0
  -24.1494  -36.7202   23.2652 C   0  0  0  0  0  0
  -26.0527  -30.6152   21.3996 C   0  0  0  0  0  0
  -26.1208  -29.1979   20.7508 C   0  0  0  0  0  0
  -27.2609  -28.2670   20.7540 C   0  0  0  0  0  0
  -25.9973  -26.6464   19.5352 C   0  0  0  0  0  0
  -24.8991  -27.5457   19.4935 C   0  0  0  0  0  0
  -23.7227  -29.7353   20.1489 C   0  0  0  0  0  0
  -25.4135  -36.2943   24.0296 C   0  0  1  0  0  0
  -20.5951  -28.3765   23.1185 C   0  0  2  0  0  0
  -20.6800  -26.9444   22.5405 C   0  0  0  0  0  0
  -19.5767  -26.6374   21.5217 C   0  0  0  0  0  0
  -18.1951  -26.7939   22.1625 C   0  0  0  0  0  0
  -19.1587  -28.8907   23.2807 C   0  0  0  0  0  0
  -18.9494  -30.1498   23.8847 C   0  0  0  0  0  0
  -17.6487  -30.6599   24.0562 C   0  0  0  0  0  0
  -25.9104  -34.9333   23.4993 C   0  0  0  0  0  0
  -16.5384  -29.9084   23.6343 C   0  0  0  0  0  0
  -16.7307  -28.6503   23.0363 C   0  0  0  0  0  0
  -26.4564  -31.6523   25.0685 C   0  0  0  0  0  0
  -25.3682  -31.3799   26.1345 C   0  0  0  0  0  0
  -27.0460  -30.2879   24.6452 C   0  0  0  0  0  0
  -27.6045  -32.4344   25.7478 C   0  0  0  0  0  0
  -27.5565  -37.1730   24.8461 C   0  0  0  0  0  0
  -21.4351  -29.3043   22.3527 N   0  0  0  0  0  0
  -26.4275  -37.3681   23.9403 N   0  0  0  0  0  0
  -24.7549  -30.9840   22.0803 N   0  0  0  0  0  0
  -23.4212  -28.8024   23.3056 O   0  0  0  0  0  0
  -28.2477  -25.7951   20.1818 O   0  0  0  0  0  0
  -26.5722  -34.8881   22.4594 O   0  0  0  0  0  0
  -23.5724  -32.1214   23.6714 O   0  0  0  0  0  0
  -30.8623  -19.9073   22.0151 C   0  0  0  0  0  0
  -30.1505  -21.0395   21.5273 C   0  0  0  0  0  0
  -30.6954  -18.5699   21.5602 C   0  0  0  0  0  0
  -29.0192  -19.4788   20.0782 C   0  0  0  0  0  0
  -29.1824  -20.9718   20.5002 C   0  0  0  0  0  0
  -29.7518  -18.1977   20.5771 C   0  0  0  0  0  0
  -28.1724  -24.1697   20.5921 C   0  0  0  0  0  0
  -28.6012  -22.5319   19.8863 C   0  0  0  0  0  0
  -29.6074  -16.5930   20.3079 N   0  0  0  0  0  0
  -29.5544  -22.8423   19.0085 F   0  0  0  0  0  0
  -27.5230  -22.1982   19.1782 F   0  0  0  0  0  0
  -30.5380  -11.9737   20.1417 H   0  0  0  0  0  0
  -31.4466  -13.0903   19.1657 H   0  0  0  0  0  0
  -29.9251  -11.7476   17.7005 H   0  0  0  0  0  0
  -29.5307  -13.4474   17.6292 H   0  0  0  0  0  0
  -28.0728  -11.2665   19.1374 H   0  0  0  0  0  0
  -27.4130  -12.2746   17.8753 H   0  0  0  0  0  0
  -27.5045  -14.2242   19.2908 H   0  0  0  0  0  0
  -28.2651  -14.2177   21.6589 H   0  0  0  0  0  0
  -28.8251  -12.5675   21.4996 H   0  0  0  0  0  0
  -25.2754   -9.5676   22.4796 H   0  0  0  0  0  0
  -24.0012   -7.4610   22.7450 H   0  0  0  0  0  0
  -21.0845   -8.8779   19.8957 H   0  0  0  0  0  0
  -22.3681  -10.9692   19.6197 H   0  0  0  0  0  0
  -21.2022   -7.6155   23.9730 H   0  0  0  0  0  0
  -21.1482   -6.0522   25.9086 H   0  0  0  0  0  0
  -22.0594   -2.7616   23.2839 H   0  0  0  0  0  0
  -22.4008  -11.9832   22.4865 H   0  0  0  0  0  0
  -21.1015  -13.1205   22.2710 H   0  0  0  0  0  0
  -24.6303  -15.8473   20.5314 H   0  0  0  0  0  0
  -26.2375  -15.6371   20.0653 H   0  0  0  0  0  0
  -26.7398  -32.5077   23.0861 H   0  0  0  0  0  0
  -25.0020  -33.9444   25.0124 H   0  0  0  0  0  0
  -22.7959  -31.2609   21.3397 H   0  0  0  0  0  0
  -23.3745  -35.9542   23.3290 H   0  0  0  0  0  0
  -24.3564  -36.8877   22.2070 H   0  0  0  0  0  0
  -23.7269  -37.6394   23.6731 H   0  0  0  0  0  0
  -26.2406  -31.3532   20.6188 H   0  0  0  0  0  0
  -26.9092  -30.6709   22.0588 H   0  0  0  0  0  0
  -28.1697  -28.5813   21.2458 H   0  0  0  0  0  0
  -25.8723  -25.6924   19.0429 H   0  0  0  0  0  0
  -23.9976  -27.2328   18.9851 H   0  0  0  0  0  0
  -23.8869  -30.4981   19.3870 H   0  0  0  0  0  0
  -22.8303  -29.1941   19.8302 H   0  0  0  0  0  0
  -25.1330  -36.1721   25.0787 H   0  0  0  0  0  0
  -21.0045  -28.3377   24.1308 H   0  0  0  0  0  0
  -20.5681  -26.2387   23.3652 H   0  0  0  0  0  0
  -21.6659  -26.7424   22.1207 H   0  0  0  0  0  0
  -19.6933  -25.6267   21.1279 H   0  0  0  0  0  0
  -19.6691  -27.3160   20.6722 H   0  0  0  0  0  0
  -17.4223  -26.6697   21.4026 H   0  0  0  0  0  0
  -18.0348  -26.0081   22.9019 H   0  0  0  0  0  0
  -19.7971  -30.7322   24.2192 H   0  0  0  0  0  0
  -17.5039  -31.6268   24.5181 H   0  0  0  0  0  0
  -15.5379  -30.2972   23.7678 H   0  0  0  0  0  0
  -15.8711  -28.0801   22.7113 H   0  0  0  0  0  0
  -24.5796  -30.7247   25.7626 H   0  0  0  0  0  0
  -24.8957  -32.3022   26.4735 H   0  0  0  0  0  0
  -25.7895  -30.8945   27.0160 H   0  0  0  0  0  0
  -26.3127  -29.6508   24.1493 H   0  0  0  0  0  0
  -27.4000  -29.7297   25.5129 H   0  0  0  0  0  0
  -27.9069  -30.4027   23.9867 H   0  0  0  0  0  0
  -27.2559  -33.3638   26.1997 H   0  0  0  0  0  0
  -28.3875  -32.6939   25.0335 H   0  0  0  0  0  0
  -28.0717  -31.8538   26.5444 H   0  0  0  0  0  0
  -28.2576  -38.0030   24.7490 H   0  0  0  0  0  0
  -28.1067  -36.2560   24.6298 H   0  0  0  0  0  0
  -27.2292  -37.1392   25.8867 H   0  0  0  0  0  0
  -20.9627  -29.8701   21.6619 H   0  0  0  0  0  0
  -26.0121  -38.2738   24.1411 H   0  0  0  0  0  0
  -31.5984  -20.0741   22.7899 H   0  0  0  0  0  0
  -30.3939  -22.0100   21.9367 H   0  0  0  0  0  0
  -31.3023  -17.8038   22.0219 H   0  0  0  0  0  0
  -28.2903  -19.3072   19.2982 H   0  0  0  0  0  0
  -28.8167  -24.1907   21.4697 H   0  0  0  0  0  0
  -27.1784  -24.0469   21.0218 H   0  0  0  0  0  0
  -28.6517  -16.3520   20.0910 H   0  0  0  0  0  0
  1 25  1  0  0  0
  1 30  2  0  0  0
  1 79  1  0  0  0
  2  3  1  0  0  0
  2 25  1  0  0  0
  2 82  1  0  0  0
  2 83  1  0  0  0
  3  4  1  0  0  0
  3 84  1  0  0  0
  3 85  1  0  0  0
  4  5  1  0  0  0
  4 86  1  0  0  0
  4 87  1  0  0  0
  5  6  1  0  0  0
  5 26  1  0  0  0
  5 88  1  0  0  0
  6 25  1  0  0  0
  6 89  1  0  0  0
  6 90  1  0  0  0
  7  8  2  0  0  0
  7 26  1  0  0  0
  7 29  1  0  0  0
  8  9  1  0  0  0
  8 22  1  0  0  0
  9 10  1  0  0  0
  9 27  2  0  0  0
 10 11  2  0  0  0
 10 15  1  0  0  0
 11 12  1  0  0  0
 11 91  1  0  0  0
 12 13  2  0  0  0
 12 92  1  0  0  0
 13 14  1  0  0  0
 13 31  1  0  0  0
 14 15  2  0  0  0
 14 93  1  0  0  0
 15 94  1  0  0  0
 16 17  2  0  0  0
 16 21  1  0  0  0
 16 31  1  0  0  0
 17 18  1  0  0  0
 17 95  1  0  0  0
 18 19  2  0  0  0
 18 96  1  0  0  0
 19 20  1  0  0  0
 19 24  1  0  0  0
 20 21  2  0  0  0
 20 97  1  0  0  0
 21 23  1  0  0  0
 22 28  1  0  0  0
 22 32  2  0  0  0
 26 27  1  0  0  0
 28 98  1  0  0  0
 28 99  1  0  0  0
 29100  1  0  0  0
 29101  1  0  0  0
 33 34  1  0  0  0
 33 66  1  0  0  0
 33 70  2  0  0  0
 34 36  1  0  0  0
 34 59  1  0  0  0
 34102  1  0  0  0
 35 44  2  0  0  0
 35 45  1  0  0  0
 35 68  1  0  0  0
 36 56  1  0  0  0
 36103  1  0  0  0
 37 39  1  0  0  0
 37 47  1  0  0  0
 37 66  1  0  0  0
 37104  1  0  0  0
 38 43  2  0  0  0
 38 46  1  0  0  0
 38 47  1  0  0  0
 39 64  1  0  0  0
 39 67  2  0  0  0
 40 52  1  0  0  0
 40 53  2  0  0  0
 40 58  1  0  0  0
 41105  1  0  0  0
 41106  1  0  0  0
 41107  1  0  0  0
 41 48  1  0  0  0
 42 43  1  0  0  0
 42 66  1  0  0  0
 42108  1  0  0  0
 42109  1  0  0  0
 43 44  1  0  0  0
 44110  1  0  0  0
 45 46  2  0  0  0
 45111  1  0  0  0
 46112  1  0  0  0
 47113  1  0  0  0
 47114  1  0  0  0
 48 56  1  0  0  0
 48 65  1  0  0  0
 48115  1  0  0  0
 49 50  1  0  0  0
 49 53  1  0  0  0
 49 64  1  0  0  0
 49116  1  0  0  0
 50 51  1  0  0  0
 50117  1  0  0  0
 50118  1  0  0  0
 51 52  1  0  0  0
 51119  1  0  0  0
 51120  1  0  0  0
 52121  1  0  0  0
 52122  1  0  0  0
 53 54  1  0  0  0
 54 55  2  0  0  0
 54123  1  0  0  0
 55 57  1  0  0  0
 55124  1  0  0  0
 56 69  2  0  0  0
 57 58  2  0  0  0
 57125  1  0  0  0
 58126  1  0  0  0
 59 60  1  0  0  0
 59 61  1  0  0  0
 59 62  1  0  0  0
 60127  1  0  0  0
 60128  1  0  0  0
 60129  1  0  0  0
 61130  1  0  0  0
 61131  1  0  0  0
 61132  1  0  0  0
 62133  1  0  0  0
 62134  1  0  0  0
 62135  1  0  0  0
 63 65  1  0  0  0
 63136  1  0  0  0
 63137  1  0  0  0
 63138  1  0  0  0
 64139  1  0  0  0
 65140  1  0  0  0
 68 77  1  0  0  0
 71 72  2  0  0  0
 71 73  1  0  0  0
 71141  1  0  0  0
 72 75  1  0  0  0
 72142  1  0  0  0
 73 76  2  0  0  0
 73143  1  0  0  0
 74 75  2  0  0  0
 74 76  1  0  0  0
 74144  1  0  0  0
 75 78  1  0  0  0
 76 79  1  0  0  0
 77 78  1  0  0  0
 77145  1  0  0  0
 77146  1  0  0  0
 78 80  1  0  0  0
 78 81  1  0  0  0
 79147  1  0  0  0
M  ISO  4   1 100  68 101  77 101  79 100
M  END
> <chiral flag>
0

> <version>
0

> <s_m_source_file>
/data/baiqing/PycharmProjects/Reinvent-master-3.2/result/LINK_invent/BTK/process_docking_weight1_custom_sum_contain_oxygen_bond_distance_aromatic_linkinvent_7_9_3/rearranged_h_0004.sdf

> <i_m_source_file_index>
15

> <r_mmod_Potential_Energy-OPLS-2005>
1456.74291992188

> <r_mmod_Stretch_Energy-OPLS-2005>
649.458068847656

> <r_mmod_Bend_Energy-OPLS-2005>
454.424499511719

> <r_mmod_Torsional_Energy-OPLS-2005>
246.933364868164

> <r_mmod_Improper_Torsional_Energy-OPLS-2005>
8.07455730438232

> <r_mmod_Van_der_Waal_Energy-OPLS-2005>
120.850692749023

> <r_mmod_Electrostatic_Energy-OPLS-2005>
-332.642700195312

> <r_mmod_Solvation_Energy-OPLS-2005>
-208.471649169922

> <b_mmod_Minimization_Converged-OPLS-2005>
0

> <r_mmod_RMS_Derivative-OPLS-2005>
2.34223031997681

$$$$
15
                    3D
 Structure written by MMmdl.
151159  0  0  1  0            999 V2000
  -30.6141  -14.7355   20.4749 C   0  0  0  0  0  0
  -30.4298  -12.4534   19.4658 C   0  0  0  0  0  0
  -29.5075  -12.5117   18.2293 C   0  0  0  0  0  0
  -28.0332  -12.3324   18.6426 C   0  0  0  0  0  0
  -27.6383  -13.2299   19.8459 C   0  0  2  0  0  0
  -28.6833  -13.1639   20.9802 C   0  0  0  0  0  0
  -25.2496  -13.8194   20.5689 C   0  0  0  0  0  0
  -24.1791  -13.0437   20.9203 C   0  0  0  0  0  0
  -24.6376  -11.6916   20.8730 C   0  0  0  0  0  0
  -23.9054  -10.4292   21.0395 C   0  0  0  0  0  0
  -24.3614   -9.4214   21.9174 C   0  0  0  0  0  0
  -23.6300   -8.2241   22.0746 C   0  0  0  0  0  0
  -22.4280   -8.0271   21.3541 C   0  0  0  0  0  0
  -21.9909   -9.0236   20.4637 C   0  0  0  0  0  0
  -22.7227  -10.2122   20.3044 C   0  0  0  0  0  0
  -21.6856   -6.0731   22.5281 C   0  0  0  0  0  0
  -21.4015   -6.5637   23.8213 C   0  0  0  0  0  0
  -21.3662   -5.6790   24.9175 C   0  0  0  0  0  0
  -21.6047   -4.3054   24.7226 C   0  0  0  0  0  0
  -21.8820   -3.8143   23.4348 C   0  0  0  0  0  0
  -21.9195   -4.6959   22.3404 C   0  0  0  0  0  0
  -22.7811  -13.5217   21.1873 C   0  0  0  0  0  0
  -22.1666   -4.2144   21.0983 F   0  0  0  0  0  0
  -21.5629   -3.4539   25.7739 F   0  0  0  0  0  0
  -29.9821  -13.5154   20.3941 N   0  0  0  0  0  0
  -26.2913  -12.9394   20.3251 N   0  0  0  0  0  0
  -25.9305  -11.6539   20.5731 N   0  0  0  0  0  0
  -22.0469  -12.8193   22.0430 N   0  0  0  0  0  0
  -25.4172  -15.1922   20.4117 N   0  0  0  0  0  0
  -31.8111  -14.8203   20.1850 O   0  0  0  0  0  0
  -21.6650   -6.8867   21.4239 O   0  0  0  0  0  0
  -22.3490  -14.5524   20.6727 O   0  0  0  0  0  0
  -24.6312  -31.8542   23.1963 C   0  0  0  0  0  0
  -25.9141  -32.4745   23.8311 C   0  0  1  0  0  0
  -27.2219  -27.2695   20.1388 C   0  0  0  0  0  0
  -25.5936  -33.8546   24.2236 N   0  0  0  0  0  0
  -23.4267  -30.4766   21.5394 C   0  0  2  0  0  0
  -24.8734  -28.9156   20.1147 C   0  0  0  0  0  0
  -22.7493  -29.4613   22.4915 C   0  0  0  0  0  0
  -18.0289  -28.1390   22.8478 C   0  0  0  0  0  0
  -24.1493  -36.7285   23.2642 C   0  0  0  0  0  0
  -25.9706  -30.7716   21.3719 C   0  0  0  0  0  0
  -26.0447  -29.3927   20.7179 C   0  0  0  0  0  0
  -27.2255  -28.5843   20.7114 C   0  0  0  0  0  0
  -26.0293  -26.8484   19.5170 C   0  0  0  0  0  0
  -24.8697  -27.6506   19.5034 C   0  0  0  0  0  0
  -23.6441  -29.8037   20.1579 C   0  0  0  0  0  0
  -25.4118  -36.3062   24.0325 C   0  0  1  0  0  0
  -20.5895  -28.3708   23.1264 C   0  0  2  0  0  0
  -20.6781  -26.9427   22.5404 C   0  0  0  0  0  0
  -19.5757  -26.6384   21.5211 C   0  0  0  0  0  0
  -18.1936  -26.7932   22.1619 C   0  0  0  0  0  0
  -19.1543  -28.8863   23.2869 C   0  0  0  0  0  0
  -18.9464  -30.1460   23.8894 C   0  0  0  0  0  0
  -17.6467  -30.6591   24.0564 C   0  0  0  0  0  0
  -25.9054  -34.9434   23.5081 C   0  0  0  0  0  0
  -16.5354  -29.9091   23.6335 C   0  0  0  0  0  0
  -16.7275  -28.6506   23.0355 C   0  0  0  0  0  0
  -26.4507  -31.6572   25.0703 C   0  0  0  0  0  0
  -25.3729  -31.3725   26.1422 C   0  0  0  0  0  0
  -27.0355  -30.2984   24.6198 C   0  0  0  0  0  0
  -27.6046  -32.4324   25.7486 C   0  0  0  0  0  0
  -27.5579  -37.1797   24.8460 C   0  0  0  0  0  0
  -21.4202  -29.3053   22.3650 N   0  0  0  0  0  0
  -26.4288  -37.3764   23.9407 N   0  0  0  0  0  0
  -24.6951  -31.0523   22.0922 N   0  0  0  0  0  0
  -23.4191  -28.8169   23.3026 O   0  0  0  0  0  0
  -28.3271  -26.3949   20.1349 O   0  0  0  0  0  0
  -26.5631  -34.8917   22.4650 O   0  0  0  0  0  0
  -23.5464  -32.1354   23.7273 O   0  0  0  0  0  0
  -31.7784  -18.8913   21.8651 C   0  0  0  0  0  0
  -31.0064  -19.9961   21.4563 C   0  0  0  0  0  0
  -31.3925  -17.5709   21.5648 C   0  0  0  0  0  0
  -29.8033  -19.8378   20.7285 C   0  0  0  0  0  0
  -30.2118  -17.2962   20.8396 C   0  0  0  0  0  0
  -29.4239  -18.4575   20.4290 C   0  0  0  0  0  0
  -29.0815  -22.3546   20.7784 C   0  0  0  0  0  0
  -28.6063  -23.6488   19.9510 C   0  0  0  0  0  0
  -28.1872  -25.0181   20.7235 C   0  0  0  0  0  0
  -29.0909  -21.0626   20.2561 N   0  0  0  0  0  0
  -29.8319  -15.8748   20.6197 N   0  0  0  0  0  0
  -29.4373  -22.5456   21.9435 O   0  0  0  0  0  0
  -28.2840  -18.2406   19.7291 F   0  0  0  0  0  0
  -31.4711  -12.5784   19.1640 H   0  0  0  0  0  0
  -30.3709  -11.4757   19.9467 H   0  0  0  0  0  0
  -29.7925  -11.7447   17.5080 H   0  0  0  0  0  0
  -29.6320  -13.4705   17.7228 H   0  0  0  0  0  0
  -27.8907  -11.2829   18.9019 H   0  0  0  0  0  0
  -27.3755  -12.5269   17.7944 H   0  0  0  0  0  0
  -27.6305  -14.2512   19.4646 H   0  0  0  0  0  0
  -28.7177  -12.1667   21.4219 H   0  0  0  0  0  0
  -28.4186  -13.8486   21.7876 H   0  0  0  0  0  0
  -25.2755   -9.5706   22.4750 H   0  0  0  0  0  0
  -24.0017   -7.4635   22.7463 H   0  0  0  0  0  0
  -21.0842   -8.8738   19.8941 H   0  0  0  0  0  0
  -22.3672  -10.9653   19.6152 H   0  0  0  0  0  0
  -21.2009   -7.6144   23.9716 H   0  0  0  0  0  0
  -21.1486   -6.0521   25.9079 H   0  0  0  0  0  0
  -22.0599   -2.7603   23.2853 H   0  0  0  0  0  0
  -22.4106  -11.9863   22.4816 H   0  0  0  0  0  0
  -21.1074  -13.1184   22.2629 H   0  0  0  0  0  0
  -24.6442  -15.8398   20.5192 H   0  0  0  0  0  0
  -26.2577  -15.6387   20.0693 H   0  0  0  0  0  0
  -26.7213  -32.5394   23.1059 H   0  0  0  0  0  0
  -25.0076  -33.9675   25.0376 H   0  0  0  0  0  0
  -22.7233  -31.2985   21.3913 H   0  0  0  0  0  0
  -23.3751  -35.9623   23.3290 H   0  0  0  0  0  0
  -24.3587  -36.8923   22.2060 H   0  0  0  0  0  0
  -23.7256  -37.6486   23.6674 H   0  0  0  0  0  0
  -26.1070  -31.5312   20.6012 H   0  0  0  0  0  0
  -26.8490  -30.8210   22.0039 H   0  0  0  0  0  0
  -28.1278  -28.9497   21.1815 H   0  0  0  0  0  0
  -25.9902  -25.8758   19.0468 H   0  0  0  0  0  0
  -23.9723  -27.2780   19.0281 H   0  0  0  0  0  0
  -23.7687  -30.5759   19.3974 H   0  0  0  0  0  0
  -22.7618  -29.2369   19.8557 H   0  0  0  0  0  0
  -25.1309  -36.1897   25.0820 H   0  0  0  0  0  0
  -20.9986  -28.3290   24.1387 H   0  0  0  0  0  0
  -20.5678  -26.2325   23.3615 H   0  0  0  0  0  0
  -21.6649  -26.7456   22.1200 H   0  0  0  0  0  0
  -19.6920  -25.6291   21.1248 H   0  0  0  0  0  0
  -19.6692  -27.3189   20.6736 H   0  0  0  0  0  0
  -17.4209  -26.6677   21.4021 H   0  0  0  0  0  0
  -18.0338  -26.0077   22.9016 H   0  0  0  0  0  0
  -19.7941  -30.7272   24.2265 H   0  0  0  0  0  0
  -17.5021  -31.6273   24.5164 H   0  0  0  0  0  0
  -15.5354  -30.2994   23.7657 H   0  0  0  0  0  0
  -15.8674  -28.0820   22.7083 H   0  0  0  0  0  0
  -24.5905  -30.7075   25.7751 H   0  0  0  0  0  0
  -24.8927  -32.2894   26.4844 H   0  0  0  0  0  0
  -25.8047  -30.8901   27.0198 H   0  0  0  0  0  0
  -26.2936  -29.6720   24.1227 H   0  0  0  0  0  0
  -27.4032  -29.7266   25.4732 H   0  0  0  0  0  0
  -27.8819  -30.4251   23.9443 H   0  0  0  0  0  0
  -27.2632  -33.3622   26.2051 H   0  0  0  0  0  0
  -28.3865  -32.6887   25.0324 H   0  0  0  0  0  0
  -28.0703  -31.8459   26.5416 H   0  0  0  0  0  0
  -28.2583  -38.0106   24.7518 H   0  0  0  0  0  0
  -28.1090  -36.2638   24.6271 H   0  0  0  0  0  0
  -27.2299  -37.1428   25.8864 H   0  0  0  0  0  0
  -20.9391  -29.8752   21.6835 H   0  0  0  0  0  0
  -26.0161  -38.2834   24.1407 H   0  0  0  0  0  0
  -32.6908  -19.0618   22.4197 H   0  0  0  0  0  0
  -31.3773  -20.9812   21.6988 H   0  0  0  0  0  0
  -32.0199  -16.7647   21.9178 H   0  0  0  0  0  0
  -27.7949  -23.3582   19.2841 H   0  0  0  0  0  0
  -29.4439  -23.8899   19.2972 H   0  0  0  0  0  0
  -28.7811  -25.0666   21.6364 H   0  0  0  0  0  0
  -27.1661  -24.8886   21.0844 H   0  0  0  0  0  0
  -28.5938  -20.9473   19.3833 H   0  0  0  0  0  0
  -28.8390  -15.7057   20.5863 H   0  0  0  0  0  0
  1 25  1  0  0  0
  1 30  2  0  0  0
  1 81  1  0  0  0
  2  3  1  0  0  0
  2 25  1  0  0  0
  2 84  1  0  0  0
  2 85  1  0  0  0
  3  4  1  0  0  0
  3 86  1  0  0  0
  3 87  1  0  0  0
  4  5  1  0  0  0
  4 88  1  0  0  0
  4 89  1  0  0  0
  5  6  1  0  0  0
  5 26  1  0  0  0
  5 90  1  0  0  0
  6 25  1  0  0  0
  6 91  1  0  0  0
  6 92  1  0  0  0
  7  8  2  0  0  0
  7 26  1  0  0  0
  7 29  1  0  0  0
  8  9  1  0  0  0
  8 22  1  0  0  0
  9 10  1  0  0  0
  9 27  2  0  0  0
 10 11  2  0  0  0
 10 15  1  0  0  0
 11 12  1  0  0  0
 11 93  1  0  0  0
 12 13  2  0  0  0
 12 94  1  0  0  0
 13 14  1  0  0  0
 13 31  1  0  0  0
 14 15  2  0  0  0
 14 95  1  0  0  0
 15 96  1  0  0  0
 16 17  2  0  0  0
 16 21  1  0  0  0
 16 31  1  0  0  0
 17 18  1  0  0  0
 17 97  1  0  0  0
 18 19  2  0  0  0
 18 98  1  0  0  0
 19 20  1  0  0  0
 19 24  1  0  0  0
 20 21  2  0  0  0
 20 99  1  0  0  0
 21 23  1  0  0  0
 22 28  1  0  0  0
 22 32  2  0  0  0
 26 27  1  0  0  0
 28100  1  0  0  0
 28101  1  0  0  0
 29102  1  0  0  0
 29103  1  0  0  0
 33 34  1  0  0  0
 33 66  1  0  0  0
 33 70  2  0  0  0
 34 36  1  0  0  0
 34 59  1  0  0  0
 34104  1  0  0  0
 35 44  2  0  0  0
 35 45  1  0  0  0
 35 68  1  0  0  0
 36 56  1  0  0  0
 36105  1  0  0  0
 37 39  1  0  0  0
 37 47  1  0  0  0
 37 66  1  0  0  0
 37106  1  0  0  0
 38 43  2  0  0  0
 38 46  1  0  0  0
 38 47  1  0  0  0
 39 64  1  0  0  0
 39 67  2  0  0  0
 40 52  1  0  0  0
 40 53  2  0  0  0
 40 58  1  0  0  0
 41107  1  0  0  0
 41108  1  0  0  0
 41109  1  0  0  0
 41 48  1  0  0  0
 42 43  1  0  0  0
 42 66  1  0  0  0
 42110  1  0  0  0
 42111  1  0  0  0
 43 44  1  0  0  0
 44112  1  0  0  0
 45 46  2  0  0  0
 45113  1  0  0  0
 46114  1  0  0  0
 47115  1  0  0  0
 47116  1  0  0  0
 48 56  1  0  0  0
 48 65  1  0  0  0
 48117  1  0  0  0
 49 50  1  0  0  0
 49 53  1  0  0  0
 49 64  1  0  0  0
 49118  1  0  0  0
 50 51  1  0  0  0
 50119  1  0  0  0
 50120  1  0  0  0
 51 52  1  0  0  0
 51121  1  0  0  0
 51122  1  0  0  0
 52123  1  0  0  0
 52124  1  0  0  0
 53 54  1  0  0  0
 54 55  2  0  0  0
 54125  1  0  0  0
 55 57  1  0  0  0
 55126  1  0  0  0
 56 69  2  0  0  0
 57 58  2  0  0  0
 57127  1  0  0  0
 58128  1  0  0  0
 59 60  1  0  0  0
 59 61  1  0  0  0
 59 62  1  0  0  0
 60129  1  0  0  0
 60130  1  0  0  0
 60131  1  0  0  0
 61132  1  0  0  0
 61133  1  0  0  0
 61134  1  0  0  0
 62135  1  0  0  0
 62136  1  0  0  0
 62137  1  0  0  0
 63 65  1  0  0  0
 63138  1  0  0  0
 63139  1  0  0  0
 63140  1  0  0  0
 64141  1  0  0  0
 65142  1  0  0  0
 68 79  1  0  0  0
 71 72  2  0  0  0
 71 73  1  0  0  0
 71143  1  0  0  0
 72 74  1  0  0  0
 72144  1  0  0  0
 73 75  2  0  0  0
 73145  1  0  0  0
 74 76  2  0  0  0
 74 80  1  0  0  0
 75 76  1  0  0  0
 75 81  1  0  0  0
 76 83  1  0  0  0
 77 78  1  0  0  0
 77 80  1  0  0  0
 77 82  2  0  0  0
 78 79  1  0  0  0
 78146  1  0  0  0
 78147  1  0  0  0
 79148  1  0  0  0
 79149  1  0  0  0
 80150  1  0  0  0
 81151  1  0  0  0
M  ISO  4   1 100  68 101  79 101  81 100
M  END
> <chiral flag>
0

> <version>
0

> <s_m_source_file>
/data/baiqing/PycharmProjects/Reinvent-master-3.2/result/LINK_invent/BTK/process_docking_weight1_custom_sum_contain_oxygen_bond_distance_aromatic_linkinvent_7_9_3/rearranged_h_0004.sdf

> <i_m_source_file_index>
16

> <r_mmod_Potential_Energy-OPLS-2005>
106.942489624023

> <r_mmod_Stretch_Energy-OPLS-2005>
125.228340148926

> <r_mmod_Bend_Energy-OPLS-2005>
155.916656494141

> <r_mmod_Torsional_Energy-OPLS-2005>
256.922668457031

> <r_mmod_Improper_Torsional_Energy-OPLS-2005>
6.47778272628784

> <r_mmod_Van_der_Waal_Energy-OPLS-2005>
139.50927734375

> <r_mmod_Electrostatic_Energy-OPLS-2005>
-433.210693359375

> <r_mmod_Solvation_Energy-OPLS-2005>
-223.47575378418

> <b_mmod_Minimization_Converged-OPLS-2005>
0

> <r_mmod_RMS_Derivative-OPLS-2005>
0.929847240447998

$$$$
16
                    3D
 Structure written by MMmdl.
157165  0  0  1  0            999 V2000
  -30.8088  -14.4059   20.6146 C   0  0  0  0  0  0
  -30.4021  -12.2901   19.4311 C   0  0  0  0  0  0
  -29.4850  -12.4966   18.2122 C   0  0  0  0  0  0
  -28.0134  -12.3557   18.6339 C   0  0  0  0  0  0
  -27.6643  -13.2149   19.8788 C   0  0  2  0  0  0
  -28.7082  -13.0354   21.0088 C   0  0  0  0  0  0
  -25.2597  -13.8184   20.5697 C   0  0  0  0  0  0
  -24.1841  -13.0438   20.9175 C   0  0  0  0  0  0
  -24.6413  -11.6919   20.8752 C   0  0  0  0  0  0
  -23.9078  -10.4289   21.0412 C   0  0  0  0  0  0
  -24.3623   -9.4198   21.9192 C   0  0  0  0  0  0
  -23.6284   -8.2235   22.0762 C   0  0  0  0  0  0
  -22.4271   -8.0278   21.3544 C   0  0  0  0  0  0
  -21.9918   -9.0261   20.4646 C   0  0  0  0  0  0
  -22.7255  -10.2131   20.3054 C   0  0  0  0  0  0
  -21.6853   -6.0728   22.5271 C   0  0  0  0  0  0
  -21.4013   -6.5636   23.8206 C   0  0  0  0  0  0
  -21.3657   -5.6790   24.9169 C   0  0  0  0  0  0
  -21.6042   -4.3050   24.7227 C   0  0  0  0  0  0
  -21.8825   -3.8143   23.4350 C   0  0  0  0  0  0
  -21.9195   -4.6954   22.3398 C   0  0  0  0  0  0
  -22.7857  -13.5230   21.1813 C   0  0  0  0  0  0
  -22.1662   -4.2131   21.0976 F   0  0  0  0  0  0
  -21.5633   -3.4542   25.7745 F   0  0  0  0  0  0
  -30.0489  -13.2880   20.4552 N   0  0  0  0  0  0
  -26.3047  -12.9375   20.3419 N   0  0  0  0  0  0
  -25.9344  -11.6532   20.5821 N   0  0  0  0  0  0
  -22.0511  -12.8216   22.0374 N   0  0  0  0  0  0
  -25.4325  -15.1893   20.4098 N   0  0  0  0  0  0
  -31.8359  -14.5855   19.9581 O   0  0  0  0  0  0
  -21.6644   -6.8871   21.4229 O   0  0  0  0  0  0
  -22.3543  -14.5536   20.6666 O   0  0  0  0  0  0
  -24.6125  -31.8699   23.2146 C   0  0  0  0  0  0
  -25.9044  -32.4835   23.8409 C   0  0  1  0  0  0
  -27.2351  -27.4529   20.0909 C   0  0  0  0  0  0
  -25.5924  -33.8638   24.2353 N   0  0  0  0  0  0
  -23.3993  -30.4907   21.5545 C   0  0  2  0  0  0
  -24.8442  -28.9625   20.1136 C   0  0  0  0  0  0
  -22.7401  -29.4621   22.5021 C   0  0  0  0  0  0
  -18.0252  -28.1348   22.8484 C   0  0  0  0  0  0
  -24.1487  -36.7313   23.2642 C   0  0  0  0  0  0
  -25.9242  -30.8392   21.3642 C   0  0  0  0  0  0
  -26.0002  -29.4737   20.7143 C   0  0  0  0  0  0
  -27.1964  -28.7238   20.7032 C   0  0  0  0  0  0
  -26.0616  -26.9551   19.4762 C   0  0  0  0  0  0
  -24.8675  -27.7010   19.4942 C   0  0  0  0  0  0
  -23.6083  -29.8307   20.1647 C   0  0  0  0  0  0
  -25.4111  -36.3130   24.0340 C   0  0  1  0  0  0
  -20.5846  -28.3634   23.1327 C   0  0  2  0  0  0
  -20.6761  -26.9372   22.5413 C   0  0  0  0  0  0
  -19.5743  -26.6382   21.5197 C   0  0  0  0  0  0
  -18.1916  -26.7904   22.1596 C   0  0  0  0  0  0
  -19.1504  -28.8814   23.2895 C   0  0  0  0  0  0
  -18.9438  -30.1426   23.8897 C   0  0  0  0  0  0
  -17.6449  -30.6577   24.0540 C   0  0  0  0  0  0
  -25.9035  -34.9502   23.5141 C   0  0  0  0  0  0
  -16.5342  -29.9073   23.6306 C   0  0  0  0  0  0
  -16.7245  -28.6489   23.0322 C   0  0  0  0  0  0
  -26.4506  -31.6607   25.0714 C   0  0  0  0  0  0
  -25.3781  -31.3662   26.1460 C   0  0  0  0  0  0
  -27.0294  -30.3055   24.6012 C   0  0  0  0  0  0
  -27.6073  -32.4346   25.7488 C   0  0  0  0  0  0
  -27.5585  -37.1821   24.8467 C   0  0  0  0  0  0
  -21.4130  -29.3014   22.3773 N   0  0  0  0  0  0
  -26.4304  -37.3812   23.9406 N   0  0  0  0  0  0
  -24.6628  -31.0800   22.1051 N   0  0  0  0  0  0
  -23.4186  -28.8182   23.3059 O   0  0  0  0  0  0
  -28.4347  -26.7750   20.0987 O   0  0  0  0  0  0
  -26.5578  -34.8959   22.4688 O   0  0  0  0  0  0
  -23.5322  -32.1485   23.7553 O   0  0  0  0  0  0
  -33.1949  -17.7682   22.1885 C   0  0  0  0  0  0
  -32.4706  -18.9632   22.3344 C   0  0  0  0  0  0
  -32.5136  -16.5657   21.9320 C   0  0  0  0  0  0
  -30.3787  -17.7390   22.0107 C   0  0  0  0  0  0
  -31.0607  -18.9596   22.2375 C   0  0  0  0  0  0
  -31.1002  -16.5382   21.8138 C   0  0  0  0  0  0
  -30.3009  -20.2389   22.4257 C   0  0  0  0  0  0
  -29.7560  -23.3208   20.7806 C   0  0  0  0  0  0
  -29.3020  -24.7594   21.0662 C   0  0  0  0  0  0
  -30.4329  -22.6936   22.0083 C   0  0  0  0  0  0
  -28.4578  -25.3576   19.9337 C   0  0  0  0  0  0
  -30.3982  -15.3283   21.5080 N   0  0  0  0  0  0
  -30.8111  -21.3010   21.7882 N   0  0  0  0  0  0
  -29.2904  -20.2810   23.1282 O   0  0  0  0  0  0
  -31.4492  -12.3427   19.1267 H   0  0  0  0  0  0
  -30.2735  -11.2892   19.8429 H   0  0  0  0  0  0
  -29.7223  -11.7637   17.4391 H   0  0  0  0  0  0
  -29.6573  -13.4796   17.7713 H   0  0  0  0  0  0
  -27.8352  -11.3013   18.8513 H   0  0  0  0  0  0
  -27.3551  -12.6085   17.8013 H   0  0  0  0  0  0
  -27.7008  -14.2561   19.5594 H   0  0  0  0  0  0
  -28.6701  -12.0203   21.4053 H   0  0  0  0  0  0
  -28.4692  -13.6891   21.8474 H   0  0  0  0  0  0
  -25.2764   -9.5665   22.4775 H   0  0  0  0  0  0
  -23.9985   -7.4631   22.7492 H   0  0  0  0  0  0
  -21.0852   -8.8784   19.8954 H   0  0  0  0  0  0
  -22.3726  -10.9671   19.6162 H   0  0  0  0  0  0
  -21.2005   -7.6147   23.9694 H   0  0  0  0  0  0
  -21.1474   -6.0531   25.9069 H   0  0  0  0  0  0
  -22.0610   -2.7601   23.2862 H   0  0  0  0  0  0
  -22.4136  -11.9866   22.4733 H   0  0  0  0  0  0
  -21.1122  -13.1232   22.2580 H   0  0  0  0  0  0
  -24.6713  -15.8512   20.5138 H   0  0  0  0  0  0
  -26.2959  -15.6246   20.1073 H   0  0  0  0  0  0
  -26.7112  -32.5560   23.1163 H   0  0  0  0  0  0
  -25.0133  -33.9789   25.0534 H   0  0  0  0  0  0
  -22.6888  -31.3069   21.4189 H   0  0  0  0  0  0
  -23.3758  -35.9635   23.3307 H   0  0  0  0  0  0
  -24.3584  -36.8915   22.2057 H   0  0  0  0  0  0
  -23.7235  -37.6522   23.6636 H   0  0  0  0  0  0
  -26.0282  -31.6035   20.5933 H   0  0  0  0  0  0
  -26.8164  -30.8998   21.9741 H   0  0  0  0  0  0
  -28.0944  -29.1155   21.1639 H   0  0  0  0  0  0
  -26.0478  -26.0100   18.9534 H   0  0  0  0  0  0
  -23.9805  -27.3059   19.0175 H   0  0  0  0  0  0
  -23.7275  -30.6125   19.4138 H   0  0  0  0  0  0
  -22.7304  -29.2588   19.8588 H   0  0  0  0  0  0
  -25.1278  -36.2012   25.0829 H   0  0  0  0  0  0
  -20.9907  -28.3205   24.1450 H   0  0  0  0  0  0
  -20.5710  -26.2219   23.3596 H   0  0  0  0  0  0
  -21.6629  -26.7470   22.1162 H   0  0  0  0  0  0
  -19.6913  -25.6307   21.1191 H   0  0  0  0  0  0
  -19.6676  -27.3225   20.6754 H   0  0  0  0  0  0
  -17.4184  -26.6649   21.3987 H   0  0  0  0  0  0
  -18.0281  -26.0045   22.8979 H   0  0  0  0  0  0
  -19.7935  -30.7206   24.2287 H   0  0  0  0  0  0
  -17.5021  -31.6248   24.5165 H   0  0  0  0  0  0
  -15.5347  -30.2971   23.7671 H   0  0  0  0  0  0
  -15.8632  -28.0838   22.7018 H   0  0  0  0  0  0
  -24.5967  -30.6996   25.7798 H   0  0  0  0  0  0
  -24.8951  -32.2782   26.4972 H   0  0  0  0  0  0
  -25.8169  -30.8804   27.0177 H   0  0  0  0  0  0
  -26.2752  -29.6845   24.1156 H   0  0  0  0  0  0
  -27.4171  -29.7280   25.4412 H   0  0  0  0  0  0
  -27.8567  -30.4367   23.9034 H   0  0  0  0  0  0
  -27.2652  -33.3636   26.2066 H   0  0  0  0  0  0
  -28.3886  -32.6938   25.0327 H   0  0  0  0  0  0
  -28.0723  -31.8467   26.5408 H   0  0  0  0  0  0
  -28.2613  -38.0128   24.7538 H   0  0  0  0  0  0
  -28.1084  -36.2643   24.6265 H   0  0  0  0  0  0
  -27.2281  -37.1452   25.8877 H   0  0  0  0  0  0
  -20.9329  -29.8735   21.6973 H   0  0  0  0  0  0
  -26.0193  -38.2888   24.1422 H   0  0  0  0  0  0
  -34.2746  -17.7719   22.2683 H   0  0  0  0  0  0
  -33.0064  -19.8811   22.5395 H   0  0  0  0  0  0
  -33.1010  -15.6642   21.8178 H   0  0  0  0  0  0
  -29.2985  -17.7456   21.9511 H   0  0  0  0  0  0
  -30.4465  -23.3280   19.9353 H   0  0  0  0  0  0
  -28.9024  -22.7156   20.4745 H   0  0  0  0  0  0
  -30.1807  -25.3773   21.2504 H   0  0  0  0  0  0
  -28.7207  -24.7870   21.9893 H   0  0  0  0  0  0
  -29.7888  -22.7863   22.8842 H   0  0  0  0  0  0
  -31.3375  -23.2527   22.2464 H   0  0  0  0  0  0
  -27.4810  -24.8751   19.9710 H   0  0  0  0  0  0
  -28.9013  -25.1326   18.9626 H   0  0  0  0  0  0
  -29.4852  -15.1974   21.9148 H   0  0  0  0  0  0
  -31.5896  -21.1199   21.1674 H   0  0  0  0  0  0
  1 25  1  0  0  0
  1 30  2  0  0  0
  1 82  1  0  0  0
  2  3  1  0  0  0
  2 25  1  0  0  0
  2 85  1  0  0  0
  2 86  1  0  0  0
  3  4  1  0  0  0
  3 87  1  0  0  0
  3 88  1  0  0  0
  4  5  1  0  0  0
  4 89  1  0  0  0
  4 90  1  0  0  0
  5  6  1  0  0  0
  5 26  1  0  0  0
  5 91  1  0  0  0
  6 25  1  0  0  0
  6 92  1  0  0  0
  6 93  1  0  0  0
  7  8  2  0  0  0
  7 26  1  0  0  0
  7 29  1  0  0  0
  8  9  1  0  0  0
  8 22  1  0  0  0
  9 10  1  0  0  0
  9 27  2  0  0  0
 10 11  2  0  0  0
 10 15  1  0  0  0
 11 12  1  0  0  0
 11 94  1  0  0  0
 12 13  2  0  0  0
 12 95  1  0  0  0
 13 14  1  0  0  0
 13 31  1  0  0  0
 14 15  2  0  0  0
 14 96  1  0  0  0
 15 97  1  0  0  0
 16 17  2  0  0  0
 16 21  1  0  0  0
 16 31  1  0  0  0
 17 18  1  0  0  0
 17 98  1  0  0  0
 18 19  2  0  0  0
 18 99  1  0  0  0
 19 20  1  0  0  0
 19 24  1  0  0  0
 20 21  2  0  0  0
 20100  1  0  0  0
 21 23  1  0  0  0
 22 28  1  0  0  0
 22 32  2  0  0  0
 26 27  1  0  0  0
 28101  1  0  0  0
 28102  1  0  0  0
 29103  1  0  0  0
 29104  1  0  0  0
 33 34  1  0  0  0
 33 66  1  0  0  0
 33 70  2  0  0  0
 34 36  1  0  0  0
 34 59  1  0  0  0
 34105  1  0  0  0
 35 44  2  0  0  0
 35 45  1  0  0  0
 35 68  1  0  0  0
 36 56  1  0  0  0
 36106  1  0  0  0
 37 39  1  0  0  0
 37 47  1  0  0  0
 37 66  1  0  0  0
 37107  1  0  0  0
 38 43  2  0  0  0
 38 46  1  0  0  0
 38 47  1  0  0  0
 39 64  1  0  0  0
 39 67  2  0  0  0
 40 52  1  0  0  0
 40 53  2  0  0  0
 40 58  1  0  0  0
 41108  1  0  0  0
 41109  1  0  0  0
 41110  1  0  0  0
 41 48  1  0  0  0
 42 43  1  0  0  0
 42 66  1  0  0  0
 42111  1  0  0  0
 42112  1  0  0  0
 43 44  1  0  0  0
 44113  1  0  0  0
 45 46  2  0  0  0
 45114  1  0  0  0
 46115  1  0  0  0
 47116  1  0  0  0
 47117  1  0  0  0
 48 56  1  0  0  0
 48 65  1  0  0  0
 48118  1  0  0  0
 49 50  1  0  0  0
 49 53  1  0  0  0
 49 64  1  0  0  0
 49119  1  0  0  0
 50 51  1  0  0  0
 50120  1  0  0  0
 50121  1  0  0  0
 51 52  1  0  0  0
 51122  1  0  0  0
 51123  1  0  0  0
 52124  1  0  0  0
 52125  1  0  0  0
 53 54  1  0  0  0
 54 55  2  0  0  0
 54126  1  0  0  0
 55 57  1  0  0  0
 55127  1  0  0  0
 56 69  2  0  0  0
 57 58  2  0  0  0
 57128  1  0  0  0
 58129  1  0  0  0
 59 60  1  0  0  0
 59 61  1  0  0  0
 59 62  1  0  0  0
 60130  1  0  0  0
 60131  1  0  0  0
 60132  1  0  0  0
 61133  1  0  0  0
 61134  1  0  0  0
 61135  1  0  0  0
 62136  1  0  0  0
 62137  1  0  0  0
 62138  1  0  0  0
 63 65  1  0  0  0
 63139  1  0  0  0
 63140  1  0  0  0
 63141  1  0  0  0
 64142  1  0  0  0
 65143  1  0  0  0
 68 81  1  0  0  0
 71 72  2  0  0  0
 71 73  1  0  0  0
 71144  1  0  0  0
 72 75  1  0  0  0
 72145  1  0  0  0
 73 76  2  0  0  0
 73146  1  0  0  0
 74 75  2  0  0  0
 74 76  1  0  0  0
 74147  1  0  0  0
 75 77  1  0  0  0
 76 82  1  0  0  0
 77 83  1  0  0  0
 77 84  2  0  0  0
 78 79  1  0  0  0
 78 80  1  0  0  0
 78148  1  0  0  0
 78149  1  0  0  0
 79 81  1  0  0  0
 79150  1  0  0  0
 79151  1  0  0  0
 80 83  1  0  0  0
 80152  1  0  0  0
 80153  1  0  0  0
 81154  1  0  0  0
 81155  1  0  0  0
 82156  1  0  0  0
 83157  1  0  0  0
M  ISO  4   1 100  68 101  81 101  82 100
M  END
> <chiral flag>
0

> <version>
0

> <s_m_source_file>
/data/baiqing/PycharmProjects/Reinvent-master-3.2/result/LINK_invent/BTK/process_docking_weight1_custom_sum_contain_oxygen_bond_distance_aromatic_linkinvent_7_9_3/rearranged_h_0004.sdf

> <i_m_source_file_index>
17

> <r_mmod_Potential_Energy-OPLS-2005>
-120.534523010254

> <r_mmod_Stretch_Energy-OPLS-2005>
34.2773170471191

> <r_mmod_Bend_Energy-OPLS-2005>
97.4316787719727

> <r_mmod_Torsional_Energy-OPLS-2005>
228.261764526367

> <r_mmod_Improper_Torsional_Energy-OPLS-2005>
1.94049167633057

> <r_mmod_Van_der_Waal_Energy-OPLS-2005>
166.155792236328

> <r_mmod_Electrostatic_Energy-OPLS-2005>
-432.180847167969

> <r_mmod_Solvation_Energy-OPLS-2005>
-228.631439208984

> <b_mmod_Minimization_Converged-OPLS-2005>
0

> <r_mmod_RMS_Derivative-OPLS-2005>
3.67431449890137

$$$$
17
                    3D
 Structure written by MMmdl.
144152  0  0  1  0            999 V2000
  -30.1180  -16.1601   20.2974 C   0  0  0  0  0  0
  -30.3742  -13.4883   19.5291 C   0  0  0  0  0  0
  -29.5665  -12.8046   18.3708 C   0  0  0  0  0  0
  -28.1854  -12.3338   18.8386 C   0  0  0  0  0  0
  -27.5803  -13.3686   19.8052 C   0  0  2  0  0  0
  -28.5583  -13.9261   20.8840 C   0  0  0  0  0  0
  -25.2250  -13.8370   20.5878 C   0  0  0  0  0  0
  -24.1697  -13.0438   20.9318 C   0  0  0  0  0  0
  -24.6482  -11.6978   20.8745 C   0  0  0  0  0  0
  -23.9184  -10.4301   21.0362 C   0  0  0  0  0  0
  -24.3694   -9.4215   21.9160 C   0  0  0  0  0  0
  -23.6337   -8.2263   22.0746 C   0  0  0  0  0  0
  -22.4313   -8.0304   21.3542 C   0  0  0  0  0  0
  -21.9971   -9.0283   20.4637 C   0  0  0  0  0  0
  -22.7335  -10.2145   20.3029 C   0  0  0  0  0  0
  -21.6869   -6.0757   22.5279 C   0  0  0  0  0  0
  -21.4026   -6.5655   23.8214 C   0  0  0  0  0  0
  -21.3660   -5.6801   24.9176 C   0  0  0  0  0  0
  -21.6042   -4.3062   24.7218 C   0  0  0  0  0  0
  -21.8822   -3.8162   23.4338 C   0  0  0  0  0  0
  -21.9197   -4.6982   22.3398 C   0  0  0  0  0  0
  -22.7693  -13.5123   21.1935 C   0  0  0  0  0  0
  -22.1668   -4.2168   21.0974 F   0  0  0  0  0  0
  -21.5617   -3.4542   25.7728 F   0  0  0  0  0  0
  -29.6379  -14.7119   20.1881 N   0  0  0  0  0  0
  -26.2774  -12.9825   20.3311 N   0  0  0  0  0  0
  -25.9454  -11.6823   20.5654 N   0  0  0  0  0  0
  -22.0377  -12.8082   22.0481 N   0  0  0  0  0  0
  -25.3745  -15.2125   20.4333 N   0  0  0  0  0  0
  -31.3628  -15.9791   20.2324 O   0  0  0  0  0  0
  -21.6657   -6.8910   21.4245 O   0  0  0  0  0  0
  -22.3355  -14.5415   20.6768 O   0  0  0  0  0  0
  -24.7183  -31.7588   23.1209 C   0  0  0  0  0  0
  -25.9597  -32.4260   23.7897 C   0  0  1  0  0  0
  -27.2440  -26.3464   20.2480 C   0  0  0  0  0  0
  -25.6035  -33.8103   24.1757 N   0  0  0  0  0  0
  -23.5593  -30.3435   21.4843 C   0  0  2  0  0  0
  -25.0187  -28.6062   20.1298 C   0  0  0  0  0  0
  -22.7917  -29.4101   22.4624 C   0  0  0  0  0  0
  -18.0359  -28.1442   22.8449 C   0  0  0  0  0  0
  -24.1490  -36.7047   23.2658 C   0  0  0  0  0  0
  -26.1528  -30.3736   21.4365 C   0  0  0  0  0  0
  -26.2139  -28.8974   20.7962 C   0  0  0  0  0  0
  -27.2926  -27.8085   20.8103 C   0  0  0  0  0  0
  -26.0126  -26.3554   19.5147 C   0  0  0  0  0  0
  -24.9787  -27.3648   19.4632 C   0  0  0  0  0  0
  -23.8317  -29.6047   20.1358 C   0  0  0  0  0  0
  -25.4152  -36.2770   24.0261 C   0  0  1  0  0  0
  -20.6014  -28.3813   23.1086 C   0  0  2  0  0  0
  -20.6805  -26.9439   22.5412 C   0  0  0  0  0  0
  -19.5785  -26.6362   21.5222 C   0  0  0  0  0  0
  -18.1971  -26.7965   22.1618 C   0  0  0  0  0  0
  -19.1636  -28.8962   23.2736 C   0  0  0  0  0  0
  -18.9534  -30.1538   23.8793 C   0  0  0  0  0  0
  -17.6522  -30.6618   24.0547 C   0  0  0  0  0  0
  -25.9159  -34.9173   23.4871 C   0  0  0  0  0  0
  -16.5409  -29.9096   23.6359 C   0  0  0  0  0  0
  -16.7337  -28.6519   23.0381 C   0  0  0  0  0  0
  -26.4653  -31.6439   25.0666 C   0  0  0  0  0  0
  -25.3628  -31.3848   26.1217 C   0  0  0  0  0  0
  -27.0628  -30.2742   24.6806 C   0  0  0  0  0  0
  -27.6038  -32.4372   25.7510 C   0  0  0  0  0  0
  -27.5541  -37.1680   24.8473 C   0  0  0  0  0  0
  -21.4533  -29.2992   22.3371 N   0  0  0  0  0  0
  -26.4241  -37.3574   23.9417 N   0  0  0  0  0  0
  -24.8382  -30.8680   22.0659 N   0  0  0  0  0  0
  -23.4194  -28.7769   23.3138 O   0  0  0  0  0  0
  -28.1801  -24.9784   20.3168 O   0  0  0  0  0  0
  -26.5832  -34.8829   22.4510 O   0  0  0  0  0  0
  -23.6127  -32.0824   23.5948 O   0  0  0  0  0  0
  -31.7299  -21.6346   21.0987 C   0  0  0  0  0  0
  -32.0253  -20.2904   21.1043 C   0  0  0  0  0  0
  -30.4517  -22.0750   20.7784 C   0  0  0  0  0  0
  -31.0537  -19.3484   20.7881 C   0  0  0  0  0  0
  -29.2917  -21.3193   20.4202 C   0  0  0  0  0  0
  -29.6870  -19.5447   20.4312 C   0  0  0  0  0  0
  -28.1711  -23.0283   20.2104 C   0  0  0  0  0  0
  -29.4042  -17.6925   20.2808 N   0  0  0  0  0  0
  -31.3172  -13.8268   19.0977 H   0  0  0  0  0  0
  -30.6740  -12.7533   20.2782 H   0  0  0  0  0  0
  -30.1292  -11.9694   17.9520 H   0  0  0  0  0  0
  -29.4428  -13.5265   17.5620 H   0  0  0  0  0  0
  -28.3029  -11.3791   19.3525 H   0  0  0  0  0  0
  -27.5265  -12.1534   17.9878 H   0  0  0  0  0  0
  -27.3691  -14.2160   19.1499 H   0  0  0  0  0  0
  -28.9381  -13.1427   21.5416 H   0  0  0  0  0  0
  -28.0230  -14.6183   21.5355 H   0  0  0  0  0  0
  -25.2828   -9.5688   22.4752 H   0  0  0  0  0  0
  -24.0038   -7.4656   22.7474 H   0  0  0  0  0  0
  -21.0898   -8.8817   19.8939 H   0  0  0  0  0  0
  -22.3791  -10.9686   19.6140 H   0  0  0  0  0  0
  -21.2026   -7.6163   23.9730 H   0  0  0  0  0  0
  -21.1472   -6.0523   25.9079 H   0  0  0  0  0  0
  -22.0595   -2.7621   23.2829 H   0  0  0  0  0  0
  -22.4045  -11.9775   22.4879 H   0  0  0  0  0  0
  -21.0972  -13.1045   22.2664 H   0  0  0  0  0  0
  -24.5990  -15.8555   20.5504 H   0  0  0  0  0  0
  -26.2201  -15.6623   20.1078 H   0  0  0  0  0  0
  -26.7725  -32.4653   23.0639 H   0  0  0  0  0  0
  -25.0081  -33.9071   24.9850 H   0  0  0  0  0  0
  -22.9043  -31.1887   21.2630 H   0  0  0  0  0  0
  -23.3778  -35.9345   23.3253 H   0  0  0  0  0  0
  -24.3548  -36.8789   22.2084 H   0  0  0  0  0  0
  -23.7222  -37.6186   23.6798 H   0  0  0  0  0  0
  -26.3854  -31.0686   20.6284 H   0  0  0  0  0  0
  -26.9942  -30.4605   22.1117 H   0  0  0  0  0  0
  -28.1870  -28.0551   21.3645 H   0  0  0  0  0  0
  -25.7878  -25.4427   18.9805 H   0  0  0  0  0  0
  -24.0887  -27.1259   18.8974 H   0  0  0  0  0  0
  -24.0352  -30.3475   19.3637 H   0  0  0  0  0  0
  -22.9282  -29.0892   19.8053 H   0  0  0  0  0  0
  -25.1372  -36.1475   25.0744 H   0  0  0  0  0  0
  -21.0079  -28.3462   24.1220 H   0  0  0  0  0  0
  -20.5623  -26.2448   23.3706 H   0  0  0  0  0  0
  -21.6666  -26.7318   22.1259 H   0  0  0  0  0  0
  -19.6921  -25.6240   21.1327 H   0  0  0  0  0  0
  -19.6740  -27.3109   20.6705 H   0  0  0  0  0  0
  -17.4239  -26.6712   21.4023 H   0  0  0  0  0  0
  -18.0349  -26.0126   22.9032 H   0  0  0  0  0  0
  -19.8007  -30.7387   24.2112 H   0  0  0  0  0  0
  -17.5069  -31.6286   24.5169 H   0  0  0  0  0  0
  -15.5405  -30.2972   23.7739 H   0  0  0  0  0  0
  -15.8736  -28.0803   22.7161 H   0  0  0  0  0  0
  -24.5882  -30.7118   25.7521 H   0  0  0  0  0  0
  -24.8732  -32.3089   26.4295 H   0  0  0  0  0  0
  -25.7741  -30.9250   27.0216 H   0  0  0  0  0  0
  -26.3404  -29.6271   24.1827 H   0  0  0  0  0  0
  -27.3939  -29.7305   25.5664 H   0  0  0  0  0  0
  -27.9428  -30.3788   24.0462 H   0  0  0  0  0  0
  -27.2542  -33.3787   26.1756 H   0  0  0  0  0  0
  -28.4026  -32.6740   25.0473 H   0  0  0  0  0  0
  -28.0518  -31.8716   26.5687 H   0  0  0  0  0  0
  -28.2512  -38.0017   24.7520 H   0  0  0  0  0  0
  -28.1082  -36.2533   24.6299 H   0  0  0  0  0  0
  -27.2262  -37.1312   25.8877 H   0  0  0  0  0  0
  -20.9921  -29.8578   21.6329 H   0  0  0  0  0  0
  -26.0033  -38.2601   24.1440 H   0  0  0  0  0  0
  -32.5003  -22.3521   21.3491 H   0  0  0  0  0  0
  -33.0243  -19.9663   21.3625 H   0  0  0  0  0  0
  -30.4037  -23.1544   20.8301 H   0  0  0  0  0  0
  -31.4774  -18.3620   20.8593 H   0  0  0  0  0  0
  -28.8471  -23.2617   19.3862 H   0  0  0  0  0  0
  -28.3225  -23.1553   21.2834 H   0  0  0  0  0  0
  -28.4136  -17.5215   20.1718 H   0  0  0  0  0  0
  1 25  1  0  0  0
  1 30  2  0  0  0
  1 78  1  0  0  0
  2  3  1  0  0  0
  2 25  1  0  0  0
  2 79  1  0  0  0
  2 80  1  0  0  0
  3  4  1  0  0  0
  3 81  1  0  0  0
  3 82  1  0  0  0
  4  5  1  0  0  0
  4 83  1  0  0  0
  4 84  1  0  0  0
  5  6  1  0  0  0
  5 26  1  0  0  0
  5 85  1  0  0  0
  6 25  1  0  0  0
  6 86  1  0  0  0
  6 87  1  0  0  0
  7  8  2  0  0  0
  7 26  1  0  0  0
  7 29  1  0  0  0
  8  9  1  0  0  0
  8 22  1  0  0  0
  9 10  1  0  0  0
  9 27  2  0  0  0
 10 11  2  0  0  0
 10 15  1  0  0  0
 11 12  1  0  0  0
 11 88  1  0  0  0
 12 13  2  0  0  0
 12 89  1  0  0  0
 13 14  1  0  0  0
 13 31  1  0  0  0
 14 15  2  0  0  0
 14 90  1  0  0  0
 15 91  1  0  0  0
 16 17  2  0  0  0
 16 21  1  0  0  0
 16 31  1  0  0  0
 17 18  1  0  0  0
 17 92  1  0  0  0
 18 19  2  0  0  0
 18 93  1  0  0  0
 19 20  1  0  0  0
 19 24  1  0  0  0
 20 21  2  0  0  0
 20 94  1  0  0  0
 21 23  1  0  0  0
 22 28  1  0  0  0
 22 32  2  0  0  0
 26 27  1  0  0  0
 28 95  1  0  0  0
 28 96  1  0  0  0
 29 97  1  0  0  0
 29 98  1  0  0  0
 33 34  1  0  0  0
 33 66  1  0  0  0
 33 70  2  0  0  0
 34 36  1  0  0  0
 34 59  1  0  0  0
 34 99  1  0  0  0
 35 44  2  0  0  0
 35 45  1  0  0  0
 35 68  1  0  0  0
 36 56  1  0  0  0
 36100  1  0  0  0
 37 39  1  0  0  0
 37 47  1  0  0  0
 37 66  1  0  0  0
 37101  1  0  0  0
 38 43  2  0  0  0
 38 46  1  0  0  0
 38 47  1  0  0  0
 39 64  1  0  0  0
 39 67  2  0  0  0
 40 52  1  0  0  0
 40 53  2  0  0  0
 40 58  1  0  0  0
 41102  1  0  0  0
 41103  1  0  0  0
 41104  1  0  0  0
 41 48  1  0  0  0
 42 43  1  0  0  0
 42 66  1  0  0  0
 42105  1  0  0  0
 42106  1  0  0  0
 43 44  1  0  0  0
 44107  1  0  0  0
 45 46  2  0  0  0
 45108  1  0  0  0
 46109  1  0  0  0
 47110  1  0  0  0
 47111  1  0  0  0
 48 56  1  0  0  0
 48 65  1  0  0  0
 48112  1  0  0  0
 49 50  1  0  0  0
 49 53  1  0  0  0
 49 64  1  0  0  0
 49113  1  0  0  0
 50 51  1  0  0  0
 50114  1  0  0  0
 50115  1  0  0  0
 51 52  1  0  0  0
 51116  1  0  0  0
 51117  1  0  0  0
 52118  1  0  0  0
 52119  1  0  0  0
 53 54  1  0  0  0
 54 55  2  0  0  0
 54120  1  0  0  0
 55 57  1  0  0  0
 55121  1  0  0  0
 56 69  2  0  0  0
 57 58  2  0  0  0
 57122  1  0  0  0
 58123  1  0  0  0
 59 60  1  0  0  0
 59 61  1  0  0  0
 59 62  1  0  0  0
 60124  1  0  0  0
 60125  1  0  0  0
 60126  1  0  0  0
 61127  1  0  0  0
 61128  1  0  0  0
 61129  1  0  0  0
 62130  1  0  0  0
 62131  1  0  0  0
 62132  1  0  0  0
 63 65  1  0  0  0
 63133  1  0  0  0
 63134  1  0  0  0
 63135  1  0  0  0
 64136  1  0  0  0
 65137  1  0  0  0
 68 77  1  0  0  0
 71 72  2  0  0  0
 71 73  1  0  0  0
 71138  1  0  0  0
 72 74  1  0  0  0
 72139  1  0  0  0
 73 75  2  0  0  0
 73140  1  0  0  0
 74 76  2  0  0  0
 74141  1  0  0  0
 75 76  1  0  0  0
 75 77  1  0  0  0
 76 78  1  0  0  0
 77142  1  0  0  0
 77143  1  0  0  0
 78144  1  0  0  0
M  ISO  4   1 100  68 101  77 101  78 100
M  END
> <chiral flag>
0

> <version>
0

> <s_m_source_file>
/data/baiqing/PycharmProjects/Reinvent-master-3.2/result/LINK_invent/BTK/process_docking_weight1_custom_sum_contain_oxygen_bond_distance_aromatic_linkinvent_7_9_3/rearranged_h_0004.sdf

> <i_m_source_file_index>
18

> <r_mmod_Potential_Energy-OPLS-2005>
5065.419921875

> <r_mmod_Stretch_Energy-OPLS-2005>
2161.8056640625

> <r_mmod_Bend_Energy-OPLS-2005>
1240.08117675781

> <r_mmod_Torsional_Energy-OPLS-2005>
229.316177368164

> <r_mmod_Improper_Torsional_Energy-OPLS-2005>
5.04998302459717

> <r_mmod_Van_der_Waal_Energy-OPLS-2005>
148.29963684082

> <r_mmod_Electrostatic_Energy-OPLS-2005>
-342.251678466797

> <r_mmod_Solvation_Energy-OPLS-2005>
-211.945541381836

> <b_mmod_Minimization_Converged-OPLS-2005>
0

> <r_mmod_RMS_Derivative-OPLS-2005>
1.2926459312439

$$$$
18
                    3D
 Structure written by MMmdl.
170178  0  0  1  0            999 V2000
  -30.7707  -14.3456   20.7011 C   0  0  0  0  0  0
  -30.4159  -12.2875   19.3869 C   0  0  0  0  0  0
  -29.4799  -12.5282   18.1882 C   0  0  0  0  0  0
  -28.0056  -12.3792   18.6071 C   0  0  0  0  0  0
  -27.6652  -13.2000   19.8779 C   0  0  2  0  0  0
  -28.7018  -12.9317   20.9905 C   0  0  0  0  0  0
  -25.2598  -13.8156   20.5668 C   0  0  0  0  0  0
  -24.1842  -13.0444   20.9160 C   0  0  0  0  0  0
  -24.6384  -11.6904   20.8724 C   0  0  0  0  0  0
  -23.9050  -10.4296   21.0400 C   0  0  0  0  0  0
  -24.3606   -9.4215   21.9180 C   0  0  0  0  0  0
  -23.6288   -8.2247   22.0752 C   0  0  0  0  0  0
  -22.4269   -8.0281   21.3542 C   0  0  0  0  0  0
  -21.9901   -9.0254   20.4644 C   0  0  0  0  0  0
  -22.7223  -10.2134   20.3052 C   0  0  0  0  0  0
  -21.6852   -6.0736   22.5282 C   0  0  0  0  0  0
  -21.4012   -6.5639   23.8214 C   0  0  0  0  0  0
  -21.3661   -5.6791   24.9175 C   0  0  0  0  0  0
  -21.6044   -4.3056   24.7226 C   0  0  0  0  0  0
  -21.8819   -3.8147   23.4349 C   0  0  0  0  0  0
  -21.9192   -4.6964   22.3402 C   0  0  0  0  0  0
  -22.7867  -13.5245   21.1840 C   0  0  0  0  0  0
  -22.1660   -4.2151   21.0982 F   0  0  0  0  0  0
  -21.5632   -3.4540   25.7739 F   0  0  0  0  0  0
  -30.0475  -13.2233   20.4578 N   0  0  0  0  0  0
  -26.3032  -12.9316   20.3364 N   0  0  0  0  0  0
  -25.9305  -11.6477   20.5743 N   0  0  0  0  0  0
  -22.0506  -12.8237   22.0393 N   0  0  0  0  0  0
  -25.4353  -15.1874   20.4089 N   0  0  0  0  0  0
  -31.7800  -14.6604   20.0620 O   0  0  0  0  0  0
  -21.6637   -6.8878   21.4240 O   0  0  0  0  0  0
  -22.3552  -14.5558   20.6697 O   0  0  0  0  0  0
  -24.6092  -31.8711   23.2123 C   0  0  0  0  0  0
  -25.9000  -32.4834   23.8400 C   0  0  1  0  0  0
  -27.2492  -27.4779   20.0732 C   0  0  0  0  0  0
  -25.5865  -33.8632   24.2320 N   0  0  0  0  0  0
  -23.3955  -30.4928   21.5532 C   0  0  2  0  0  0
  -24.8408  -28.9569   20.1225 C   0  0  0  0  0  0
  -22.7384  -29.4677   22.5030 C   0  0  0  0  0  0
  -18.0260  -28.1394   22.8502 C   0  0  0  0  0  0
  -24.1489  -36.7337   23.2639 C   0  0  0  0  0  0
  -25.9205  -30.8425   21.3629 C   0  0  0  0  0  0
  -25.9961  -29.4759   20.7198 C   0  0  0  0  0  0
  -27.1953  -28.7357   20.7077 C   0  0  0  0  0  0
  -26.0694  -26.9522   19.4971 C   0  0  0  0  0  0
  -24.8680  -27.6874   19.5195 C   0  0  0  0  0  0
  -23.6012  -29.8205   20.1695 C   0  0  0  0  0  0
  -25.4107  -36.3119   24.0334 C   0  0  1  0  0  0
  -20.5847  -28.3664   23.1348 C   0  0  2  0  0  0
  -20.6768  -26.9408   22.5433 C   0  0  0  0  0  0
  -19.5756  -26.6407   21.5220 C   0  0  0  0  0  0
  -18.1923  -26.7953   22.1617 C   0  0  0  0  0  0
  -19.1509  -28.8846   23.2926 C   0  0  0  0  0  0
  -18.9439  -30.1458   23.8926 C   0  0  0  0  0  0
  -17.6445  -30.6606   24.0573 C   0  0  0  0  0  0
  -25.9030  -34.9483   23.5125 C   0  0  0  0  0  0
  -16.5335  -29.9116   23.6321 C   0  0  0  0  0  0
  -16.7250  -28.6534   23.0337 C   0  0  0  0  0  0
  -26.4435  -31.6614   25.0729 C   0  0  0  0  0  0
  -25.3710  -31.3731   26.1481 C   0  0  0  0  0  0
  -27.0268  -30.3067   24.6092 C   0  0  0  0  0  0
  -27.6024  -32.4324   25.7471 C   0  0  0  0  0  0
  -27.5581  -37.1820   24.8460 C   0  0  0  0  0  0
  -21.4116  -29.3049   22.3777 N   0  0  0  0  0  0
  -26.4292  -37.3805   23.9411 N   0  0  0  0  0  0
  -24.6596  -31.0825   22.1021 N   0  0  0  0  0  0
  -23.4184  -28.8230   23.3056 O   0  0  0  0  0  0
  -28.4605  -26.8225   20.0327 O   0  0  0  0  0  0
  -26.5607  -34.8920   22.4699 O   0  0  0  0  0  0
  -23.5294  -32.1465   23.7530 O   0  0  0  0  0  0
  -28.5503  -22.0264   17.0701 C   0  0  0  0  0  0
  -28.8071  -23.2419   16.4127 C   0  0  0  0  0  0
  -26.5230  -23.9650   16.8604 C   0  0  0  0  0  0
  -27.2997  -21.8017   17.6780 C   0  0  0  0  0  0
  -27.8057  -24.2352   16.3401 C   0  0  0  0  0  0
  -26.2665  -22.7571   17.5388 C   0  0  0  0  0  0
  -26.9026  -20.5694   19.7369 C   0  0  0  0  0  0
  -27.1693  -19.2318   20.4227 C   0  0  0  0  0  0
  -28.6787  -19.0556   20.6667 C   0  0  0  0  0  0
  -29.0317  -17.7534   21.3953 C   0  0  0  0  0  0
  -30.5530  -17.5404   21.4752 C   0  0  0  0  0  0
  -28.8566  -26.9237   17.6040 C   0  0  0  0  0  0
  -30.9584  -16.2844   22.2648 C   0  0  0  0  0  0
  -28.7674  -26.0455   18.8748 C   0  0  0  0  0  0
  -29.1906  -26.1699   16.3016 C   0  0  0  0  0  0
  -27.1262  -20.6105   18.4161 N   0  0  0  0  0  0
  -30.3404  -15.0711   21.7385 N   0  0  0  0  0  0
  -26.5215  -21.5343   20.4038 O   0  0  0  0  0  0
  -28.0487  -25.4719   15.7946 O   0  0  0  0  0  0
  -25.0335  -22.5256   18.0523 F   0  0  0  0  0  0
  -31.4581  -12.3948   19.0801 H   0  0  0  0  0  0
  -30.3197  -11.2619   19.7467 H   0  0  0  0  0  0
  -29.7119  -11.8292   17.3834 H   0  0  0  0  0  0
  -29.6477  -13.5281   17.7848 H   0  0  0  0  0  0
  -27.8155  -11.3205   18.7882 H   0  0  0  0  0  0
  -27.3498  -12.6688   17.7855 H   0  0  0  0  0  0
  -27.7269  -14.2550   19.6095 H   0  0  0  0  0  0
  -28.6606  -11.8852   21.2964 H   0  0  0  0  0  0
  -28.4427  -13.4994   21.8839 H   0  0  0  0  0  0
  -25.2752   -9.5694   22.4751 H   0  0  0  0  0  0
  -24.0001   -7.4638   22.7470 H   0  0  0  0  0  0
  -21.0835   -8.8767   19.8951 H   0  0  0  0  0  0
  -22.3683  -10.9669   19.6160 H   0  0  0  0  0  0
  -21.2001   -7.6149   23.9718 H   0  0  0  0  0  0
  -21.1485   -6.0524   25.9079 H   0  0  0  0  0  0
  -22.0597   -2.7612   23.2848 H   0  0  0  0  0  0
  -22.4113  -11.9888   22.4770 H   0  0  0  0  0  0
  -21.1128  -13.1270   22.2609 H   0  0  0  0  0  0
  -24.6757  -15.8486   20.5266 H   0  0  0  0  0  0
  -26.2990  -15.6213   20.1103 H   0  0  0  0  0  0
  -26.7077  -32.5549   23.1177 H   0  0  0  0  0  0
  -24.9984  -33.9788   25.0441 H   0  0  0  0  0  0
  -22.6833  -31.3083   21.4134 H   0  0  0  0  0  0
  -23.3733  -35.9691   23.3314 H   0  0  0  0  0  0
  -24.3593  -36.8939   22.2051 H   0  0  0  0  0  0
  -23.7244  -37.6545   23.6659 H   0  0  0  0  0  0
  -26.0238  -31.6026   20.5875 H   0  0  0  0  0  0
  -26.8161  -30.9045   21.9697 H   0  0  0  0  0  0
  -28.0898  -29.1426   21.1565 H   0  0  0  0  0  0
  -26.0643  -25.9814   19.0264 H   0  0  0  0  0  0
  -23.9758  -27.2721   19.0702 H   0  0  0  0  0  0
  -23.7069  -30.5960   19.4107 H   0  0  0  0  0  0
  -22.7270  -29.2370   19.8722 H   0  0  0  0  0  0
  -25.1280  -36.1987   25.0825 H   0  0  0  0  0  0
  -20.9906  -28.3234   24.1478 H   0  0  0  0  0  0
  -20.5703  -26.2271   23.3622 H   0  0  0  0  0  0
  -21.6642  -26.7498   22.1203 H   0  0  0  0  0  0
  -19.6929  -25.6326   21.1239 H   0  0  0  0  0  0
  -19.6693  -27.3226   20.6756 H   0  0  0  0  0  0
  -17.4197  -26.6683   21.4016 H   0  0  0  0  0  0
  -18.0314  -26.0102   22.9011 H   0  0  0  0  0  0
  -19.7910  -30.7274   24.2307 H   0  0  0  0  0  0
  -17.4991  -31.6284   24.5182 H   0  0  0  0  0  0
  -15.5337  -30.3021   23.7652 H   0  0  0  0  0  0
  -15.8643  -28.0876   22.7017 H   0  0  0  0  0  0
  -24.5863  -30.7088   25.7839 H   0  0  0  0  0  0
  -24.8911  -32.2889   26.4946 H   0  0  0  0  0  0
  -25.8048  -30.8895   27.0243 H   0  0  0  0  0  0
  -26.2818  -29.6835   24.1129 H   0  0  0  0  0  0
  -27.4032  -29.7274   25.4537 H   0  0  0  0  0  0
  -27.8654  -30.4398   23.9254 H   0  0  0  0  0  0
  -27.2654  -33.3612   26.2082 H   0  0  0  0  0  0
  -28.3804  -32.6890   25.0276 H   0  0  0  0  0  0
  -28.0735  -31.8435   26.5347 H   0  0  0  0  0  0
  -28.2601  -38.0111   24.7497 H   0  0  0  0  0  0
  -28.1054  -36.2640   24.6285 H   0  0  0  0  0  0
  -27.2313  -37.1476   25.8863 H   0  0  0  0  0  0
  -20.9281  -29.8722   21.6954 H   0  0  0  0  0  0
  -26.0180  -38.2887   24.1399 H   0  0  0  0  0  0
  -29.3350  -21.2863   17.1393 H   0  0  0  0  0  0
  -29.7846  -23.4053   15.9828 H   0  0  0  0  0  0
  -25.7447  -24.7105   16.7860 H   0  0  0  0  0  0
  -26.7725  -18.4175   19.8148 H   0  0  0  0  0  0
  -26.6316  -19.2040   21.3711 H   0  0  0  0  0  0
  -29.0579  -19.9035   21.2401 H   0  0  0  0  0  0
  -29.2009  -19.0810   19.7088 H   0  0  0  0  0  0
  -28.5657  -16.9122   20.8805 H   0  0  0  0  0  0
  -28.6114  -17.7737   22.4018 H   0  0  0  0  0  0
  -31.0178  -18.4098   21.9434 H   0  0  0  0  0  0
  -30.9692  -17.4888   20.4679 H   0  0  0  0  0  0
  -29.6267  -27.6769   17.7734 H   0  0  0  0  0  0
  -27.9324  -27.4787   17.4534 H   0  0  0  0  0  0
  -30.6545  -16.3945   23.3063 H   0  0  0  0  0  0
  -32.0449  -16.1783   22.2742 H   0  0  0  0  0  0
  -28.0645  -25.2226   18.7784 H   0  0  0  0  0  0
  -29.7366  -25.5761   19.0462 H   0  0  0  0  0  0
  -30.0671  -25.5377   16.4420 H   0  0  0  0  0  0
  -29.4791  -26.8962   15.5407 H   0  0  0  0  0  0
  -27.4917  -19.7639   18.0036 H   0  0  0  0  0  0
  -29.5222  -14.7255   22.2180 H   0  0  0  0  0  0
  1 25  1  0  0  0
  1 30  2  0  0  0
  1 87  1  0  0  0
  2  3  1  0  0  0
  2 25  1  0  0  0
  2 91  1  0  0  0
  2 92  1  0  0  0
  3  4  1  0  0  0
  3 93  1  0  0  0
  3 94  1  0  0  0
  4  5  1  0  0  0
  4 95  1  0  0  0
  4 96  1  0  0  0
  5  6  1  0  0  0
  5 26  1  0  0  0
  5 97  1  0  0  0
  6 25  1  0  0  0
  6 98  1  0  0  0
  6 99  1  0  0  0
  7  8  2  0  0  0
  7 26  1  0  0  0
  7 29  1  0  0  0
  8  9  1  0  0  0
  8 22  1  0  0  0
  9 10  1  0  0  0
  9 27  2  0  0  0
 10 11  2  0  0  0
 10 15  1  0  0  0
 11 12  1  0  0  0
 11100  1  0  0  0
 12 13  2  0  0  0
 12101  1  0  0  0
 13 14  1  0  0  0
 13 31  1  0  0  0
 14 15  2  0  0  0
 14102  1  0  0  0
 15103  1  0  0  0
 16 17  2  0  0  0
 16 21  1  0  0  0
 16 31  1  0  0  0
 17 18  1  0  0  0
 17104  1  0  0  0
 18 19  2  0  0  0
 18105  1  0  0  0
 19 20  1  0  0  0
 19 24  1  0  0  0
 20 21  2  0  0  0
 20106  1  0  0  0
 21 23  1  0  0  0
 22 28  1  0  0  0
 22 32  2  0  0  0
 26 27  1  0  0  0
 28107  1  0  0  0
 28108  1  0  0  0
 29109  1  0  0  0
 29110  1  0  0  0
 33 34  1  0  0  0
 33 66  1  0  0  0
 33 70  2  0  0  0
 34 36  1  0  0  0
 34 59  1  0  0  0
 34111  1  0  0  0
 35 44  2  0  0  0
 35 45  1  0  0  0
 35 68  1  0  0  0
 36 56  1  0  0  0
 36112  1  0  0  0
 37 39  1  0  0  0
 37 47  1  0  0  0
 37 66  1  0  0  0
 37113  1  0  0  0
 38 43  2  0  0  0
 38 46  1  0  0  0
 38 47  1  0  0  0
 39 64  1  0  0  0
 39 67  2  0  0  0
 40 52  1  0  0  0
 40 53  2  0  0  0
 40 58  1  0  0  0
 41114  1  0  0  0
 41115  1  0  0  0
 41116  1  0  0  0
 41 48  1  0  0  0
 42 43  1  0  0  0
 42 66  1  0  0  0
 42117  1  0  0  0
 42118  1  0  0  0
 43 44  1  0  0  0
 44119  1  0  0  0
 45 46  2  0  0  0
 45120  1  0  0  0
 46121  1  0  0  0
 47122  1  0  0  0
 47123  1  0  0  0
 48 56  1  0  0  0
 48 65  1  0  0  0
 48124  1  0  0  0
 49 50  1  0  0  0
 49 53  1  0  0  0
 49 64  1  0  0  0
 49125  1  0  0  0
 50 51  1  0  0  0
 50126  1  0  0  0
 50127  1  0  0  0
 51 52  1  0  0  0
 51128  1  0  0  0
 51129  1  0  0  0
 52130  1  0  0  0
 52131  1  0  0  0
 53 54  1  0  0  0
 54 55  2  0  0  0
 54132  1  0  0  0
 55 57  1  0  0  0
 55133  1  0  0  0
 56 69  2  0  0  0
 57 58  2  0  0  0
 57134  1  0  0  0
 58135  1  0  0  0
 59 60  1  0  0  0
 59 61  1  0  0  0
 59 62  1  0  0  0
 60136  1  0  0  0
 60137  1  0  0  0
 60138  1  0  0  0
 61139  1  0  0  0
 61140  1  0  0  0
 61141  1  0  0  0
 62142  1  0  0  0
 62143  1  0  0  0
 62144  1  0  0  0
 63 65  1  0  0  0
 63145  1  0  0  0
 63146  1  0  0  0
 63147  1  0  0  0
 64148  1  0  0  0
 65149  1  0  0  0
 68 84  1  0  0  0
 71 72  2  0  0  0
 71 74  1  0  0  0
 71150  1  0  0  0
 72 75  1  0  0  0
 72151  1  0  0  0
 73 75  2  0  0  0
 73 76  1  0  0  0
 73152  1  0  0  0
 74 76  2  0  0  0
 74 86  1  0  0  0
 75 89  1  0  0  0
 76 90  1  0  0  0
 77 78  1  0  0  0
 77 86  1  0  0  0
 77 88  2  0  0  0
 78 79  1  0  0  0
 78153  1  0  0  0
 78154  1  0  0  0
 79 80  1  0  0  0
 79155  1  0  0  0
 79156  1  0  0  0
 80 81  1  0  0  0
 80157  1  0  0  0
 80158  1  0  0  0
 81 83  1  0  0  0
 81159  1  0  0  0
 81160  1  0  0  0
 82 84  1  0  0  0
 82 85  1  0  0  0
 82161  1  0  0  0
 82162  1  0  0  0
 83 87  1  0  0  0
 83163  1  0  0  0
 83164  1  0  0  0
 84165  1  0  0  0
 84166  1  0  0  0
 85 89  1  0  0  0
 85167  1  0  0  0
 85168  1  0  0  0
 86169  1  0  0  0
 87170  1  0  0  0
M  ISO  4   1 100  68 101  84 101  87 100
M  END
> <chiral flag>
0

> <version>
0

> <s_m_source_file>
/data/baiqing/PycharmProjects/Reinvent-master-3.2/result/LINK_invent/BTK/process_docking_weight1_custom_sum_contain_oxygen_bond_distance_aromatic_linkinvent_7_9_3/rearranged_h_0004.sdf

> <i_m_source_file_index>
19

> <r_mmod_Potential_Energy-OPLS-2005>
-136.751525878906

> <r_mmod_Stretch_Energy-OPLS-2005>
32.0383644104004

> <r_mmod_Bend_Energy-OPLS-2005>
95.9535446166992

> <r_mmod_Torsional_Energy-OPLS-2005>
253.307861328125

> <r_mmod_Improper_Torsional_Energy-OPLS-2005>
2.97330522537231

> <r_mmod_Van_der_Waal_Energy-OPLS-2005>
151.68098449707

> <r_mmod_Electrostatic_Energy-OPLS-2005>
-438.65283203125

> <r_mmod_Solvation_Energy-OPLS-2005>
-241.584335327148

> <b_mmod_Minimization_Converged-OPLS-2005>
0

> <r_mmod_RMS_Derivative-OPLS-2005>
1.89112722873688

$$$$
19
                    3D
 Structure written by MMmdl.
179187  0  0  1  0            999 V2000
  -30.6959  -14.4992   20.4672 C   0  0  0  0  0  0
  -30.4139  -12.2815   19.4506 C   0  0  0  0  0  0
  -29.5066  -12.3917   18.2106 C   0  0  0  0  0  0
  -28.0072  -12.3656   18.5871 C   0  0  0  0  0  0
  -27.6458  -13.2198   19.8408 C   0  0  2  0  0  0
  -28.6903  -13.0614   20.9656 C   0  0  0  0  0  0
  -25.2509  -13.8181   20.5562 C   0  0  0  0  0  0
  -24.1805  -13.0400   20.9164 C   0  0  0  0  0  0
  -24.6387  -11.6903   20.8686 C   0  0  0  0  0  0
  -23.9041  -10.4281   21.0419 C   0  0  0  0  0  0
  -24.3603   -9.4225   21.9224 C   0  0  0  0  0  0
  -23.6285   -8.2244   22.0744 C   0  0  0  0  0  0
  -22.4260   -8.0270   21.3553 C   0  0  0  0  0  0
  -21.9884   -9.0238   20.4660 C   0  0  0  0  0  0
  -22.7202  -10.2124   20.3077 C   0  0  0  0  0  0
  -21.6847   -6.0720   22.5308 C   0  0  0  0  0  0
  -21.4024   -6.5644   23.8247 C   0  0  0  0  0  0
  -21.3644   -5.6795   24.9204 C   0  0  0  0  0  0
  -21.6048   -4.3053   24.7246 C   0  0  0  0  0  0
  -21.8842   -3.8132   23.4360 C   0  0  0  0  0  0
  -21.9180   -4.6947   22.3410 C   0  0  0  0  0  0
  -22.7837  -13.5192   21.1853 C   0  0  0  0  0  0
  -22.1631   -4.2136   21.0963 F   0  0  0  0  0  0
  -21.5601   -3.4529   25.7748 F   0  0  0  0  0  0
  -30.0147  -13.3264   20.3972 N   0  0  0  0  0  0
  -26.2938  -12.9373   20.3162 N   0  0  0  0  0  0
  -25.9327  -11.6540   20.5721 N   0  0  0  0  0  0
  -22.0453  -12.8223   22.0466 N   0  0  0  0  0  0
  -25.4140  -15.1889   20.3940 N   0  0  0  0  0  0
  -31.8957  -14.5897   20.2075 O   0  0  0  0  0  0
  -21.6655   -6.8833   21.4263 O   0  0  0  0  0  0
  -22.3479  -14.5442   20.6643 O   0  0  0  0  0  0
  -24.6107  -31.8714   23.2124 C   0  0  0  0  0  0
  -25.8997  -32.4848   23.8416 C   0  0  1  0  0  0
  -27.2165  -27.4646   20.0881 C   0  0  0  0  0  0
  -25.5881  -33.8651   24.2357 N   0  0  0  0  0  0
  -23.3936  -30.4933   21.5553 C   0  0  2  0  0  0
  -24.8346  -28.9636   20.1187 C   0  0  0  0  0  0
  -22.7381  -29.4674   22.5058 C   0  0  0  0  0  0
  -18.0251  -28.1421   22.8489 C   0  0  0  0  0  0
  -24.1462  -36.7343   23.2633 C   0  0  0  0  0  0
  -25.9147  -30.8509   21.3503 C   0  0  0  0  0  0
  -25.9920  -29.4835   20.7091 C   0  0  0  0  0  0
  -27.1902  -28.7388   20.7001 C   0  0  0  0  0  0
  -26.0422  -26.9406   19.5186 C   0  0  0  0  0  0
  -24.8501  -27.6910   19.5219 C   0  0  0  0  0  0
  -23.5932  -29.8243   20.1693 C   0  0  0  0  0  0
  -25.4081  -36.3135   24.0337 C   0  0  1  0  0  0
  -20.5841  -28.3687   23.1370 C   0  0  2  0  0  0
  -20.6746  -26.9439   22.5436 C   0  0  0  0  0  0
  -19.5729  -26.6416   21.5242 C   0  0  0  0  0  0
  -18.1905  -26.7966   22.1645 C   0  0  0  0  0  0
  -19.1502  -28.8885   23.2918 C   0  0  0  0  0  0
  -18.9419  -30.1482   23.8934 C   0  0  0  0  0  0
  -17.6421  -30.6603   24.0600 C   0  0  0  0  0  0
  -25.9021  -34.9507   23.5161 C   0  0  0  0  0  0
  -16.5312  -29.9108   23.6342 C   0  0  0  0  0  0
  -16.7246  -28.6547   23.0332 C   0  0  0  0  0  0
  -26.4446  -31.6609   25.0736 C   0  0  0  0  0  0
  -25.3726  -31.3666   26.1488 C   0  0  0  0  0  0
  -27.0275  -30.3068   24.6078 C   0  0  0  0  0  0
  -27.6043  -32.4319   25.7494 C   0  0  0  0  0  0
  -27.5577  -37.1815   24.8466 C   0  0  0  0  0  0
  -21.4141  -29.3047   22.3785 N   0  0  0  0  0  0
  -26.4282  -37.3808   23.9422 N   0  0  0  0  0  0
  -24.6584  -31.0865   22.1006 N   0  0  0  0  0  0
  -23.4178  -28.8221   23.3068 O   0  0  0  0  0  0
  -28.3565  -26.7075   20.0145 O   0  0  0  0  0  0
  -26.5583  -34.8948   22.4713 O   0  0  0  0  0  0
  -23.5324  -32.1446   23.7560 O   0  0  0  0  0  0
  -29.5250  -17.1746   23.8074 C   0  0  0  0  0  0
  -29.7677  -16.1977   22.8129 C   0  0  0  0  0  0
  -29.4425  -17.9077   21.1321 C   0  0  0  0  0  0
  -29.2331  -18.5154   23.4649 C   0  0  0  0  0  0
  -29.7208  -16.5527   21.4408 C   0  0  0  0  0  0
  -29.1947  -18.8926   22.1074 C   0  0  0  0  0  0
  -28.9524  -19.5272   24.5638 C   0  0  0  0  0  0
  -30.8569  -16.8602   18.3234 C   0  0  0  0  0  0
  -29.2554  -24.3967   16.2510 C   0  0  0  0  0  0
  -29.7063  -21.5022   19.7822 C   0  0  0  0  0  0
  -29.4568  -22.0350   18.3581 C   0  0  0  0  0  0
  -30.5830  -26.3443   19.1626 C   0  0  0  0  0  0
  -29.6808  -16.0744   18.9664 C   0  0  0  0  0  0
  -28.5911  -20.6324   20.3727 C   0  0  0  0  0  0
  -30.4569  -23.1716   18.0214 C   0  0  0  0  0  0
  -30.7201  -25.6278   17.7970 C   0  0  0  0  0  0
  -29.3808  -27.3015   19.2413 C   0  0  0  0  0  0
  -28.9245  -20.2285   21.7434 N   0  0  0  0  0  0
  -29.9232  -15.6112   20.3590 N   0  0  0  0  0  0
  -29.8137  -24.4564   17.6225 N   0  3  1  0  0  0
  -31.4631  -12.3536   19.1546 H   0  0  0  0  0  0
  -30.2920  -11.3073   19.9204 H   0  0  0  0  0  0
  -29.7277  -11.5600   17.5460 H   0  0  0  0  0  0
  -29.7580  -13.2756   17.6314 H   0  0  0  0  0  0
  -27.7360  -11.3183   18.7490 H   0  0  0  0  0  0
  -27.4035  -12.7000   17.7434 H   0  0  0  0  0  0
  -27.6644  -14.2608   19.5264 H   0  0  0  0  0  0
  -28.6522  -12.0514   21.3776 H   0  0  0  0  0  0
  -28.4787  -13.7445   21.7881 H   0  0  0  0  0  0
  -25.2773   -9.5680   22.4793 H   0  0  0  0  0  0
  -24.0016   -7.4600   22.7396 H   0  0  0  0  0  0
  -21.0810   -8.8728   19.8965 H   0  0  0  0  0  0
  -22.3655  -10.9637   19.6146 H   0  0  0  0  0  0
  -21.2074   -7.6173   23.9740 H   0  0  0  0  0  0
  -21.1417   -6.0522   25.9092 H   0  0  0  0  0  0
  -22.0634   -2.7598   23.2880 H   0  0  0  0  0  0
  -22.3973  -11.9912   22.4998 H   0  0  0  0  0  0
  -21.1033  -13.1256   22.2480 H   0  0  0  0  0  0
  -24.6439  -15.8358   20.5080 H   0  0  0  0  0  0
  -26.2760  -15.6518   20.1369 H   0  0  0  0  0  0
  -26.7082  -32.5572   23.1190 H   0  0  0  0  0  0
  -25.0036  -33.9803   25.0517 H   0  0  0  0  0  0
  -22.6834  -31.3115   21.4225 H   0  0  0  0  0  0
  -23.3728  -35.9676   23.3289 H   0  0  0  0  0  0
  -24.3565  -36.8969   22.2058 H   0  0  0  0  0  0
  -23.7214  -37.6547   23.6647 H   0  0  0  0  0  0
  -26.0009  -31.6076   20.5684 H   0  0  0  0  0  0
  -26.8134  -30.9253   21.9491 H   0  0  0  0  0  0
  -28.0875  -29.1399   21.1493 H   0  0  0  0  0  0
  -26.0505  -25.9623   19.0598 H   0  0  0  0  0  0
  -23.9550  -27.2830   19.0749 H   0  0  0  0  0  0
  -23.6884  -30.5973   19.4060 H   0  0  0  0  0  0
  -22.7176  -29.2337   19.8900 H   0  0  0  0  0  0
  -25.1239  -36.2012   25.0829 H   0  0  0  0  0  0
  -20.9922  -28.3231   24.1500 H   0  0  0  0  0  0
  -20.5733  -26.2280   23.3602 H   0  0  0  0  0  0
  -21.6605  -26.7530   22.1192 H   0  0  0  0  0  0
  -19.6888  -25.6333   21.1267 H   0  0  0  0  0  0
  -19.6685  -27.3241   20.6795 H   0  0  0  0  0  0
  -17.4185  -26.6746   21.4022 H   0  0  0  0  0  0
  -18.0279  -26.0104   22.9047 H   0  0  0  0  0  0
  -19.7884  -30.7301   24.2323 H   0  0  0  0  0  0
  -17.4962  -31.6290   24.5194 H   0  0  0  0  0  0
  -15.5317  -30.3026   23.7653 H   0  0  0  0  0  0
  -15.8642  -28.0891   22.7014 H   0  0  0  0  0  0
  -24.5947  -30.6958   25.7812 H   0  0  0  0  0  0
  -24.8847  -32.2798   26.4935 H   0  0  0  0  0  0
  -25.8095  -30.8858   27.0257 H   0  0  0  0  0  0
  -26.2815  -29.6822   24.1161 H   0  0  0  0  0  0
  -27.4096  -29.7292   25.4510 H   0  0  0  0  0  0
  -27.8614  -30.4392   23.9173 H   0  0  0  0  0  0
  -27.2701  -33.3638   26.2052 H   0  0  0  0  0  0
  -28.3863  -32.6843   25.0322 H   0  0  0  0  0  0
  -28.0702  -31.8460   26.5420 H   0  0  0  0  0  0
  -28.2576  -38.0124   24.7537 H   0  0  0  0  0  0
  -28.1077  -36.2670   24.6236 H   0  0  0  0  0  0
  -27.2311  -37.1407   25.8867 H   0  0  0  0  0  0
  -20.9306  -29.8733   21.6973 H   0  0  0  0  0  0
  -26.0177  -38.2886   24.1438 H   0  0  0  0  0  0
  -29.5539  -16.8890   24.8507 H   0  0  0  0  0  0
  -29.9760  -15.1853   23.1412 H   0  0  0  0  0  0
  -29.4615  -18.2273   20.1112 H   0  0  0  0  0  0
  -27.9732  -19.9916   24.4113 H   0  0  0  0  0  0
  -28.9581  -19.0547   25.5473 H   0  0  0  0  0  0
  -29.7131  -20.3089   24.5534 H   0  0  0  0  0  0
  -31.7791  -16.2847   18.2875 H   0  0  0  0  0  0
  -31.1048  -17.7860   18.8388 H   0  0  0  0  0  0
  -30.6068  -17.1345   17.2981 H   0  0  0  0  0  0
  -28.5346  -23.5846   16.1470 H   0  0  0  0  0  0
  -30.0400  -24.2441   15.5076 H   0  0  0  0  0  0
  -28.7374  -25.3208   15.9983 H   0  0  0  0  0  0
  -29.8161  -22.3705   20.4331 H   0  0  0  0  0  0
  -30.6613  -20.9653   19.8043 H   0  0  0  0  0  0
  -28.4213  -22.3631   18.2592 H   0  0  0  0  0  0
  -29.5627  -21.2135   17.6440 H   0  0  0  0  0  0
  -31.4698  -26.9617   19.3035 H   0  0  0  0  0  0
  -30.5916  -25.6368   19.9921 H   0  0  0  0  0  0
  -29.4456  -15.2333   18.3252 H   0  0  0  0  0  0
  -28.7624  -16.6564   18.9283 H   0  0  0  0  0  0
  -28.3548  -19.8047   19.7045 H   0  0  0  0  0  0
  -27.6653  -21.2078   20.4189 H   0  0  0  0  0  0
  -31.1711  -22.8439   17.2634 H   0  0  0  0  0  0
  -31.0662  -23.3671   18.9068 H   0  0  0  0  0  0
  -31.7509  -25.3062   17.6553 H   0  0  0  0  0  0
  -30.5518  -26.3639   17.0108 H   0  0  0  0  0  0
  -28.9976  -27.5293   18.2452 H   0  0  0  0  0  0
  -29.6816  -28.2494   19.6849 H   0  0  0  0  0  0
  -28.9010  -20.9481   22.4647 H   0  0  0  0  0  0
  -29.0318  -24.6199   18.2401 H   0  0  0  0  0  0
  1 25  1  0  0  0
  1 30  2  0  0  0
  1 89  1  0  0  0
  2  3  1  0  0  0
  2 25  1  0  0  0
  2 91  1  0  0  0
  2 92  1  0  0  0
  3  4  1  0  0  0
  3 93  1  0  0  0
  3 94  1  0  0  0
  4  5  1  0  0  0
  4 95  1  0  0  0
  4 96  1  0  0  0
  5  6  1  0  0  0
  5 26  1  0  0  0
  5 97  1  0  0  0
  6 25  1  0  0  0
  6 98  1  0  0  0
  6 99  1  0  0  0
  7  8  2  0  0  0
  7 26  1  0  0  0
  7 29  1  0  0  0
  8  9  1  0  0  0
  8 22  1  0  0  0
  9 10  1  0  0  0
  9 27  2  0  0  0
 10 11  2  0  0  0
 10 15  1  0  0  0
 11 12  1  0  0  0
 11100  1  0  0  0
 12 13  2  0  0  0
 12101  1  0  0  0
 13 14  1  0  0  0
 13 31  1  0  0  0
 14 15  2  0  0  0
 14102  1  0  0  0
 15103  1  0  0  0
 16 17  2  0  0  0
 16 21  1  0  0  0
 16 31  1  0  0  0
 17 18  1  0  0  0
 17104  1  0  0  0
 18 19  2  0  0  0
 18105  1  0  0  0
 19 20  1  0  0  0
 19 24  1  0  0  0
 20 21  2  0  0  0
 20106  1  0  0  0
 21 23  1  0  0  0
 22 28  1  0  0  0
 22 32  2  0  0  0
 26 27  1  0  0  0
 28107  1  0  0  0
 28108  1  0  0  0
 29109  1  0  0  0
 29110  1  0  0  0
 33 34  1  0  0  0
 33 66  1  0  0  0
 33 70  2  0  0  0
 34 36  1  0  0  0
 34 59  1  0  0  0
 34111  1  0  0  0
 35 44  2  0  0  0
 35 45  1  0  0  0
 35 68  1  0  0  0
 36 56  1  0  0  0
 36112  1  0  0  0
 37 39  1  0  0  0
 37 47  1  0  0  0
 37 66  1  0  0  0
 37113  1  0  0  0
 38 43  2  0  0  0
 38 46  1  0  0  0
 38 47  1  0  0  0
 39 64  1  0  0  0
 39 67  2  0  0  0
 40 52  1  0  0  0
 40 53  2  0  0  0
 40 58  1  0  0  0
 41114  1  0  0  0
 41115  1  0  0  0
 41116  1  0  0  0
 41 48  1  0  0  0
 42 43  1  0  0  0
 42 66  1  0  0  0
 42117  1  0  0  0
 42118  1  0  0  0
 43 44  1  0  0  0
 44119  1  0  0  0
 45 46  2  0  0  0
 45120  1  0  0  0
 46121  1  0  0  0
 47122  1  0  0  0
 47123  1  0  0  0
 48 56  1  0  0  0
 48 65  1  0  0  0
 48124  1  0  0  0
 49 50  1  0  0  0
 49 53  1  0  0  0
 49 64  1  0  0  0
 49125  1  0  0  0
 50 51  1  0  0  0
 50126  1  0  0  0
 50127  1  0  0  0
 51 52  1  0  0  0
 51128  1  0  0  0
 51129  1  0  0  0
 52130  1  0  0  0
 52131  1  0  0  0
 53 54  1  0  0  0
 54 55  2  0  0  0
 54132  1  0  0  0
 55 57  1  0  0  0
 55133  1  0  0  0
 56 69  2  0  0  0
 57 58  2  0  0  0
 57134  1  0  0  0
 58135  1  0  0  0
 59 60  1  0  0  0
 59 61  1  0  0  0
 59 62  1  0  0  0
 60136  1  0  0  0
 60137  1  0  0  0
 60138  1  0  0  0
 61139  1  0  0  0
 61140  1  0  0  0
 61141  1  0  0  0
 62142  1  0  0  0
 62143  1  0  0  0
 62144  1  0  0  0
 63 65  1  0  0  0
 63145  1  0  0  0
 63146  1  0  0  0
 63147  1  0  0  0
 64148  1  0  0  0
 65149  1  0  0  0
 68 87  1  0  0  0
 71 72  2  0  0  0
 71 74  1  0  0  0
 71150  1  0  0  0
 72 75  1  0  0  0
 72151  1  0  0  0
 73 75  2  0  0  0
 73 76  1  0  0  0
 73152  1  0  0  0
 74 76  2  0  0  0
 74 77  1  0  0  0
 75 89  1  0  0  0
 76 88  1  0  0  0
 77153  1  0  0  0
 77154  1  0  0  0
 77155  1  0  0  0
 78 83  1  0  0  0
 78156  1  0  0  0
 78157  1  0  0  0
 78158  1  0  0  0
 79159  1  0  0  0
 79160  1  0  0  0
 79161  1  0  0  0
 79 90  1  0  0  0
 80 81  1  0  0  0
 80 84  1  0  0  0
 80162  1  0  0  0
 80163  1  0  0  0
 81 85  1  0  0  0
 81164  1  0  0  0
 81165  1  0  0  0
 82 86  1  0  0  0
 82 87  1  0  0  0
 82166  1  0  0  0
 82167  1  0  0  0
 83 89  1  0  0  0
 83168  1  0  0  0
 83169  1  0  0  0
 84 88  1  0  0  0
 84170  1  0  0  0
 84171  1  0  0  0
 85 90  1  0  0  0
 85172  1  0  0  0
 85173  1  0  0  0
 86 90  1  0  0  0
 86174  1  0  0  0
 86175  1  0  0  0
 87176  1  0  0  0
 87177  1  0  0  0
 88178  1  0  0  0
 90179  1  0  0  0
M  CHG  1  90   1
M  ISO  4   1 100  68 101  87 101  89 100
M  END
> <chiral flag>
0

> <version>
0

> <s_m_source_file>
/data/baiqing/PycharmProjects/Reinvent-master-3.2/result/LINK_invent/BTK/process_docking_weight1_custom_sum_contain_oxygen_bond_distance_aromatic_linkinvent_7_9_3/rearranged_h_0004.sdf

> <i_m_source_file_index>
20

> <r_mmod_Potential_Energy-OPLS-2005>
97.8327255249023

> <r_mmod_Stretch_Energy-OPLS-2005>
41.8708190917969

> <r_mmod_Bend_Energy-OPLS-2005>
119.167854309082

> <r_mmod_Torsional_Energy-OPLS-2005>
345.152435302734

> <r_mmod_Improper_Torsional_Energy-OPLS-2005>
14.9932613372803

> <r_mmod_Van_der_Waal_Energy-OPLS-2005>
169.585632324219

> <r_mmod_Electrostatic_Energy-OPLS-2005>
-196.388900756836

> <r_mmod_Solvation_Energy-OPLS-2005>
-420.032348632812

> <b_mmod_Minimization_Converged-OPLS-2005>
0

> <r_mmod_RMS_Derivative-OPLS-2005>
7.84627199172974

$$$$
20
                    3D
 Structure written by MMmdl.
193202  0  0  1  0            999 V2000
  -30.7619  -14.3924   20.6463 C   0  0  0  0  0  0
  -30.4094  -12.2881   19.4114 C   0  0  0  0  0  0
  -29.4821  -12.5226   18.2041 C   0  0  0  0  0  0
  -28.0064  -12.3806   18.6223 C   0  0  0  0  0  0
  -27.6630  -13.2103   19.8875 C   0  0  2  0  0  0
  -28.7033  -12.9739   21.0071 C   0  0  0  0  0  0
  -25.2554  -13.8162   20.5706 C   0  0  0  0  0  0
  -24.1817  -13.0421   20.9202 C   0  0  0  0  0  0
  -24.6386  -11.6895   20.8740 C   0  0  0  0  0  0
  -23.9040  -10.4290   21.0398 C   0  0  0  0  0  0
  -24.3596   -9.4205   21.9167 C   0  0  0  0  0  0
  -23.6280   -8.2239   22.0729 C   0  0  0  0  0  0
  -22.4254   -8.0280   21.3541 C   0  0  0  0  0  0
  -21.9887   -9.0235   20.4624 C   0  0  0  0  0  0
  -22.7209  -10.2124   20.3045 C   0  0  0  0  0  0
  -21.6853   -6.0731   22.5296 C   0  0  0  0  0  0
  -21.4010   -6.5634   23.8227 C   0  0  0  0  0  0
  -21.3662   -5.6788   24.9192 C   0  0  0  0  0  0
  -21.6047   -4.3052   24.7252 C   0  0  0  0  0  0
  -21.8812   -3.8146   23.4375 C   0  0  0  0  0  0
  -21.9184   -4.6961   22.3426 C   0  0  0  0  0  0
  -22.7841  -13.5192   21.1893 C   0  0  0  0  0  0
  -22.1645   -4.2153   21.0997 F   0  0  0  0  0  0
  -21.5630   -3.4518   25.7755 F   0  0  0  0  0  0
  -30.0473  -13.2510   20.4638 N   0  0  0  0  0  0
  -26.3023  -12.9359   20.3451 N   0  0  0  0  0  0
  -25.9323  -11.6512   20.5810 N   0  0  0  0  0  0
  -22.0515  -12.8180   22.0474 N   0  0  0  0  0  0
  -25.4197  -15.1882   20.4062 N   0  0  0  0  0  0
  -31.8120  -14.6365   20.0425 O   0  0  0  0  0  0
  -21.6647   -6.8865   21.4248 O   0  0  0  0  0  0
  -22.3514  -14.5508   20.6754 O   0  0  0  0  0  0
  -24.6174  -31.8684   23.2121 C   0  0  0  0  0  0
  -25.9060  -32.4820   23.8406 C   0  0  1  0  0  0
  -27.2337  -27.4465   20.0268 C   0  0  0  0  0  0
  -25.5916  -33.8623   24.2328 N   0  0  0  0  0  0
  -23.4007  -30.4956   21.5594 C   0  0  2  0  0  0
  -24.8366  -28.9623   20.1236 C   0  0  0  0  0  0
  -22.7401  -29.4664   22.5046 C   0  0  0  0  0  0
  -18.0268  -28.1374   22.8500 C   0  0  0  0  0  0
  -24.1486  -36.7319   23.2639 C   0  0  0  0  0  0
  -25.9334  -30.8303   21.3636 C   0  0  0  0  0  0
  -26.0061  -29.4678   20.7036 C   0  0  0  0  0  0
  -27.2043  -28.7162   20.6548 C   0  0  0  0  0  0
  -26.0174  -26.9310   19.5142 C   0  0  0  0  0  0
  -24.8339  -27.6871   19.5425 C   0  0  0  0  0  0
  -23.6015  -29.8311   20.1746 C   0  0  0  0  0  0
  -25.4109  -36.3119   24.0335 C   0  0  1  0  0  0
  -20.5853  -28.3656   23.1335 C   0  0  2  0  0  0
  -20.6761  -26.9400   22.5416 C   0  0  0  0  0  0
  -19.5733  -26.6386   21.5218 C   0  0  0  0  0  0
  -18.1912  -26.7920   22.1632 C   0  0  0  0  0  0
  -19.1515  -28.8834   23.2915 C   0  0  0  0  0  0
  -18.9445  -30.1439   23.8919 C   0  0  0  0  0  0
  -17.6443  -30.6584   24.0565 C   0  0  0  0  0  0
  -25.9035  -34.9480   23.5130 C   0  0  0  0  0  0
  -16.5340  -29.9078   23.6329 C   0  0  0  0  0  0
  -16.7254  -28.6499   23.0357 C   0  0  0  0  0  0
  -26.4481  -31.6610   25.0739 C   0  0  0  0  0  0
  -25.3741  -31.3722   26.1488 C   0  0  0  0  0  0
  -27.0302  -30.3049   24.6119 C   0  0  0  0  0  0
  -27.6063  -32.4328   25.7489 C   0  0  0  0  0  0
  -27.5583  -37.1810   24.8461 C   0  0  0  0  0  0
  -21.4135  -29.3036   22.3765 N   0  0  0  0  0  0
  -26.4293  -37.3806   23.9410 N   0  0  0  0  0  0
  -24.6697  -31.0779   22.1031 N   0  0  0  0  0  0
  -23.4176  -28.8202   23.3088 O   0  0  0  0  0  0
  -28.4397  -26.7686   19.9434 O   0  0  0  0  0  0
  -26.5603  -34.8929   22.4692 O   0  0  0  0  0  0
  -23.5363  -32.1459   23.7506 O   0  0  0  0  0  0
  -32.7058  -29.2000   23.9064 C   0  0  0  0  0  0
  -33.3265  -28.7812   22.7131 C   0  0  0  0  0  0
  -32.5899  -28.3069   24.9890 C   0  0  0  0  0  0
  -33.8351  -27.4717   22.6034 C   0  0  0  0  0  0
  -33.0981  -26.9981   24.8809 C   0  0  0  0  0  0
  -33.7249  -26.5780   23.6889 C   0  0  0  0  0  0
  -34.6027  -23.9822   19.5965 C   0  0  0  0  0  0
  -32.2216  -21.7106   19.4929 C   0  0  0  0  0  0
  -34.9349  -22.6585   21.7653 C   0  0  0  0  0  0
  -32.5480  -22.4154   21.8606 C   0  0  0  0  0  0
  -34.4056  -22.6239   20.3188 C   0  0  1  0  0  0
  -33.7245  -23.0380   22.6094 C   0  0  2  0  0  0
  -34.2534  -25.1636   23.5630 C   0  0  0  0  0  0
  -30.7323  -21.4178   19.7459 C   0  0  0  0  0  0
  -30.3432  -19.9324   19.6276 C   0  0  0  0  0  0
  -30.8104  -19.0373   20.7920 C   0  0  0  0  0  0
  -31.1496  -25.7576   18.5273 C   0  0  0  0  0  0
  -30.2254  -17.6176   20.6734 C   0  0  0  0  0  0
  -32.2300  -25.8314   17.4259 C   0  0  0  0  0  0
  -29.7353  -25.9751   17.9734 C   0  0  0  0  0  0
  -33.6577  -25.5955   17.9443 C   0  0  0  0  0  0
  -30.7580  -16.6291   21.7311 C   0  0  0  0  0  0
  -28.6000  -25.7079   18.9796 C   0  0  0  0  0  0
  -32.9903  -22.2294   20.4765 N   0  0  0  0  0  0
  -33.7468  -24.3064   18.6209 N   0  0  0  0  0  0
  -30.2437  -15.2782   21.5047 N   0  0  0  0  0  0
  -35.5227  -24.7389   19.9143 O   0  0  0  0  0  0
  -32.6742  -21.5103   18.3632 O   0  0  0  0  0  0
  -33.4946  -24.4396   22.6070 O   0  0  0  0  0  0
  -31.4520  -12.3765   19.1008 H   0  0  0  0  0  0
  -30.3009  -11.2678   19.7848 H   0  0  0  0  0  0
  -29.7137  -11.8155   17.4074 H   0  0  0  0  0  0
  -29.6596  -13.5169   17.7871 H   0  0  0  0  0  0
  -27.8125  -11.3231   18.8103 H   0  0  0  0  0  0
  -27.3505  -12.6672   17.8003 H   0  0  0  0  0  0
  -27.7105  -14.2621   19.6043 H   0  0  0  0  0  0
  -28.6633  -11.9415   21.3554 H   0  0  0  0  0  0
  -28.4577  -13.5791   21.8793 H   0  0  0  0  0  0
  -25.2745   -9.5696   22.4734 H   0  0  0  0  0  0
  -24.0007   -7.4633   22.7437 H   0  0  0  0  0  0
  -21.0818   -8.8754   19.8923 H   0  0  0  0  0  0
  -22.3663  -10.9661   19.6154 H   0  0  0  0  0  0
  -21.2013   -7.6145   23.9743 H   0  0  0  0  0  0
  -21.1479   -6.0522   25.9094 H   0  0  0  0  0  0
  -22.0590   -2.7608   23.2895 H   0  0  0  0  0  0
  -22.4103  -11.9809   22.4847 H   0  0  0  0  0  0
  -21.1133  -13.1200   22.2698 H   0  0  0  0  0  0
  -24.6420  -15.8343   20.4795 H   0  0  0  0  0  0
  -26.2692  -15.6311   20.0781 H   0  0  0  0  0  0
  -26.7121  -32.5516   23.1158 H   0  0  0  0  0  0
  -25.0057  -33.9798   25.0466 H   0  0  0  0  0  0
  -22.6903  -31.3140   21.4254 H   0  0  0  0  0  0
  -23.3744  -35.9654   23.3306 H   0  0  0  0  0  0
  -24.3573  -36.8934   22.2051 H   0  0  0  0  0  0
  -23.7230  -37.6523   23.6648 H   0  0  0  0  0  0
  -26.0470  -31.5989   20.5984 H   0  0  0  0  0  0
  -26.8215  -30.8767   21.9822 H   0  0  0  0  0  0
  -28.1157  -29.1188   21.0745 H   0  0  0  0  0  0
  -25.9301  -25.9430   19.0923 H   0  0  0  0  0  0
  -23.9261  -27.2746   19.1249 H   0  0  0  0  0  0
  -23.7061  -30.6073   19.4160 H   0  0  0  0  0  0
  -22.7219  -29.2541   19.8820 H   0  0  0  0  0  0
  -25.1277  -36.1990   25.0825 H   0  0  0  0  0  0
  -20.9935  -28.3209   24.1459 H   0  0  0  0  0  0
  -20.5677  -26.2263   23.3600 H   0  0  0  0  0  0
  -21.6630  -26.7461   22.1195 H   0  0  0  0  0  0
  -19.6900  -25.6301   21.1232 H   0  0  0  0  0  0
  -19.6664  -27.3213   20.6760 H   0  0  0  0  0  0
  -17.4185  -26.6679   21.4030 H   0  0  0  0  0  0
  -18.0314  -26.0048   22.9014 H   0  0  0  0  0  0
  -19.7918  -30.7257   24.2291 H   0  0  0  0  0  0
  -17.4998  -31.6263   24.5162 H   0  0  0  0  0  0
  -15.5338  -30.2992   23.7633 H   0  0  0  0  0  0
  -15.8657  -28.0817   22.7068 H   0  0  0  0  0  0
  -24.5897  -30.7091   25.7826 H   0  0  0  0  0  0
  -24.8953  -32.2879   26.4966 H   0  0  0  0  0  0
  -25.8087  -30.8863   27.0231 H   0  0  0  0  0  0
  -26.2849  -29.6819   24.1160 H   0  0  0  0  0  0
  -27.4055  -29.7277   25.4580 H   0  0  0  0  0  0
  -27.8694  -30.4365   23.9282 H   0  0  0  0  0  0
  -27.2699  -33.3632   26.2079 H   0  0  0  0  0  0
  -28.3859  -32.6885   25.0300 H   0  0  0  0  0  0
  -28.0743  -31.8442   26.5391 H   0  0  0  0  0  0
  -28.2600  -38.0110   24.7522 H   0  0  0  0  0  0
  -28.1080  -36.2641   24.6262 H   0  0  0  0  0  0
  -27.2305  -37.1438   25.8866 H   0  0  0  0  0  0
  -20.9303  -29.8761   21.6984 H   0  0  0  0  0  0
  -26.0182  -38.2883   24.1415 H   0  0  0  0  0  0
  -32.3136  -30.2043   23.9908 H   0  0  0  0  0  0
  -33.4072  -29.4634   21.8786 H   0  0  0  0  0  0
  -32.1064  -28.6228   25.9025 H   0  0  0  0  0  0
  -34.3028  -27.1469   21.6834 H   0  0  0  0  0  0
  -32.9971  -26.3142   25.7128 H   0  0  0  0  0  0
  -35.7987  -23.3026   21.9276 H   0  0  0  0  0  0
  -35.2507  -21.6521   22.0401 H   0  0  0  0  0  0
  -31.6672  -23.0545   21.9315 H   0  0  0  0  0  0
  -32.2976  -21.4437   22.2898 H   0  0  0  0  0  0
  -34.9475  -21.8665   19.7526 H   0  0  0  0  0  0
  -33.7835  -22.6534   23.6301 H   0  0  0  0  0  0
  -34.2017  -24.6768   24.5382 H   0  0  0  0  0  0
  -35.3057  -25.1892   23.2768 H   0  0  0  0  0  0
  -30.1953  -21.9630   18.9710 H   0  0  0  0  0  0
  -30.3552  -21.8286   20.6794 H   0  0  0  0  0  0
  -30.7155  -19.5331   18.6815 H   0  0  0  0  0  0
  -29.2555  -19.8824   19.5618 H   0  0  0  0  0  0
  -30.5042  -19.4699   21.7459 H   0  0  0  0  0  0
  -31.9013  -18.9928   20.8108 H   0  0  0  0  0  0
  -31.3607  -26.4905   19.3060 H   0  0  0  0  0  0
  -31.1843  -24.7807   19.0104 H   0  0  0  0  0  0
  -30.4443  -17.2325   19.6766 H   0  0  0  0  0  0
  -29.1372  -17.6697   20.7469 H   0  0  0  0  0  0
  -32.1877  -26.8050   16.9350 H   0  0  0  0  0  0
  -32.0120  -25.0993   16.6457 H   0  0  0  0  0  0
  -29.5990  -25.2853   17.1377 H   0  0  0  0  0  0
  -29.6337  -26.9732   17.5465 H   0  0  0  0  0  0
  -33.9360  -26.4046   18.6230 H   0  0  0  0  0  0
  -34.3717  -25.6213   17.1188 H   0  0  0  0  0  0
  -30.4658  -16.9507   22.7308 H   0  0  0  0  0  0
  -31.8496  -16.6199   21.7268 H   0  0  0  0  0  0
  -28.7770  -24.7719   19.5096 H   0  0  0  0  0  0
  -27.7335  -25.5266   18.3532 H   0  0  0  0  0  0
  -33.0887  -23.5895   18.3400 H   0  0  0  0  0  0
  -29.4111  -15.0011   22.0062 H   0  0  0  0  0  0
  1 25  1  0  0  0
  1 30  2  0  0  0
  1 96  1  0  0  0
  2  3  1  0  0  0
  2 25  1  0  0  0
  2100  1  0  0  0
  2101  1  0  0  0
  3  4  1  0  0  0
  3102  1  0  0  0
  3103  1  0  0  0
  4  5  1  0  0  0
  4104  1  0  0  0
  4105  1  0  0  0
  5  6  1  0  0  0
  5 26  1  0  0  0
  5106  1  0  0  0
  6 25  1  0  0  0
  6107  1  0  0  0
  6108  1  0  0  0
  7  8  2  0  0  0
  7 26  1  0  0  0
  7 29  1  0  0  0
  8  9  1  0  0  0
  8 22  1  0  0  0
  9 10  1  0  0  0
  9 27  2  0  0  0
 10 11  2  0  0  0
 10 15  1  0  0  0
 11 12  1  0  0  0
 11109  1  0  0  0
 12 13  2  0  0  0
 12110  1  0  0  0
 13 14  1  0  0  0
 13 31  1  0  0  0
 14 15  2  0  0  0
 14111  1  0  0  0
 15112  1  0  0  0
 16 17  2  0  0  0
 16 21  1  0  0  0
 16 31  1  0  0  0
 17 18  1  0  0  0
 17113  1  0  0  0
 18 19  2  0  0  0
 18114  1  0  0  0
 19 20  1  0  0  0
 19 24  1  0  0  0
 20 21  2  0  0  0
 20115  1  0  0  0
 21 23  1  0  0  0
 22 28  1  0  0  0
 22 32  2  0  0  0
 26 27  1  0  0  0
 28116  1  0  0  0
 28117  1  0  0  0
 29118  1  0  0  0
 29119  1  0  0  0
 33 34  1  0  0  0
 33 66  1  0  0  0
 33 70  2  0  0  0
 34 36  1  0  0  0
 34 59  1  0  0  0
 34120  1  0  0  0
 35 44  2  0  0  0
 35 45  1  0  0  0
 35 68  1  0  0  0
 36 56  1  0  0  0
 36121  1  0  0  0
 37 39  1  0  0  0
 37 47  1  0  0  0
 37 66  1  0  0  0
 37122  1  0  0  0
 38 43  2  0  0  0
 38 46  1  0  0  0
 38 47  1  0  0  0
 39 64  1  0  0  0
 39 67  2  0  0  0
 40 52  1  0  0  0
 40 53  2  0  0  0
 40 58  1  0  0  0
 41123  1  0  0  0
 41124  1  0  0  0
 41125  1  0  0  0
 41 48  1  0  0  0
 42 43  1  0  0  0
 42 66  1  0  0  0
 42126  1  0  0  0
 42127  1  0  0  0
 43 44  1  0  0  0
 44128  1  0  0  0
 45 46  2  0  0  0
 45129  1  0  0  0
 46130  1  0  0  0
 47131  1  0  0  0
 47132  1  0  0  0
 48 56  1  0  0  0
 48 65  1  0  0  0
 48133  1  0  0  0
 49 50  1  0  0  0
 49 53  1  0  0  0
 49 64  1  0  0  0
 49134  1  0  0  0
 50 51  1  0  0  0
 50135  1  0  0  0
 50136  1  0  0  0
 51 52  1  0  0  0
 51137  1  0  0  0
 51138  1  0  0  0
 52139  1  0  0  0
 52140  1  0  0  0
 53 54  1  0  0  0
 54 55  2  0  0  0
 54141  1  0  0  0
 55 57  1  0  0  0
 55142  1  0  0  0
 56 69  2  0  0  0
 57 58  2  0  0  0
 57143  1  0  0  0
 58144  1  0  0  0
 59 60  1  0  0  0
 59 61  1  0  0  0
 59 62  1  0  0  0
 60145  1  0  0  0
 60146  1  0  0  0
 60147  1  0  0  0
 61148  1  0  0  0
 61149  1  0  0  0
 61150  1  0  0  0
 62151  1  0  0  0
 62152  1  0  0  0
 62153  1  0  0  0
 63 65  1  0  0  0
 63154  1  0  0  0
 63155  1  0  0  0
 63156  1  0  0  0
 64157  1  0  0  0
 65158  1  0  0  0
 68 93  1  0  0  0
 71 72  2  0  0  0
 71 73  1  0  0  0
 71159  1  0  0  0
 72 74  1  0  0  0
 72160  1  0  0  0
 73 75  2  0  0  0
 73161  1  0  0  0
 74 76  2  0  0  0
 74162  1  0  0  0
 75 76  1  0  0  0
 75163  1  0  0  0
 76 83  1  0  0  0
 77 95  1  0  0  0
 77 97  2  0  0  0
 77 81  1  0  0  0
 78 84  1  0  0  0
 78 94  1  0  0  0
 78 98  2  0  0  0
 79 81  1  0  0  0
 79 82  1  0  0  0
 79164  1  0  0  0
 79165  1  0  0  0
 80 82  1  0  0  0
 80 94  1  0  0  0
 80166  1  0  0  0
 80167  1  0  0  0
 81 94  1  0  0  0
 81168  1  0  0  0
 82 99  1  0  0  0
 82169  1  0  0  0
 83 99  1  0  0  0
 83170  1  0  0  0
 83171  1  0  0  0
 84 85  1  0  0  0
 84172  1  0  0  0
 84173  1  0  0  0
 85 86  1  0  0  0
 85174  1  0  0  0
 85175  1  0  0  0
 86 88  1  0  0  0
 86176  1  0  0  0
 86177  1  0  0  0
 87 89  1  0  0  0
 87 90  1  0  0  0
 87178  1  0  0  0
 87179  1  0  0  0
 88 92  1  0  0  0
 88180  1  0  0  0
 88181  1  0  0  0
 89 91  1  0  0  0
 89182  1  0  0  0
 89183  1  0  0  0
 90 93  1  0  0  0
 90184  1  0  0  0
 90185  1  0  0  0
 91 95  1  0  0  0
 91186  1  0  0  0
 91187  1  0  0  0
 92 96  1  0  0  0
 92188  1  0  0  0
 92189  1  0  0  0
 93190  1  0  0  0
 93191  1  0  0  0
 95192  1  0  0  0
 96193  1  0  0  0
M  ISO  4   1 100  68 101  93 101  96 100
M  END
> <chiral flag>
0

> <version>
0

> <s_m_source_file>
/data/baiqing/PycharmProjects/Reinvent-master-3.2/result/LINK_invent/BTK/process_docking_weight1_custom_sum_contain_oxygen_bond_distance_aromatic_linkinvent_7_9_3/rearranged_h_0004.sdf

> <i_m_source_file_index>
21

> <r_mmod_Potential_Energy-OPLS-2005>
-193.381286621094

> <r_mmod_Stretch_Energy-OPLS-2005>
38.4022827148438

> <r_mmod_Bend_Energy-OPLS-2005>
132.273071289062

> <r_mmod_Torsional_Energy-OPLS-2005>
224.650787353516

> <r_mmod_Improper_Torsional_Energy-OPLS-2005>
2.32179403305054

> <r_mmod_Van_der_Waal_Energy-OPLS-2005>
155.153244018555

> <r_mmod_Electrostatic_Energy-OPLS-2005>
-502.847991943359

> <r_mmod_Solvation_Energy-OPLS-2005>
-253.916641235352

> <b_mmod_Minimization_Converged-OPLS-2005>
0

> <r_mmod_RMS_Derivative-OPLS-2005>
2.89802813529968

$$$$
21
                    3D
 Structure written by MMmdl.
158166  0  0  1  0            999 V2000
  -30.6956  -14.4629   20.5909 C   0  0  0  0  0  0
  -30.4245  -12.3033   19.4258 C   0  0  0  0  0  0
  -29.4988  -12.5221   18.2108 C   0  0  0  0  0  0
  -28.0183  -12.3790   18.6178 C   0  0  0  0  0  0
  -27.6642  -13.2074   19.8820 C   0  0  2  0  0  0
  -28.7025  -12.9669   21.0016 C   0  0  0  0  0  0
  -25.2549  -13.8130   20.5590 C   0  0  0  0  0  0
  -24.1821  -13.0408   20.9141 C   0  0  0  0  0  0
  -24.6394  -11.6890   20.8733 C   0  0  0  0  0  0
  -23.9063  -10.4277   21.0404 C   0  0  0  0  0  0
  -24.3613   -9.4197   21.9184 C   0  0  0  0  0  0
  -23.6287   -8.2236   22.0755 C   0  0  0  0  0  0
  -22.4271   -8.0273   21.3542 C   0  0  0  0  0  0
  -21.9905   -9.0247   20.4644 C   0  0  0  0  0  0
  -22.7235  -10.2123   20.3051 C   0  0  0  0  0  0
  -21.6851   -6.0731   22.5280 C   0  0  0  0  0  0
  -21.4014   -6.5638   23.8210 C   0  0  0  0  0  0
  -21.3660   -5.6790   24.9175 C   0  0  0  0  0  0
  -21.6045   -4.3055   24.7225 C   0  0  0  0  0  0
  -21.8819   -3.8143   23.4349 C   0  0  0  0  0  0
  -21.9191   -4.6962   22.3401 C   0  0  0  0  0  0
  -22.7850  -13.5219   21.1829 C   0  0  0  0  0  0
  -22.1660   -4.2145   21.0980 F   0  0  0  0  0  0
  -21.5629   -3.4537   25.7739 F   0  0  0  0  0  0
  -30.0398  -13.2764   20.4604 N   0  0  0  0  0  0
  -26.3032  -12.9324   20.3385 N   0  0  0  0  0  0
  -25.9331  -11.6483   20.5790 N   0  0  0  0  0  0
  -22.0503  -12.8203   22.0399 N   0  0  0  0  0  0
  -25.4172  -15.1817   20.3846 N   0  0  0  0  0  0
  -31.8019  -14.6699   20.0839 O   0  0  0  0  0  0
  -21.6635   -6.8873   21.4240 O   0  0  0  0  0  0
  -22.3532  -14.5532   20.6704 O   0  0  0  0  0  0
  -24.6154  -31.8677   23.2096 C   0  0  0  0  0  0
  -25.9042  -32.4814   23.8405 C   0  0  1  0  0  0
  -27.2393  -27.4431   20.0939 C   0  0  0  0  0  0
  -25.5878  -33.8609   24.2334 N   0  0  0  0  0  0
  -23.4034  -30.4903   21.5465 C   0  0  2  0  0  0
  -24.8553  -28.9536   20.1146 C   0  0  0  0  0  0
  -22.7439  -29.4637   22.4964 C   0  0  0  0  0  0
  -18.0266  -28.1389   22.8479 C   0  0  0  0  0  0
  -24.1483  -36.7325   23.2631 C   0  0  0  0  0  0
  -25.9312  -30.8361   21.3611 C   0  0  0  0  0  0
  -26.0123  -29.4664   20.7172 C   0  0  0  0  0  0
  -27.2106  -28.7178   20.7036 C   0  0  0  0  0  0
  -26.0712  -26.9402   19.4897 C   0  0  0  0  0  0
  -24.8797  -27.6898   19.4968 C   0  0  0  0  0  0
  -23.6174  -29.8223   20.1602 C   0  0  0  0  0  0
  -25.4093  -36.3105   24.0324 C   0  0  1  0  0  0
  -20.5867  -28.3674   23.1296 C   0  0  2  0  0  0
  -20.6747  -26.9410   22.5402 C   0  0  0  0  0  0
  -19.5735  -26.6394   21.5191 C   0  0  0  0  0  0
  -18.1916  -26.7921   22.1614 C   0  0  0  0  0  0
  -19.1514  -28.8846   23.2893 C   0  0  0  0  0  0
  -18.9441  -30.1434   23.8926 C   0  0  0  0  0  0
  -17.6447  -30.6583   24.0553 C   0  0  0  0  0  0
  -25.9019  -34.9462   23.5130 C   0  0  0  0  0  0
  -16.5338  -29.9093   23.6315 C   0  0  0  0  0  0
  -16.7252  -28.6515   23.0342 C   0  0  0  0  0  0
  -26.4476  -31.6584   25.0725 C   0  0  0  0  0  0
  -25.3755  -31.3678   26.1472 C   0  0  0  0  0  0
  -27.0308  -30.3027   24.6079 C   0  0  0  0  0  0
  -27.6034  -32.4322   25.7496 C   0  0  0  0  0  0
  -27.5576  -37.1816   24.8453 C   0  0  0  0  0  0
  -21.4160  -29.3040   22.3720 N   0  0  0  0  0  0
  -26.4271  -37.3787   23.9422 N   0  0  0  0  0  0
  -24.6678  -31.0814   22.0966 N   0  0  0  0  0  0
  -23.4202  -28.8165   23.2995 O   0  0  0  0  0  0
  -28.3914  -26.6934   20.0524 O   0  0  0  0  0  0
  -26.5620  -34.8898   22.4710 O   0  0  0  0  0  0
  -23.5344  -32.1381   23.7510 O   0  0  0  0  0  0
  -31.1308  -17.5709   20.6216 C   0  0  0  0  0  0
  -31.0459  -18.9708   20.4829 C   0  0  0  0  0  0
  -28.7609  -18.9351   21.3002 C   0  0  0  0  0  0
  -30.0233  -16.8325   21.0979 C   0  0  0  0  0  0
  -29.8660  -19.6711   20.8034 C   0  0  0  0  0  0
  -28.8411  -17.5209   21.4619 C   0  0  0  0  0  0
  -26.6686  -17.3860   22.4885 C   0  0  0  0  0  0
  -28.0714  -24.3835   20.9844 C   0  0  0  0  0  0
  -29.1829  -23.3348   20.7238 C   0  0  0  0  0  0
  -28.5849  -25.8374   21.1837 C   0  0  0  0  0  0
  -28.7478  -21.8527   20.8545 C   0  0  0  0  0  0
  -30.0094  -15.4109   21.2566 N   0  0  0  0  0  0
  -27.8141  -16.7398   21.9529 O   0  0  0  0  0  0
  -29.9006  -21.0420   20.6106 O   0  0  0  0  0  0
  -31.4712  -12.3996   19.1305 H   0  0  0  0  0  0
  -30.3170  -11.2887   19.8101 H   0  0  0  0  0  0
  -29.7405  -11.8129   17.4185 H   0  0  0  0  0  0
  -29.6691  -13.5163   17.7931 H   0  0  0  0  0  0
  -27.8267  -11.3215   18.8033 H   0  0  0  0  0  0
  -27.3702  -12.6639   17.7882 H   0  0  0  0  0  0
  -27.7133  -14.2596   19.6016 H   0  0  0  0  0  0
  -28.6739  -11.9254   21.3236 H   0  0  0  0  0  0
  -28.4551  -13.5460   21.8924 H   0  0  0  0  0  0
  -25.2759   -9.5674   22.4755 H   0  0  0  0  0  0
  -23.9996   -7.4627   22.7473 H   0  0  0  0  0  0
  -21.0838   -8.8763   19.8948 H   0  0  0  0  0  0
  -22.3698  -10.9660   19.6155 H   0  0  0  0  0  0
  -21.2008   -7.6146   23.9714 H   0  0  0  0  0  0
  -21.1484   -6.0522   25.9077 H   0  0  0  0  0  0
  -22.0598   -2.7606   23.2848 H   0  0  0  0  0  0
  -22.4124  -11.9856   22.4763 H   0  0  0  0  0  0
  -21.1122  -13.1222   22.2618 H   0  0  0  0  0  0
  -24.6432  -15.8300   20.4752 H   0  0  0  0  0  0
  -26.2840  -15.6292   20.1131 H   0  0  0  0  0  0
  -26.7137  -32.5562   23.1207 H   0  0  0  0  0  0
  -25.0029  -33.9791   25.0475 H   0  0  0  0  0  0
  -22.6856  -31.3024   21.4076 H   0  0  0  0  0  0
  -23.3723  -35.9686   23.3279 H   0  0  0  0  0  0
  -24.3587  -36.8962   22.2052 H   0  0  0  0  0  0
  -23.7254  -37.6521   23.6670 H   0  0  0  0  0  0
  -26.0420  -31.5980   20.5865 H   0  0  0  0  0  0
  -26.8204  -30.8967   21.9771 H   0  0  0  0  0  0
  -28.1130  -29.1150   21.1509 H   0  0  0  0  0  0
  -26.0885  -25.9724   19.0086 H   0  0  0  0  0  0
  -23.9933  -27.2915   19.0219 H   0  0  0  0  0  0
  -23.7322  -30.5952   19.3967 H   0  0  0  0  0  0
  -22.7407  -29.2424   19.8656 H   0  0  0  0  0  0
  -25.1279  -36.1948   25.0813 H   0  0  0  0  0  0
  -20.9946  -28.3245   24.1413 H   0  0  0  0  0  0
  -20.5633  -26.2294   23.3601 H   0  0  0  0  0  0
  -21.6627  -26.7446   22.1208 H   0  0  0  0  0  0
  -19.6897  -25.6311   21.1220 H   0  0  0  0  0  0
  -19.6648  -27.3212   20.6728 H   0  0  0  0  0  0
  -17.4173  -26.6631   21.4031 H   0  0  0  0  0  0
  -18.0332  -26.0062   22.9021 H   0  0  0  0  0  0
  -19.7920  -30.7229   24.2318 H   0  0  0  0  0  0
  -17.5003  -31.6261   24.5182 H   0  0  0  0  0  0
  -15.5345  -30.3015   23.7601 H   0  0  0  0  0  0
  -15.8640  -28.0833   22.7046 H   0  0  0  0  0  0
  -24.5919  -30.7029   25.7821 H   0  0  0  0  0  0
  -24.8962  -32.2831   26.4954 H   0  0  0  0  0  0
  -25.8107  -30.8827   27.0225 H   0  0  0  0  0  0
  -26.2848  -29.6785   24.1139 H   0  0  0  0  0  0
  -27.4087  -29.7244   25.4533 H   0  0  0  0  0  0
  -27.8683  -30.4345   23.9220 H   0  0  0  0  0  0
  -27.2623  -33.3608   26.2092 H   0  0  0  0  0  0
  -28.3836  -32.6910   25.0327 H   0  0  0  0  0  0
  -28.0716  -31.8444   26.5412 H   0  0  0  0  0  0
  -28.2572  -38.0139   24.7551 H   0  0  0  0  0  0
  -28.1094  -36.2673   24.6217 H   0  0  0  0  0  0
  -27.2318  -37.1389   25.8861 H   0  0  0  0  0  0
  -20.9297  -29.8780   21.6967 H   0  0  0  0  0  0
  -26.0144  -38.2855   24.1438 H   0  0  0  0  0  0
  -32.0601  -17.0886   20.3580 H   0  0  0  0  0  0
  -31.9046  -19.5189   20.1189 H   0  0  0  0  0  0
  -27.8529  -19.4585   21.5544 H   0  0  0  0  0  0
  -26.1231  -17.9364   21.7215 H   0  0  0  0  0  0
  -26.9308  -18.0608   23.3034 H   0  0  0  0  0  0
  -25.9910  -16.6333   22.8929 H   0  0  0  0  0  0
  -27.5464  -24.0952   21.8971 H   0  0  0  0  0  0
  -27.3236  -24.3454   20.1958 H   0  0  0  0  0  0
  -29.9941  -23.4995   21.4326 H   0  0  0  0  0  0
  -29.6074  -23.5012   19.7343 H   0  0  0  0  0  0
  -29.6504  -25.8293   21.4184 H   0  0  0  0  0  0
  -28.1038  -26.2647   22.0653 H   0  0  0  0  0  0
  -27.9625  -21.6193   20.1357 H   0  0  0  0  0  0
  -28.3550  -21.6700   21.8555 H   0  0  0  0  0  0
  -29.1610  -15.0675   21.6831 H   0  0  0  0  0  0
  1 25  1  0  0  0
  1 30  2  0  0  0
  1 82  1  0  0  0
  2  3  1  0  0  0
  2 25  1  0  0  0
  2 85  1  0  0  0
  2 86  1  0  0  0
  3  4  1  0  0  0
  3 87  1  0  0  0
  3 88  1  0  0  0
  4  5  1  0  0  0
  4 89  1  0  0  0
  4 90  1  0  0  0
  5  6  1  0  0  0
  5 26  1  0  0  0
  5 91  1  0  0  0
  6 25  1  0  0  0
  6 92  1  0  0  0
  6 93  1  0  0  0
  7  8  2  0  0  0
  7 26  1  0  0  0
  7 29  1  0  0  0
  8  9  1  0  0  0
  8 22  1  0  0  0
  9 10  1  0  0  0
  9 27  2  0  0  0
 10 11  2  0  0  0
 10 15  1  0  0  0
 11 12  1  0  0  0
 11 94  1  0  0  0
 12 13  2  0  0  0
 12 95  1  0  0  0
 13 14  1  0  0  0
 13 31  1  0  0  0
 14 15  2  0  0  0
 14 96  1  0  0  0
 15 97  1  0  0  0
 16 17  2  0  0  0
 16 21  1  0  0  0
 16 31  1  0  0  0
 17 18  1  0  0  0
 17 98  1  0  0  0
 18 19  2  0  0  0
 18 99  1  0  0  0
 19 20  1  0  0  0
 19 24  1  0  0  0
 20 21  2  0  0  0
 20100  1  0  0  0
 21 23  1  0  0  0
 22 28  1  0  0  0
 22 32  2  0  0  0
 26 27  1  0  0  0
 28101  1  0  0  0
 28102  1  0  0  0
 29103  1  0  0  0
 29104  1  0  0  0
 33 34  1  0  0  0
 33 66  1  0  0  0
 33 70  2  0  0  0
 34 36  1  0  0  0
 34 59  1  0  0  0
 34105  1  0  0  0
 35 44  2  0  0  0
 35 45  1  0  0  0
 35 68  1  0  0  0
 36 56  1  0  0  0
 36106  1  0  0  0
 37 39  1  0  0  0
 37 47  1  0  0  0
 37 66  1  0  0  0
 37107  1  0  0  0
 38 43  2  0  0  0
 38 46  1  0  0  0
 38 47  1  0  0  0
 39 64  1  0  0  0
 39 67  2  0  0  0
 40 52  1  0  0  0
 40 53  2  0  0  0
 40 58  1  0  0  0
 41108  1  0  0  0
 41109  1  0  0  0
 41110  1  0  0  0
 41 48  1  0  0  0
 42 43  1  0  0  0
 42 66  1  0  0  0
 42111  1  0  0  0
 42112  1  0  0  0
 43 44  1  0  0  0
 44113  1  0  0  0
 45 46  2  0  0  0
 45114  1  0  0  0
 46115  1  0  0  0
 47116  1  0  0  0
 47117  1  0  0  0
 48 56  1  0  0  0
 48 65  1  0  0  0
 48118  1  0  0  0
 49 50  1  0  0  0
 49 53  1  0  0  0
 49 64  1  0  0  0
 49119  1  0  0  0
 50 51  1  0  0  0
 50120  1  0  0  0
 50121  1  0  0  0
 51 52  1  0  0  0
 51122  1  0  0  0
 51123  1  0  0  0
 52124  1  0  0  0
 52125  1  0  0  0
 53 54  1  0  0  0
 54 55  2  0  0  0
 54126  1  0  0  0
 55 57  1  0  0  0
 55127  1  0  0  0
 56 69  2  0  0  0
 57 58  2  0  0  0
 57128  1  0  0  0
 58129  1  0  0  0
 59 60  1  0  0  0
 59 61  1  0  0  0
 59 62  1  0  0  0
 60130  1  0  0  0
 60131  1  0  0  0
 60132  1  0  0  0
 61133  1  0  0  0
 61134  1  0  0  0
 61135  1  0  0  0
 62136  1  0  0  0
 62137  1  0  0  0
 62138  1  0  0  0
 63 65  1  0  0  0
 63139  1  0  0  0
 63140  1  0  0  0
 63141  1  0  0  0
 64142  1  0  0  0
 65143  1  0  0  0
 68 80  1  0  0  0
 71 72  2  0  0  0
 71 74  1  0  0  0
 71144  1  0  0  0
 72 75  1  0  0  0
 72145  1  0  0  0
 73 75  2  0  0  0
 73 76  1  0  0  0
 73146  1  0  0  0
 74 76  2  0  0  0
 74 82  1  0  0  0
 75 84  1  0  0  0
 76 83  1  0  0  0
 77 83  1  0  0  0
 77147  1  0  0  0
 77148  1  0  0  0
 77149  1  0  0  0
 78 79  1  0  0  0
 78 80  1  0  0  0
 78150  1  0  0  0
 78151  1  0  0  0
 79 81  1  0  0  0
 79152  1  0  0  0
 79153  1  0  0  0
 80154  1  0  0  0
 80155  1  0  0  0
 81 84  1  0  0  0
 81156  1  0  0  0
 81157  1  0  0  0
 82158  1  0  0  0
M  ISO  4   1 100  68 101  80 101  82 100
M  END
> <chiral flag>
0

> <version>
0

> <s_m_source_file>
/data/baiqing/PycharmProjects/Reinvent-master-3.2/result/LINK_invent/BTK/process_docking_weight1_custom_sum_contain_oxygen_bond_distance_aromatic_linkinvent_7_9_3/rearranged_h_0004.sdf

> <i_m_source_file_index>
22

> <r_mmod_Potential_Energy-OPLS-2005>
-69.2126922607422

> <r_mmod_Stretch_Energy-OPLS-2005>
38.5814323425293

> <r_mmod_Bend_Energy-OPLS-2005>
117.768760681152

> <r_mmod_Torsional_Energy-OPLS-2005>
243.185958862305

> <r_mmod_Improper_Torsional_Energy-OPLS-2005>
3.57977700233459

> <r_mmod_Van_der_Waal_Energy-OPLS-2005>
153.863098144531

> <r_mmod_Electrostatic_Energy-OPLS-2005>
-434.612243652344

> <r_mmod_Solvation_Energy-OPLS-2005>
-201.846267700195

> <b_mmod_Minimization_Converged-OPLS-2005>
0

> <r_mmod_RMS_Derivative-OPLS-2005>
3.09978914260864

$$$$
22
                    3D
 Structure written by MMmdl.
154162  0  0  1  0            999 V2000
  -30.5364  -14.9802   20.4191 C   0  0  0  0  0  0
  -30.4404  -12.6059   19.5202 C   0  0  0  0  0  0
  -29.5254  -12.5278   18.2749 C   0  0  0  0  0  0
  -28.0606  -12.3095   18.6958 C   0  0  0  0  0  0
  -27.6341  -13.2544   19.8506 C   0  0  2  0  0  0
  -28.6717  -13.3011   20.9937 C   0  0  0  0  0  0
  -25.2485  -13.8245   20.5729 C   0  0  0  0  0  0
  -24.1795  -13.0477   20.9216 C   0  0  0  0  0  0
  -24.6417  -11.6954   20.8787 C   0  0  0  0  0  0
  -23.9109  -10.4311   21.0443 C   0  0  0  0  0  0
  -24.3644   -9.4214   21.9220 C   0  0  0  0  0  0
  -23.6311   -8.2248   22.0766 C   0  0  0  0  0  0
  -22.4305   -8.0277   21.3537 C   0  0  0  0  0  0
  -21.9947   -9.0273   20.4662 C   0  0  0  0  0  0
  -22.7287  -10.2149   20.3087 C   0  0  0  0  0  0
  -21.6868   -6.0734   22.5273 C   0  0  0  0  0  0
  -21.4022   -6.5637   23.8203 C   0  0  0  0  0  0
  -21.3660   -5.6788   24.9162 C   0  0  0  0  0  0
  -21.6049   -4.3052   24.7221 C   0  0  0  0  0  0
  -21.8834   -3.8146   23.4343 C   0  0  0  0  0  0
  -21.9201   -4.6961   22.3397 C   0  0  0  0  0  0
  -22.7808  -13.5243   21.1835 C   0  0  0  0  0  0
  -22.1670   -4.2138   21.0978 F   0  0  0  0  0  0
  -21.5630   -3.4545   25.7741 F   0  0  0  0  0  0
  -29.9486  -13.7131   20.3982 N   0  0  0  0  0  0
  -26.2927  -12.9489   20.3336 N   0  0  0  0  0  0
  -25.9360  -11.6617   20.5832 N   0  0  0  0  0  0
  -22.0432  -12.8235   22.0363 N   0  0  0  0  0  0
  -25.4185  -15.1977   20.4154 N   0  0  0  0  0  0
  -31.7309  -15.0280   20.0973 O   0  0  0  0  0  0
  -21.6656   -6.8881   21.4233 O   0  0  0  0  0  0
  -22.3497  -14.5538   20.6646 O   0  0  0  0  0  0
  -24.6458  -31.8391   23.1877 C   0  0  0  0  0  0
  -25.9221  -32.4655   23.8257 C   0  0  1  0  0  0
  -27.1887  -27.0737   20.1676 C   0  0  0  0  0  0
  -25.5987  -33.8475   24.2174 N   0  0  0  0  0  0
  -23.4476  -30.4586   21.5390 C   0  0  2  0  0  0
  -24.8918  -28.8750   20.1140 C   0  0  0  0  0  0
  -22.7570  -29.4475   22.4893 C   0  0  0  0  0  0
  -18.0305  -28.1321   22.8635 C   0  0  0  0  0  0
  -24.1513  -36.7260   23.2639 C   0  0  0  0  0  0
  -26.0081  -30.6939   21.3904 C   0  0  0  0  0  0
  -26.0742  -29.2985   20.7347 C   0  0  0  0  0  0
  -27.2241  -28.4150   20.7423 C   0  0  0  0  0  0
  -25.9813  -26.7637   19.5063 C   0  0  0  0  0  0
  -24.8590  -27.6221   19.4870 C   0  0  0  0  0  0
  -23.6769  -29.7936   20.1567 C   0  0  0  0  0  0
  -25.4141  -36.3011   24.0301 C   0  0  1  0  0  0
  -20.5901  -28.3655   23.1298 C   0  0  2  0  0  0
  -20.6748  -26.9337   22.5552 C   0  0  0  0  0  0
  -19.5679  -26.6211   21.5428 C   0  0  0  0  0  0
  -18.1917  -26.7795   22.1943 C   0  0  0  0  0  0
  -19.1567  -28.8848   23.2896 C   0  0  0  0  0  0
  -18.9504  -30.1449   23.8923 C   0  0  0  0  0  0
  -17.6500  -30.6544   24.0655 C   0  0  0  0  0  0
  -25.9076  -34.9377   23.5041 C   0  0  0  0  0  0
  -16.5393  -29.8992   23.6519 C   0  0  0  0  0  0
  -16.7296  -28.6396   23.0584 C   0  0  0  0  0  0
  -26.4524  -31.6525   25.0710 C   0  0  0  0  0  0
  -25.3686  -31.3748   26.1402 C   0  0  0  0  0  0
  -27.0401  -30.2927   24.6276 C   0  0  0  0  0  0
  -27.6037  -32.4293   25.7502 C   0  0  0  0  0  0
  -27.5587  -37.1801   24.8466 C   0  0  0  0  0  0
  -21.4267  -29.2902   22.3613 N   0  0  0  0  0  0
  -26.4307  -37.3725   23.9389 N   0  0  0  0  0  0
  -24.7226  -31.0186   22.0955 N   0  0  0  0  0  0
  -23.4213  -28.8090   23.3110 O   0  0  0  0  0  0
  -28.2099  -26.0438   20.2542 O   0  0  0  0  0  0
  -26.5655  -34.8871   22.4606 O   0  0  0  0  0  0
  -23.5575  -32.1314   23.7075 O   0  0  0  0  0  0
  -28.7069  -17.3075   17.8456 C   0  0  0  0  0  0
  -29.9014  -17.2515   18.5903 C   0  0  0  0  0  0
  -27.7089  -18.7164   19.5507 C   0  0  0  0  0  0
  -27.5735  -17.9495   18.3803 C   0  0  0  0  0  0
  -29.8387  -17.5758   19.9631 C   0  0  0  0  0  0
  -28.9646  -18.7967   20.1906 C   0  0  0  0  0  0
  -26.2580  -17.9456   17.6332 C   0  0  0  0  0  0
  -28.8544  -23.1236   20.4766 C   0  0  0  0  0  0
  -27.9047  -24.4989   20.0893 C   0  0  0  0  0  0
  -28.4794  -21.4741   20.2128 C   0  0  0  0  0  0
  -29.7852  -16.1842   20.6386 N   0  0  0  0  0  0
  -29.3254  -20.1859   20.5466 O   0  0  0  0  0  0
  -31.4726  -12.7545   19.2012 H   0  0  0  0  0  0
  -30.4358  -11.6622   20.0669 H   0  0  0  0  0  0
  -29.8501  -11.7226   17.6150 H   0  0  0  0  0  0
  -29.6119  -13.4507   17.6998 H   0  0  0  0  0  0
  -27.9592  -11.2712   19.0142 H   0  0  0  0  0  0
  -27.3942  -12.4252   17.8406 H   0  0  0  0  0  0
  -27.5971  -14.2533   19.4150 H   0  0  0  0  0  0
  -28.7618  -12.3381   21.4957 H   0  0  0  0  0  0
  -28.3680  -14.0202   21.7572 H   0  0  0  0  0  0
  -25.2785   -9.5680   22.4814 H   0  0  0  0  0  0
  -24.0015   -7.4634   22.7488 H   0  0  0  0  0  0
  -21.0873   -8.8814   19.8964 H   0  0  0  0  0  0
  -22.3761  -10.9692   19.6195 H   0  0  0  0  0  0
  -21.2012   -7.6146   23.9703 H   0  0  0  0  0  0
  -21.1470   -6.0516   25.9060 H   0  0  0  0  0  0
  -22.0616   -2.7603   23.2854 H   0  0  0  0  0  0
  -22.4021  -11.9912   22.4804 H   0  0  0  0  0  0
  -21.1035  -13.1251   22.2508 H   0  0  0  0  0  0
  -24.6508  -15.8509   20.5200 H   0  0  0  0  0  0
  -26.2783  -15.6435   20.1230 H   0  0  0  0  0  0
  -26.7277  -32.5217   23.0969 H   0  0  0  0  0  0
  -25.0149  -33.9597   25.0341 H   0  0  0  0  0  0
  -22.7508  -31.2859   21.3916 H   0  0  0  0  0  0
  -23.3747  -35.9621   23.3282 H   0  0  0  0  0  0
  -24.3618  -36.8916   22.2065 H   0  0  0  0  0  0
  -23.7298  -37.6459   23.6695 H   0  0  0  0  0  0
  -26.1570  -31.4385   20.6082 H   0  0  0  0  0  0
  -26.8834  -30.7533   22.0275 H   0  0  0  0  0  0
  -28.1186  -28.7277   21.2605 H   0  0  0  0  0  0
  -25.8615  -25.8018   19.0304 H   0  0  0  0  0  0
  -23.9505  -27.2903   19.0023 H   0  0  0  0  0  0
  -23.8352  -30.5780   19.4153 H   0  0  0  0  0  0
  -22.7826  -29.2619   19.8281 H   0  0  0  0  0  0
  -25.1337  -36.1833   25.0799 H   0  0  0  0  0  0
  -20.9959  -28.3223   24.1428 H   0  0  0  0  0  0
  -20.5640  -26.2362   23.3888 H   0  0  0  0  0  0
  -21.6606  -26.7295   22.1394 H   0  0  0  0  0  0
  -19.6858  -25.6097   21.1503 H   0  0  0  0  0  0
  -19.6453  -27.3019   20.6946 H   0  0  0  0  0  0
  -17.4101  -26.6449   21.4454 H   0  0  0  0  0  0
  -18.0338  -26.0070   22.9487 H   0  0  0  0  0  0
  -19.7990  -30.7260   24.2280 H   0  0  0  0  0  0
  -17.5042  -31.6174   24.5354 H   0  0  0  0  0  0
  -15.5392  -30.2803   23.8027 H   0  0  0  0  0  0
  -15.8685  -28.0601   22.7534 H   0  0  0  0  0  0
  -24.5876  -30.7072   25.7753 H   0  0  0  0  0  0
  -24.8850  -32.2947   26.4711 H   0  0  0  0  0  0
  -25.7954  -30.9024   27.0253 H   0  0  0  0  0  0
  -26.3038  -29.6645   24.1240 H   0  0  0  0  0  0
  -27.4013  -29.7217   25.4831 H   0  0  0  0  0  0
  -27.8930  -30.4205   23.9597 H   0  0  0  0  0  0
  -27.2625  -33.3623   26.1992 H   0  0  0  0  0  0
  -28.3892  -32.6783   25.0359 H   0  0  0  0  0  0
  -28.0626  -31.8452   26.5497 H   0  0  0  0  0  0
  -28.2584  -38.0109   24.7485 H   0  0  0  0  0  0
  -28.1092  -36.2629   24.6317 H   0  0  0  0  0  0
  -27.2298  -37.1479   25.8868 H   0  0  0  0  0  0
  -20.9461  -29.8324   21.6549 H   0  0  0  0  0  0
  -26.0150  -38.2788   24.1355 H   0  0  0  0  0  0
  -28.6481  -16.7908   16.8985 H   0  0  0  0  0  0
  -30.6500  -16.5668   18.2159 H   0  0  0  0  0  0
  -26.9151  -19.4059   19.7907 H   0  0  0  0  0  0
  -26.1766  -18.8383   17.0143 H   0  0  0  0  0  0
  -25.4212  -17.9418   18.3330 H   0  0  0  0  0  0
  -26.1684  -17.0690   16.9907 H   0  0  0  0  0  0
  -29.0677  -23.1964   21.5442 H   0  0  0  0  0  0
  -29.8151  -23.2847   19.9892 H   0  0  0  0  0  0
  -26.9593  -24.3425   20.6101 H   0  0  0  0  0  0
  -27.6575  -24.3776   19.0335 H   0  0  0  0  0  0
  -28.2638  -21.3922   19.1466 H   0  0  0  0  0  0
  -27.5137  -21.3230   20.6969 H   0  0  0  0  0  0
  -28.9138  -16.0190   21.1207 H   0  0  0  0  0  0
  1 25  1  0  0  0
  1 30  2  0  0  0
  1 81  1  0  0  0
  2  3  1  0  0  0
  2 25  1  0  0  0
  2 83  1  0  0  0
  2 84  1  0  0  0
  3  4  1  0  0  0
  3 85  1  0  0  0
  3 86  1  0  0  0
  4  5  1  0  0  0
  4 87  1  0  0  0
  4 88  1  0  0  0
  5  6  1  0  0  0
  5 26  1  0  0  0
  5 89  1  0  0  0
  6 25  1  0  0  0
  6 90  1  0  0  0
  6 91  1  0  0  0
  7  8  2  0  0  0
  7 26  1  0  0  0
  7 29  1  0  0  0
  8  9  1  0  0  0
  8 22  1  0  0  0
  9 10  1  0  0  0
  9 27  2  0  0  0
 10 11  2  0  0  0
 10 15  1  0  0  0
 11 12  1  0  0  0
 11 92  1  0  0  0
 12 13  2  0  0  0
 12 93  1  0  0  0
 13 14  1  0  0  0
 13 31  1  0  0  0
 14 15  2  0  0  0
 14 94  1  0  0  0
 15 95  1  0  0  0
 16 17  2  0  0  0
 16 21  1  0  0  0
 16 31  1  0  0  0
 17 18  1  0  0  0
 17 96  1  0  0  0
 18 19  2  0  0  0
 18 97  1  0  0  0
 19 20  1  0  0  0
 19 24  1  0  0  0
 20 21  2  0  0  0
 20 98  1  0  0  0
 21 23  1  0  0  0
 22 28  1  0  0  0
 22 32  2  0  0  0
 26 27  1  0  0  0
 28 99  1  0  0  0
 28100  1  0  0  0
 29101  1  0  0  0
 29102  1  0  0  0
 33 34  1  0  0  0
 33 66  1  0  0  0
 33 70  2  0  0  0
 34 36  1  0  0  0
 34 59  1  0  0  0
 34103  1  0  0  0
 35 44  2  0  0  0
 35 45  1  0  0  0
 35 68  1  0  0  0
 36 56  1  0  0  0
 36104  1  0  0  0
 37 39  1  0  0  0
 37 47  1  0  0  0
 37 66  1  0  0  0
 37105  1  0  0  0
 38 43  2  0  0  0
 38 46  1  0  0  0
 38 47  1  0  0  0
 39 64  1  0  0  0
 39 67  2  0  0  0
 40 52  1  0  0  0
 40 53  2  0  0  0
 40 58  1  0  0  0
 41106  1  0  0  0
 41107  1  0  0  0
 41108  1  0  0  0
 41 48  1  0  0  0
 42 43  1  0  0  0
 42 66  1  0  0  0
 42109  1  0  0  0
 42110  1  0  0  0
 43 44  1  0  0  0
 44111  1  0  0  0
 45 46  2  0  0  0
 45112  1  0  0  0
 46113  1  0  0  0
 47114  1  0  0  0
 47115  1  0  0  0
 48 56  1  0  0  0
 48 65  1  0  0  0
 48116  1  0  0  0
 49 50  1  0  0  0
 49 53  1  0  0  0
 49 64  1  0  0  0
 49117  1  0  0  0
 50 51  1  0  0  0
 50118  1  0  0  0
 50119  1  0  0  0
 51 52  1  0  0  0
 51120  1  0  0  0
 51121  1  0  0  0
 52122  1  0  0  0
 52123  1  0  0  0
 53 54  1  0  0  0
 54 55  2  0  0  0
 54124  1  0  0  0
 55 57  1  0  0  0
 55125  1  0  0  0
 56 69  2  0  0  0
 57 58  2  0  0  0
 57126  1  0  0  0
 58127  1  0  0  0
 59 60  1  0  0  0
 59 61  1  0  0  0
 59 62  1  0  0  0
 60128  1  0  0  0
 60129  1  0  0  0
 60130  1  0  0  0
 61131  1  0  0  0
 61132  1  0  0  0
 61133  1  0  0  0
 62134  1  0  0  0
 62135  1  0  0  0
 62136  1  0  0  0
 63 65  1  0  0  0
 63137  1  0  0  0
 63138  1  0  0  0
 63139  1  0  0  0
 64140  1  0  0  0
 65141  1  0  0  0
 68 79  1  0  0  0
 71 72  2  0  0  0
 71 74  1  0  0  0
 71142  1  0  0  0
 72 75  1  0  0  0
 72143  1  0  0  0
 73 74  2  0  0  0
 73 76  1  0  0  0
 73144  1  0  0  0
 74 77  1  0  0  0
 75 76  2  0  0  0
 75 81  1  0  0  0
 76 82  1  0  0  0
 77145  1  0  0  0
 77146  1  0  0  0
 77147  1  0  0  0
 78 79  1  0  0  0
 78 80  1  0  0  0
 78148  1  0  0  0
 78149  1  0  0  0
 79150  1  0  0  0
 79151  1  0  0  0
 80 82  1  0  0  0
 80152  1  0  0  0
 80153  1  0  0  0
 81154  1  0  0  0
M  ISO  4   1 100  68 101  79 101  81 100
M  END
> <chiral flag>
0

> <version>
0

> <s_m_source_file>
/data/baiqing/PycharmProjects/Reinvent-master-3.2/result/LINK_invent/BTK/process_docking_weight1_custom_sum_contain_oxygen_bond_distance_aromatic_linkinvent_7_9_3/rearranged_h_0004.sdf

> <i_m_source_file_index>
23

> <r_mmod_Potential_Energy-OPLS-2005>
871.0390625

> <r_mmod_Stretch_Energy-OPLS-2005>
328.951080322266

> <r_mmod_Bend_Energy-OPLS-2005>
310.23974609375

> <r_mmod_Torsional_Energy-OPLS-2005>
435.393310546875

> <r_mmod_Improper_Torsional_Energy-OPLS-2005>
31.3664894104004

> <r_mmod_Van_der_Waal_Energy-OPLS-2005>
138.216888427734

> <r_mmod_Electrostatic_Energy-OPLS-2005>
-395.496948242188

> <r_mmod_Solvation_Energy-OPLS-2005>
-212.285232543945

> <b_mmod_Minimization_Converged-OPLS-2005>
0

> <r_mmod_RMS_Derivative-OPLS-2005>
4.46889781951904

$$$$
23
                    3D
 Structure written by MMmdl.
180188  0  0  1  0            999 V2000
  -30.6766  -14.5148   20.5567 C   0  0  0  0  0  0
  -30.4256  -12.3165   19.4249 C   0  0  0  0  0  0
  -29.4869  -12.4112   18.2045 C   0  0  0  0  0  0
  -28.0049  -12.3027   18.6170 C   0  0  0  0  0  0
  -27.6390  -13.1718   19.8467 C   0  0  2  0  0  0
  -28.6882  -13.0206   20.9689 C   0  0  0  0  0  0
  -25.2562  -13.8074   20.5715 C   0  0  0  0  0  0
  -24.1793  -13.0385   20.9173 C   0  0  0  0  0  0
  -24.6300  -11.6847   20.8761 C   0  0  0  0  0  0
  -23.8982  -10.4251   21.0454 C   0  0  0  0  0  0
  -24.3551   -9.4167   21.9211 C   0  0  0  0  0  0
  -23.6248   -8.2192   22.0767 C   0  0  0  0  0  0
  -22.4238   -8.0231   21.3539 C   0  0  0  0  0  0
  -21.9854   -9.0209   20.4651 C   0  0  0  0  0  0
  -22.7172  -10.2094   20.3077 C   0  0  0  0  0  0
  -21.6842   -6.0703   22.5287 C   0  0  0  0  0  0
  -21.4029   -6.5627   23.8225 C   0  0  0  0  0  0
  -21.3655   -5.6786   24.9186 C   0  0  0  0  0  0
  -21.6044   -4.3059   24.7236 C   0  0  0  0  0  0
  -21.8825   -3.8135   23.4368 C   0  0  0  0  0  0
  -21.9194   -4.6933   22.3417 C   0  0  0  0  0  0
  -22.7820  -13.5230   21.1855 C   0  0  0  0  0  0
  -22.1661   -4.2117   21.0991 F   0  0  0  0  0  0
  -21.5608   -3.4551   25.7757 F   0  0  0  0  0  0
  -30.0070  -13.3351   20.3971 N   0  0  0  0  0  0
  -26.2915  -12.9144   20.3301 N   0  0  0  0  0  0
  -25.9210  -11.6356   20.5795 N   0  0  0  0  0  0
  -22.0449  -12.8269   22.0440 N   0  0  0  0  0  0
  -25.4341  -15.1817   20.4280 N   0  0  0  0  0  0
  -31.8495  -14.6620   20.2006 O   0  0  0  0  0  0
  -21.6604   -6.8836   21.4250 O   0  0  0  0  0  0
  -22.3537  -14.5528   20.6672 O   0  0  0  0  0  0
  -24.6129  -31.8666   23.2108 C   0  0  0  0  0  0
  -25.9048  -32.4807   23.8358 C   0  0  1  0  0  0
  -27.2417  -27.4488   20.0769 C   0  0  0  0  0  0
  -25.5946  -33.8608   24.2305 N   0  0  0  0  0  0
  -23.3973  -30.4927   21.5492 C   0  0  2  0  0  0
  -24.8431  -28.9600   20.1161 C   0  0  0  0  0  0
  -22.7342  -29.4670   22.4945 C   0  0  0  0  0  0
  -18.0275  -28.1397   22.8485 C   0  0  0  0  0  0
  -24.1505  -36.7313   23.2632 C   0  0  0  0  0  0
  -25.9226  -30.8376   21.3588 C   0  0  0  0  0  0
  -26.0023  -29.4717   20.7101 C   0  0  0  0  0  0
  -27.1992  -28.7214   20.6950 C   0  0  0  0  0  0
  -26.0534  -26.9435   19.4984 C   0  0  0  0  0  0
  -24.8616  -27.6911   19.5163 C   0  0  0  0  0  0
  -23.6070  -29.8281   20.1627 C   0  0  0  0  0  0
  -25.4132  -36.3105   24.0324 C   0  0  1  0  0  0
  -20.5861  -28.3655   23.1330 C   0  0  2  0  0  0
  -20.6795  -26.9387   22.5436 C   0  0  0  0  0  0
  -19.5765  -26.6344   21.5254 C   0  0  0  0  0  0
  -18.1924  -26.7949   22.1610 C   0  0  0  0  0  0
  -19.1522  -28.8830   23.2934 C   0  0  0  0  0  0
  -18.9452  -30.1431   23.8955 C   0  0  0  0  0  0
  -17.6453  -30.6564   24.0655 C   0  0  0  0  0  0
  -25.9044  -34.9471   23.5100 C   0  0  0  0  0  0
  -16.5344  -29.9098   23.6360 C   0  0  0  0  0  0
  -16.7269  -28.6555   23.0306 C   0  0  0  0  0  0
  -26.4512  -31.6552   25.0642 C   0  0  0  0  0  0
  -25.3810  -31.3621   26.1396 C   0  0  0  0  0  0
  -27.0332  -30.3007   24.5977 C   0  0  0  0  0  0
  -27.6086  -32.4241   25.7414 C   0  0  0  0  0  0
  -27.5582  -37.1818   24.8450 C   0  0  0  0  0  0
  -21.4076  -29.3041   22.3696 N   0  0  0  0  0  0
  -26.4301  -37.3807   23.9391 N   0  0  0  0  0  0
  -24.6618  -31.0779   22.1000 N   0  0  0  0  0  0
  -23.4103  -28.8198   23.2984 O   0  0  0  0  0  0
  -28.4423  -26.7617   20.0644 O   0  0  0  0  0  0
  -26.5570  -34.8941   22.4629 O   0  0  0  0  0  0
  -23.5341  -32.1409   23.7557 O   0  0  0  0  0  0
  -30.0815  -19.5430   20.6704 C   0  0  0  0  0  0
  -28.5011  -19.1120   22.4575 C   0  0  0  0  0  0
  -29.2708  -20.6040   20.2065 C   0  0  0  0  0  0
  -27.6864  -20.1606   21.9874 C   0  0  0  0  0  0
  -29.6981  -18.7797   21.7941 C   0  0  0  0  0  0
  -28.0435  -20.9282   20.8456 C   0  0  0  0  0  0
  -29.1672  -16.2174   19.9368 C   0  0  0  0  0  0
  -25.8724  -22.0431   20.7246 C   0  0  0  0  0  0
  -29.7120  -16.3676   18.5128 C   0  0  0  0  0  0
  -30.5173  -15.3027   23.3593 C   0  0  0  0  0  0
  -24.1713  -20.1763   20.7083 C   0  0  0  0  0  0
  -23.6666  -22.3415   19.5575 C   0  0  0  0  0  0
  -25.3331  -20.7288   18.5592 C   0  0  0  0  0  0
  -30.5618  -17.6247   22.3050 C   0  0  0  0  0  0
  -28.0482  -24.3383   20.2829 C   0  0  0  0  0  0
  -27.6545  -23.0778   19.4850 C   0  0  0  0  0  0
  -28.5388  -25.4999   19.3918 C   0  0  0  0  0  0
  -29.9079  -16.2027   22.2561 C   0  0  1  0  0  0
  -24.7852  -21.3221   19.8788 C   0  0  0  0  0  0
  -27.1729  -21.9750   20.3489 N   0  0  0  0  0  0
  -29.9058  -15.5906   20.8919 N   0  0  0  0  0  0
  -28.0670  -16.7238   20.1817 O   0  0  0  0  0  0
  -25.5305  -22.6834   21.7240 O   0  0  0  0  0  0
  -31.4626  -12.4435   19.1128 H   0  0  0  0  0  0
  -30.3664  -11.3246   19.8769 H   0  0  0  0  0  0
  -29.7246  -11.6100   17.5029 H   0  0  0  0  0  0
  -29.6603  -13.3320   17.6566 H   0  0  0  0  0  0
  -27.8123  -11.2532   18.8416 H   0  0  0  0  0  0
  -27.3610  -12.5561   17.7728 H   0  0  0  0  0  0
  -27.6317  -14.1900   19.4806 H   0  0  0  0  0  0
  -28.6876  -12.0044   21.3651 H   0  0  0  0  0  0
  -28.4333  -13.6690   21.8085 H   0  0  0  0  0  0
  -25.2673   -9.5650   22.4818 H   0  0  0  0  0  0
  -23.9955   -7.4570   22.7475 H   0  0  0  0  0  0
  -21.0788   -8.8709   19.8943 H   0  0  0  0  0  0
  -22.3618  -10.9631   19.6202 H   0  0  0  0  0  0
  -21.2046   -7.6139   23.9726 H   0  0  0  0  0  0
  -21.1470   -6.0515   25.9086 H   0  0  0  0  0  0
  -22.0613   -2.7599   23.2872 H   0  0  0  0  0  0
  -22.3975  -11.9887   22.4812 H   0  0  0  0  0  0
  -21.1067  -13.1314   22.2620 H   0  0  0  0  0  0
  -24.6867  -15.8405   20.6154 H   0  0  0  0  0  0
  -26.3251  -15.6470   20.2718 H   0  0  0  0  0  0
  -26.7078  -32.5561   23.1083 H   0  0  0  0  0  0
  -25.0163  -33.9747   25.0503 H   0  0  0  0  0  0
  -22.6913  -31.3129   21.4136 H   0  0  0  0  0  0
  -23.3766  -35.9646   23.3305 H   0  0  0  0  0  0
  -24.3585  -36.8918   22.2040 H   0  0  0  0  0  0
  -23.7283  -37.6535   23.6630 H   0  0  0  0  0  0
  -26.0282  -31.6015   20.5877 H   0  0  0  0  0  0
  -26.8114  -30.8929   21.9743 H   0  0  0  0  0  0
  -28.0947  -29.1214   21.1521 H   0  0  0  0  0  0
  -26.0203  -25.9726   19.0291 H   0  0  0  0  0  0
  -23.9638  -27.2830   19.0706 H   0  0  0  0  0  0
  -23.7238  -30.6053   19.4053 H   0  0  0  0  0  0
  -22.7291  -29.2511   19.8638 H   0  0  0  0  0  0
  -25.1344  -36.1936   25.0825 H   0  0  0  0  0  0
  -21.0019  -28.3245   24.1421 H   0  0  0  0  0  0
  -20.5814  -26.2245   23.3621 H   0  0  0  0  0  0
  -21.6660  -26.7508   22.1179 H   0  0  0  0  0  0
  -19.6903  -25.6249   21.1294 H   0  0  0  0  0  0
  -19.6729  -27.3160   20.6784 H   0  0  0  0  0  0
  -17.4239  -26.6797   21.3941 H   0  0  0  0  0  0
  -18.0191  -26.0070   22.8954 H   0  0  0  0  0  0
  -19.7920  -30.7249   24.2326 H   0  0  0  0  0  0
  -17.5009  -31.6220   24.5308 H   0  0  0  0  0  0
  -15.5351  -30.3021   23.7696 H   0  0  0  0  0  0
  -15.8661  -28.0959   22.6902 H   0  0  0  0  0  0
  -24.6031  -30.6901   25.7734 H   0  0  0  0  0  0
  -24.8954  -32.2764   26.4806 H   0  0  0  0  0  0
  -25.8226  -30.8822   27.0139 H   0  0  0  0  0  0
  -26.2837  -29.6708   24.1167 H   0  0  0  0  0  0
  -27.4269  -29.7293   25.4388 H   0  0  0  0  0  0
  -27.8593  -30.4314   23.8986 H   0  0  0  0  0  0
  -27.2715  -33.3544   26.2000 H   0  0  0  0  0  0
  -28.3931  -32.6770   25.0261 H   0  0  0  0  0  0
  -28.0701  -31.8318   26.5325 H   0  0  0  0  0  0
  -28.2629  -38.0089   24.7527 H   0  0  0  0  0  0
  -28.1072  -36.2641   24.6293 H   0  0  0  0  0  0
  -27.2270  -37.1489   25.8839 H   0  0  0  0  0  0
  -20.9158  -29.8828   21.7021 H   0  0  0  0  0  0
  -26.0178  -38.2874   24.1419 H   0  0  0  0  0  0
  -31.0018  -19.3143   20.1487 H   0  0  0  0  0  0
  -28.1937  -18.5533   23.3306 H   0  0  0  0  0  0
  -29.6126  -21.1344   19.3323 H   0  0  0  0  0  0
  -26.7757  -20.3599   22.5335 H   0  0  0  0  0  0
  -30.7127  -16.8015   18.5404 H   0  0  0  0  0  0
  -29.0766  -17.0365   17.9318 H   0  0  0  0  0  0
  -29.7596  -15.4214   17.9842 H   0  0  0  0  0  0
  -30.4089  -15.7745   24.3364 H   0  0  0  0  0  0
  -31.5822  -15.1231   23.2039 H   0  0  0  0  0  0
  -30.0177  -14.3351   23.4229 H   0  0  0  0  0  0
  -23.8028  -20.5192   21.6756 H   0  0  0  0  0  0
  -24.8994  -19.3879   20.8979 H   0  0  0  0  0  0
  -23.3279  -19.7197   20.1892 H   0  0  0  0  0  0
  -23.1722  -22.6947   20.4655 H   0  0  0  0  0  0
  -22.8933  -21.9051   18.9235 H   0  0  0  0  0  0
  -24.0596  -23.2203   19.0439 H   0  0  0  0  0  0
  -26.0566  -19.9344   18.7490 H   0  0  0  0  0  0
  -25.8165  -21.4799   17.9359 H   0  0  0  0  0  0
  -24.5302  -20.2964   17.9608 H   0  0  0  0  0  0
  -30.7860  -17.8769   23.3431 H   0  0  0  0  0  0
  -31.5281  -17.6242   21.7983 H   0  0  0  0  0  0
  -28.8181  -24.0864   21.0124 H   0  0  0  0  0  0
  -27.1851  -24.6732   20.8558 H   0  0  0  0  0  0
  -28.4690  -22.7780   18.8314 H   0  0  0  0  0  0
  -26.8589  -23.3670   18.7950 H   0  0  0  0  0  0
  -28.0430  -25.5142   18.4200 H   0  0  0  0  0  0
  -29.5890  -25.3339   19.1521 H   0  0  0  0  0  0
  -28.8645  -16.3094   22.5601 H   0  0  0  0  0  0
  1 25  1  0  0  0
  1 30  2  0  0  0
  1 91  1  0  0  0
  2  3  1  0  0  0
  2 25  1  0  0  0
  2 94  1  0  0  0
  2 95  1  0  0  0
  3  4  1  0  0  0
  3 96  1  0  0  0
  3 97  1  0  0  0
  4  5  1  0  0  0
  4 98  1  0  0  0
  4 99  1  0  0  0
  5  6  1  0  0  0
  5 26  1  0  0  0
  5100  1  0  0  0
  6 25  1  0  0  0
  6101  1  0  0  0
  6102  1  0  0  0
  7  8  2  0  0  0
  7 26  1  0  0  0
  7 29  1  0  0  0
  8  9  1  0  0  0
  8 22  1  0  0  0
  9 10  1  0  0  0
  9 27  2  0  0  0
 10 11  2  0  0  0
 10 15  1  0  0  0
 11 12  1  0  0  0
 11103  1  0  0  0
 12 13  2  0  0  0
 12104  1  0  0  0
 13 14  1  0  0  0
 13 31  1  0  0  0
 14 15  2  0  0  0
 14105  1  0  0  0
 15106  1  0  0  0
 16 17  2  0  0  0
 16 21  1  0  0  0
 16 31  1  0  0  0
 17 18  1  0  0  0
 17107  1  0  0  0
 18 19  2  0  0  0
 18108  1  0  0  0
 19 20  1  0  0  0
 19 24  1  0  0  0
 20 21  2  0  0  0
 20109  1  0  0  0
 21 23  1  0  0  0
 22 28  1  0  0  0
 22 32  2  0  0  0
 26 27  1  0  0  0
 28110  1  0  0  0
 28111  1  0  0  0
 29112  1  0  0  0
 29113  1  0  0  0
 33 34  1  0  0  0
 33 66  1  0  0  0
 33 70  2  0  0  0
 34 36  1  0  0  0
 34 59  1  0  0  0
 34114  1  0  0  0
 35 44  2  0  0  0
 35 45  1  0  0  0
 35 68  1  0  0  0
 36 56  1  0  0  0
 36115  1  0  0  0
 37 39  1  0  0  0
 37 47  1  0  0  0
 37 66  1  0  0  0
 37116  1  0  0  0
 38 43  2  0  0  0
 38 46  1  0  0  0
 38 47  1  0  0  0
 39 64  1  0  0  0
 39 67  2  0  0  0
 40 52  1  0  0  0
 40 53  2  0  0  0
 40 58  1  0  0  0
 41117  1  0  0  0
 41118  1  0  0  0
 41119  1  0  0  0
 41 48  1  0  0  0
 42 43  1  0  0  0
 42 66  1  0  0  0
 42120  1  0  0  0
 42121  1  0  0  0
 43 44  1  0  0  0
 44122  1  0  0  0
 45 46  2  0  0  0
 45123  1  0  0  0
 46124  1  0  0  0
 47125  1  0  0  0
 47126  1  0  0  0
 48 56  1  0  0  0
 48 65  1  0  0  0
 48127  1  0  0  0
 49 50  1  0  0  0
 49 53  1  0  0  0
 49 64  1  0  0  0
 49128  1  0  0  0
 50 51  1  0  0  0
 50129  1  0  0  0
 50130  1  0  0  0
 51 52  1  0  0  0
 51131  1  0  0  0
 51132  1  0  0  0
 52133  1  0  0  0
 52134  1  0  0  0
 53 54  1  0  0  0
 54 55  2  0  0  0
 54135  1  0  0  0
 55 57  1  0  0  0
 55136  1  0  0  0
 56 69  2  0  0  0
 57 58  2  0  0  0
 57137  1  0  0  0
 58138  1  0  0  0
 59 60  1  0  0  0
 59 61  1  0  0  0
 59 62  1  0  0  0
 60139  1  0  0  0
 60140  1  0  0  0
 60141  1  0  0  0
 61142  1  0  0  0
 61143  1  0  0  0
 61144  1  0  0  0
 62145  1  0  0  0
 62146  1  0  0  0
 62147  1  0  0  0
 63 65  1  0  0  0
 63148  1  0  0  0
 63149  1  0  0  0
 63150  1  0  0  0
 64151  1  0  0  0
 65152  1  0  0  0
 68 87  1  0  0  0
 71 73  2  0  0  0
 71 75  1  0  0  0
 71153  1  0  0  0
 72 74  1  0  0  0
 72 75  2  0  0  0
 72154  1  0  0  0
 73 76  1  0  0  0
 73155  1  0  0  0
 74 76  2  0  0  0
 74156  1  0  0  0
 75 84  1  0  0  0
 76 90  1  0  0  0
 77 79  1  0  0  0
 77 91  1  0  0  0
 77 92  2  0  0  0
 78 89  1  0  0  0
 78 90  1  0  0  0
 78 93  2  0  0  0
 79157  1  0  0  0
 79158  1  0  0  0
 79159  1  0  0  0
 80160  1  0  0  0
 80161  1  0  0  0
 80162  1  0  0  0
 80 88  1  0  0  0
 81163  1  0  0  0
 81164  1  0  0  0
 81165  1  0  0  0
 81 89  1  0  0  0
 82 89  1  0  0  0
 82166  1  0  0  0
 82167  1  0  0  0
 82168  1  0  0  0
 83 89  1  0  0  0
 83169  1  0  0  0
 83170  1  0  0  0
 83171  1  0  0  0
 84 88  1  0  0  0
 84172  1  0  0  0
 84173  1  0  0  0
 85 86  1  0  0  0
 85 87  1  0  0  0
 85174  1  0  0  0
 85175  1  0  0  0
 86 90  1  0  0  0
 86176  1  0  0  0
 86177  1  0  0  0
 87178  1  0  0  0
 87179  1  0  0  0
 88 91  1  0  0  0
 88180  1  0  0  0
M  ISO  4   1 100  68 101  87 101  91 100
M  END
> <chiral flag>
0

> <version>
0

> <s_m_source_file>
/data/baiqing/PycharmProjects/Reinvent-master-3.2/result/LINK_invent/BTK/process_docking_weight1_custom_sum_contain_oxygen_bond_distance_aromatic_linkinvent_7_9_3/rearranged_h_0004.sdf

> <i_m_source_file_index>
24

> <r_mmod_Potential_Energy-OPLS-2005>
304.349700927734

> <r_mmod_Stretch_Energy-OPLS-2005>
50.2188110351562

> <r_mmod_Bend_Energy-OPLS-2005>
117.047859191895

> <r_mmod_Torsional_Energy-OPLS-2005>
425.310150146484

> <r_mmod_Improper_Torsional_Energy-OPLS-2005>
5.66255474090576

> <r_mmod_Van_der_Waal_Energy-OPLS-2005>
168.396835327148

> <r_mmod_Electrostatic_Energy-OPLS-2005>
-295.899719238281

> <r_mmod_Solvation_Energy-OPLS-2005>
-186.862335205078

> <b_mmod_Minimization_Converged-OPLS-2005>
0

> <r_mmod_RMS_Derivative-OPLS-2005>
3.44356489181519

$$$$
24
                    3D
 Structure written by MMmdl.
154162  0  0  1  0            999 V2000
  -30.6787  -14.5851   21.0622 C   0  0  0  0  0  0
  -31.3190  -13.7831   19.0867 C   0  0  0  0  0  0
  -28.7013  -14.0603   17.2326 C   0  0  0  0  0  0
  -27.3311  -13.3640   18.2489 C   0  0  0  0  0  0
  -27.5086  -13.1348   20.0225 C   0  0  2  0  0  0
  -29.0030  -12.7526   21.0353 C   0  0  0  0  0  0
  -25.1792  -13.7669   20.6390 C   0  0  0  0  0  0
  -24.1120  -12.9987   20.9572 C   0  0  0  0  0  0
  -24.5790  -11.6483   20.9139 C   0  0  0  0  0  0
  -23.8621  -10.3976   21.0581 C   0  0  0  0  0  0
  -24.3322   -9.3951   21.9300 C   0  0  0  0  0  0
  -23.6092   -8.1970   22.0765 C   0  0  0  0  0  0
  -22.4097   -8.0056   21.3514 C   0  0  0  0  0  0
  -21.9672   -8.9999   20.4616 C   0  0  0  0  0  0
  -22.6909  -10.1900   20.3099 C   0  0  0  0  0  0
  -21.6749   -6.0613   22.5284 C   0  0  0  0  0  0
  -21.3935   -6.5564   23.8203 C   0  0  0  0  0  0
  -21.3639   -5.6749   24.9188 C   0  0  0  0  0  0
  -21.6052   -4.3012   24.7256 C   0  0  0  0  0  0
  -21.8836   -3.8077   23.4386 C   0  0  0  0  0  0
  -21.9164   -4.6865   22.3426 C   0  0  0  0  0  0
  -22.7227  -13.4938   21.1954 C   0  0  0  0  0  0
  -22.1651   -4.2059   21.1002 F   0  0  0  0  0  0
  -21.5653   -3.4516   25.7779 F   0  0  0  0  0  0
  -30.6136  -13.3418   20.6619 N   0  0  0  0  0  0
  -26.2223  -12.8559   20.4998 N   0  0  0  0  0  0
  -25.8720  -11.5803   20.6549 N   0  0  0  0  0  0
  -21.9799  -12.8055   22.0508 N   0  0  0  0  0  0
  -25.3280  -15.1462   20.4428 N   0  0  0  0  0  0
  -31.7386  -15.2170   21.0487 O   0  0  0  0  0  0
  -21.6479   -6.8684   21.4215 O   0  0  0  0  0  0
  -22.3140  -14.5313   20.6741 O   0  0  0  0  0  0
  -24.6792  -31.8083   23.1573 C   0  0  0  0  0  0
  -25.9406  -32.4506   23.8088 C   0  0  1  0  0  0
  -27.2209  -26.8294   20.0445 C   0  0  0  0  0  0
  -25.6012  -33.8328   24.1986 N   0  0  0  0  0  0
  -23.4949  -30.4190   21.5166 C   0  0  2  0  0  0
  -24.9353  -28.7839   20.1060 C   0  0  0  0  0  0
  -22.7726  -29.4373   22.4770 C   0  0  0  0  0  0
  -18.0329  -28.1410   22.8463 C   0  0  0  0  0  0
  -24.1499  -36.7167   23.2644 C   0  0  0  0  0  0
  -26.0759  -30.5678   21.4016 C   0  0  0  0  0  0
  -26.1373  -29.1525   20.7220 C   0  0  0  0  0  0
  -27.2716  -28.1969   20.6670 C   0  0  0  0  0  0
  -25.9665  -26.6332   19.4302 C   0  0  0  0  0  0
  -24.8770  -27.5435   19.4548 C   0  0  0  0  0  0
  -23.7322  -29.7302   20.1469 C   0  0  0  0  0  0
  -25.4144  -36.2915   24.0282 C   0  0  1  0  0  0
  -20.5961  -28.3765   23.1170 C   0  0  2  0  0  0
  -20.6805  -26.9437   22.5401 C   0  0  0  0  0  0
  -19.5777  -26.6372   21.5214 C   0  0  0  0  0  0
  -18.1960  -26.7938   22.1624 C   0  0  0  0  0  0
  -19.1594  -28.8910   23.2796 C   0  0  0  0  0  0
  -18.9502  -30.1496   23.8837 C   0  0  0  0  0  0
  -17.6493  -30.6599   24.0549 C   0  0  0  0  0  0
  -25.9127  -34.9307   23.4964 C   0  0  0  0  0  0
  -16.5382  -29.9084   23.6345 C   0  0  0  0  0  0
  -16.7309  -28.6502   23.0370 C   0  0  0  0  0  0
  -26.4589  -31.6510   25.0686 C   0  0  0  0  0  0
  -25.3673  -31.3813   26.1317 C   0  0  0  0  0  0
  -27.0500  -30.2854   24.6534 C   0  0  0  0  0  0
  -27.6049  -32.4356   25.7504 C   0  0  0  0  0  0
  -27.5580  -37.1723   24.8451 C   0  0  0  0  0  0
  -21.4383  -29.3036   22.3516 N   0  0  0  0  0  0
  -26.4266  -37.3682   23.9429 N   0  0  0  0  0  0
  -24.7745  -30.9605   22.0782 N   0  0  0  0  0  0
  -23.4217  -28.7947   23.3056 O   0  0  0  0  0  0
  -28.2202  -25.6813   19.9515 O   0  0  0  0  0  0
  -26.5757  -34.8878   22.4575 O   0  0  0  0  0  0
  -23.5833  -32.1129   23.6581 O   0  0  0  0  0  0
  -30.4946  -12.5322   17.2576 C   0  0  0  0  0  0
  -31.0549  -13.9461   16.6738 C   0  0  0  0  0  0
  -29.5557  -12.6002   18.6145 C   0  0  0  0  0  0
  -30.7564  -15.4424   17.2331 C   0  0  0  0  0  0
  -29.2965  -14.6445   19.2815 C   0  0  0  0  0  0
  -29.8643  -15.9195   18.4653 C   0  0  0  0  0  0
  -28.9734  -22.4521   19.2958 C   0  0  0  0  0  0
  -28.7336  -20.5878   19.2788 C   0  0  0  0  0  0
  -27.9924  -24.0027   19.7035 C   0  0  0  0  0  0
  -29.5996  -19.0286   18.6778 C   0  0  0  0  0  0
  -29.5459  -15.1290   20.6195 N   0  0  0  0  0  0
  -29.4306  -17.3648   18.9478 O   0  0  0  0  0  0
  -32.0924  -14.5563   18.9876 H   0  0  0  0  0  0
  -32.0069  -12.9338   18.9589 H   0  0  0  0  0  0
  -28.6487  -13.5682   16.2509 H   0  0  0  0  0  0
  -28.3289  -15.0468   16.9296 H   0  0  0  0  0  0
  -27.0630  -12.3944   17.8246 H   0  0  0  0  0  0
  -26.4489  -13.9750   18.0596 H   0  0  0  0  0  0
  -27.4312  -14.1345   20.4081 H   0  0  0  0  0  0
  -29.0816  -11.6696   21.1387 H   0  0  0  0  0  0
  -28.7752  -13.0493   22.0618 H   0  0  0  0  0  0
  -25.2431   -9.5486   22.4921 H   0  0  0  0  0  0
  -23.9812   -7.4344   22.7456 H   0  0  0  0  0  0
  -21.0622   -8.8478   19.8904 H   0  0  0  0  0  0
  -22.3374  -10.9480   19.6250 H   0  0  0  0  0  0
  -21.1889   -7.6069   23.9675 H   0  0  0  0  0  0
  -21.1464   -6.0490   25.9087 H   0  0  0  0  0  0
  -22.0647   -2.7539   23.2913 H   0  0  0  0  0  0
  -22.3328  -11.9714   22.4960 H   0  0  0  0  0  0
  -21.0435  -13.1173   22.2657 H   0  0  0  0  0  0
  -24.5427  -15.7852   20.5046 H   0  0  0  0  0  0
  -26.1813  -15.5977   20.1369 H   0  0  0  0  0  0
  -26.7484  -32.4974   23.0794 H   0  0  0  0  0  0
  -25.0081  -33.9381   25.0087 H   0  0  0  0  0  0
  -22.8155  -31.2555   21.3403 H   0  0  0  0  0  0
  -23.3800  -35.9453   23.3205 H   0  0  0  0  0  0
  -24.3586  -36.8930   22.2081 H   0  0  0  0  0  0
  -23.7207  -37.6298   23.6780 H   0  0  0  0  0  0
  -26.2796  -31.3118   20.6303 H   0  0  0  0  0  0
  -26.9267  -30.6123   22.0698 H   0  0  0  0  0  0
  -28.1916  -28.4846   21.1564 H   0  0  0  0  0  0
  -25.7957  -25.7016   18.9120 H   0  0  0  0  0  0
  -23.9602  -27.2531   18.9608 H   0  0  0  0  0  0
  -23.8974  -30.4975   19.3898 H   0  0  0  0  0  0
  -22.8345  -29.1976   19.8275 H   0  0  0  0  0  0
  -25.1339  -36.1674   25.0768 H   0  0  0  0  0  0
  -21.0034  -28.3372   24.1300 H   0  0  0  0  0  0
  -20.5690  -26.2378   23.3648 H   0  0  0  0  0  0
  -21.6666  -26.7405   22.1203 H   0  0  0  0  0  0
  -19.6939  -25.6268   21.1284 H   0  0  0  0  0  0
  -19.6719  -27.3150   20.6720 H   0  0  0  0  0  0
  -17.4228  -26.6676   21.4031 H   0  0  0  0  0  0
  -18.0359  -26.0095   22.9038 H   0  0  0  0  0  0
  -19.7976  -30.7327   24.2183 H   0  0  0  0  0  0
  -17.5044  -31.6277   24.5158 H   0  0  0  0  0  0
  -15.5381  -30.2968   23.7702 H   0  0  0  0  0  0
  -15.8709  -28.0796   22.7127 H   0  0  0  0  0  0
  -24.5859  -30.7164   25.7618 H   0  0  0  0  0  0
  -24.8866  -32.3035   26.4591 H   0  0  0  0  0  0
  -25.7866  -30.9067   27.0198 H   0  0  0  0  0  0
  -26.3192  -29.6494   24.1532 H   0  0  0  0  0  0
  -27.3955  -29.7272   25.5245 H   0  0  0  0  0  0
  -27.9166  -30.3995   24.0020 H   0  0  0  0  0  0
  -27.2591  -33.3717   26.1902 H   0  0  0  0  0  0
  -28.3952  -32.6826   25.0401 H   0  0  0  0  0  0
  -28.0615  -31.8607   26.5572 H   0  0  0  0  0  0
  -28.2495  -38.0118   24.7602 H   0  0  0  0  0  0
  -28.1176  -36.2646   24.6136 H   0  0  0  0  0  0
  -27.2312  -37.1182   25.8851 H   0  0  0  0  0  0
  -20.9664  -29.8718   21.6619 H   0  0  0  0  0  0
  -26.0088  -38.2714   24.1507 H   0  0  0  0  0  0
  -30.7625  -11.5881   16.8045 H   0  0  0  0  0  0
  -31.6875  -13.8835   15.7994 H   0  0  0  0  0  0
  -29.2969  -11.6405   19.0430 H   0  0  0  0  0  0
  -31.1993  -16.2417   16.6571 H   0  0  0  0  0  0
  -29.3381  -22.6598   18.2898 H   0  0  0  0  0  0
  -29.8639  -22.5666   19.9140 H   0  0  0  0  0  0
  -27.7354  -20.4767   18.8548 H   0  0  0  0  0  0
  -28.5790  -20.3700   20.3357 H   0  0  0  0  0  0
  -27.4799  -23.7264   20.6254 H   0  0  0  0  0  0
  -27.1990  -23.9789   18.9580 H   0  0  0  0  0  0
  -30.6460  -19.1934   18.9346 H   0  0  0  0  0  0
  -29.5873  -19.1072   17.5902 H   0  0  0  0  0  0
  -28.7776  -15.0232   21.2627 H   0  0  0  0  0  0
  1 25  1  0  0  0
  1 30  2  0  0  0
  1 81  1  0  0  0
  2  3  1  0  0  0
  2 25  1  0  0  0
  2 83  1  0  0  0
  2 84  1  0  0  0
  3  4  1  0  0  0
  3 85  1  0  0  0
  3 86  1  0  0  0
  4  5  1  0  0  0
  4 87  1  0  0  0
  4 88  1  0  0  0
  5  6  1  0  0  0
  5 26  1  0  0  0
  5 89  1  0  0  0
  6 25  1  0  0  0
  6 90  1  0  0  0
  6 91  1  0  0  0
  7  8  2  0  0  0
  7 26  1  0  0  0
  7 29  1  0  0  0
  8  9  1  0  0  0
  8 22  1  0  0  0
  9 10  1  0  0  0
  9 27  2  0  0  0
 10 11  2  0  0  0
 10 15  1  0  0  0
 11 12  1  0  0  0
 11 92  1  0  0  0
 12 13  2  0  0  0
 12 93  1  0  0  0
 13 14  1  0  0  0
 13 31  1  0  0  0
 14 15  2  0  0  0
 14 94  1  0  0  0
 15 95  1  0  0  0
 16 17  2  0  0  0
 16 21  1  0  0  0
 16 31  1  0  0  0
 17 18  1  0  0  0
 17 96  1  0  0  0
 18 19  2  0  0  0
 18 97  1  0  0  0
 19 20  1  0  0  0
 19 24  1  0  0  0
 20 21  2  0  0  0
 20 98  1  0  0  0
 21 23  1  0  0  0
 22 28  1  0  0  0
 22 32  2  0  0  0
 26 27  1  0  0  0
 28 99  1  0  0  0
 28100  1  0  0  0
 29101  1  0  0  0
 29102  1  0  0  0
 33 34  1  0  0  0
 33 66  1  0  0  0
 33 70  2  0  0  0
 34 36  1  0  0  0
 34 59  1  0  0  0
 34103  1  0  0  0
 35 44  2  0  0  0
 35 45  1  0  0  0
 35 68  1  0  0  0
 36 56  1  0  0  0
 36104  1  0  0  0
 37 39  1  0  0  0
 37 47  1  0  0  0
 37 66  1  0  0  0
 37105  1  0  0  0
 38 43  2  0  0  0
 38 46  1  0  0  0
 38 47  1  0  0  0
 39 64  1  0  0  0
 39 67  2  0  0  0
 40 52  1  0  0  0
 40 53  2  0  0  0
 40 58  1  0  0  0
 41106  1  0  0  0
 41107  1  0  0  0
 41108  1  0  0  0
 41 48  1  0  0  0
 42 43  1  0  0  0
 42 66  1  0  0  0
 42109  1  0  0  0
 42110  1  0  0  0
 43 44  1  0  0  0
 44111  1  0  0  0
 45 46  2  0  0  0
 45112  1  0  0  0
 46113  1  0  0  0
 47114  1  0  0  0
 47115  1  0  0  0
 48 56  1  0  0  0
 48 65  1  0  0  0
 48116  1  0  0  0
 49 50  1  0  0  0
 49 53  1  0  0  0
 49 64  1  0  0  0
 49117  1  0  0  0
 50 51  1  0  0  0
 50118  1  0  0  0
 50119  1  0  0  0
 51 52  1  0  0  0
 51120  1  0  0  0
 51121  1  0  0  0
 52122  1  0  0  0
 52123  1  0  0  0
 53 54  1  0  0  0
 54 55  2  0  0  0
 54124  1  0  0  0
 55 57  1  0  0  0
 55125  1  0  0  0
 56 69  2  0  0  0
 57 58  2  0  0  0
 57126  1  0  0  0
 58127  1  0  0  0
 59 60  1  0  0  0
 59 61  1  0  0  0
 59 62  1  0  0  0
 60128  1  0  0  0
 60129  1  0  0  0
 60130  1  0  0  0
 61131  1  0  0  0
 61132  1  0  0  0
 61133  1  0  0  0
 62134  1  0  0  0
 62135  1  0  0  0
 62136  1  0  0  0
 63 65  1  0  0  0
 63137  1  0  0  0
 63138  1  0  0  0
 63139  1  0  0  0
 64140  1  0  0  0
 65141  1  0  0  0
 68 79  1  0  0  0
 71 72  2  0  0  0
 71 73  1  0  0  0
 71142  1  0  0  0
 72 74  1  0  0  0
 72143  1  0  0  0
 73 75  2  0  0  0
 73144  1  0  0  0
 74 76  2  0  0  0
 74145  1  0  0  0
 75 76  1  0  0  0
 75 81  1  0  0  0
 76 82  1  0  0  0
 77 78  1  0  0  0
 77 79  1  0  0  0
 77146  1  0  0  0
 77147  1  0  0  0
 78 80  1  0  0  0
 78148  1  0  0  0
 78149  1  0  0  0
 79150  1  0  0  0
 79151  1  0  0  0
 80 82  1  0  0  0
 80152  1  0  0  0
 80153  1  0  0  0
 81154  1  0  0  0
M  ISO  4   1 100  68 101  79 101  81 100
M  END
> <chiral flag>
0

> <version>
0

> <s_m_source_file>
/data/baiqing/PycharmProjects/Reinvent-master-3.2/result/LINK_invent/BTK/process_docking_weight1_custom_sum_contain_oxygen_bond_distance_aromatic_linkinvent_7_9_3/rearranged_h_0004.sdf

> <i_m_source_file_index>
25

> <r_mmod_Potential_Energy-OPLS-2005>
11109.802734375

> <r_mmod_Stretch_Energy-OPLS-2005>
6307.37109375

> <r_mmod_Bend_Energy-OPLS-2005>
882.476684570312

> <r_mmod_Torsional_Energy-OPLS-2005>
399.335205078125

> <r_mmod_Improper_Torsional_Energy-OPLS-2005>
58.6720123291016

> <r_mmod_Van_der_Waal_Energy-OPLS-2005>
2752.38330078125

> <r_mmod_Electrostatic_Energy-OPLS-2005>
-404.357482910156

> <r_mmod_Solvation_Energy-OPLS-2005>
-223.568420410156

> <b_mmod_Minimization_Converged-OPLS-2005>
0

> <r_mmod_RMS_Derivative-OPLS-2005>
1.31204795837402

$$$$
25
                    3D
 Structure written by MMmdl.
155163  0  0  1  0            999 V2000
  -30.4812  -15.0517   20.3827 C   0  0  0  0  0  0
  -30.4633  -12.6570   19.4680 C   0  0  0  0  0  0
  -29.5292  -12.5161   18.2470 C   0  0  0  0  0  0
  -28.0798  -12.2697   18.6993 C   0  0  0  0  0  0
  -27.6358  -13.2395   19.8240 C   0  0  2  0  0  0
  -28.6827  -13.3296   20.9510 C   0  0  0  0  0  0
  -25.2550  -13.8172   20.5661 C   0  0  0  0  0  0
  -24.1895  -13.0419   20.9182 C   0  0  0  0  0  0
  -24.6532  -11.6896   20.8811 C   0  0  0  0  0  0
  -23.9211  -10.4284   21.0463 C   0  0  0  0  0  0
  -24.3713   -9.4166   21.9243 C   0  0  0  0  0  0
  -23.6319   -8.2238   22.0812 C   0  0  0  0  0  0
  -22.4305   -8.0323   21.3561 C   0  0  0  0  0  0
  -21.9970   -9.0342   20.4691 C   0  0  0  0  0  0
  -22.7380  -10.2165   20.3102 C   0  0  0  0  0  0
  -21.6858   -6.0767   22.5302 C   0  0  0  0  0  0
  -21.4024   -6.5666   23.8242 C   0  0  0  0  0  0
  -21.3634   -5.6809   24.9183 C   0  0  0  0  0  0
  -21.6030   -4.3080   24.7241 C   0  0  0  0  0  0
  -21.8818   -3.8179   23.4369 C   0  0  0  0  0  0
  -21.9198   -4.6988   22.3424 C   0  0  0  0  0  0
  -22.7908  -13.5192   21.1775 C   0  0  0  0  0  0
  -22.1668   -4.2186   21.0995 F   0  0  0  0  0  0
  -21.5598   -3.4563   25.7741 F   0  0  0  0  0  0
  -29.9281  -13.7678   20.3174 N   0  0  0  0  0  0
  -26.2989  -12.9412   20.3197 N   0  0  0  0  0  0
  -25.9460  -11.6548   20.5796 N   0  0  0  0  0  0
  -22.0546  -12.8255   22.0339 N   0  0  0  0  0  0
  -25.4133  -15.1918   20.4027 N   0  0  0  0  0  0
  -31.7007  -15.1209   20.1915 O   0  0  0  0  0  0
  -21.6639   -6.8924   21.4265 O   0  0  0  0  0  0
  -22.3626  -14.5522   20.6606 O   0  0  0  0  0  0
  -24.6411  -31.8423   23.1839 C   0  0  0  0  0  0
  -25.9218  -32.4634   23.8256 C   0  0  1  0  0  0
  -27.1795  -27.0721   20.1733 C   0  0  0  0  0  0
  -25.5979  -33.8451   24.2128 N   0  0  0  0  0  0
  -23.4447  -30.4655   21.5244 C   0  0  2  0  0  0
  -24.8996  -28.8916   20.0961 C   0  0  0  0  0  0
  -22.7577  -29.4492   22.4743 C   0  0  0  0  0  0
  -18.0337  -28.1320   22.8477 C   0  0  0  0  0  0
  -24.1506  -36.7225   23.2642 C   0  0  0  0  0  0
  -26.0070  -30.6982   21.4000 C   0  0  0  0  0  0
  -26.0731  -29.3040   20.7383 C   0  0  0  0  0  0
  -27.2142  -28.4064   20.7671 C   0  0  0  0  0  0
  -25.9937  -26.7930   19.4617 C   0  0  0  0  0  0
  -24.8755  -27.6520   19.4406 C   0  0  0  0  0  0
  -23.6796  -29.8039   20.1390 C   0  0  0  0  0  0
  -25.4124  -36.2950   24.0287 C   0  0  1  0  0  0
  -20.5947  -28.3647   23.1184 C   0  0  2  0  0  0
  -20.6793  -26.9349   22.5335 C   0  0  0  0  0  0
  -19.5760  -26.6326   21.5157 C   0  0  0  0  0  0
  -18.1956  -26.7850   22.1609 C   0  0  0  0  0  0
  -19.1595  -28.8805   23.2844 C   0  0  0  0  0  0
  -18.9526  -30.1420   23.8864 C   0  0  0  0  0  0
  -17.6511  -30.6550   24.0541 C   0  0  0  0  0  0
  -25.9095  -34.9360   23.4997 C   0  0  0  0  0  0
  -16.5413  -29.9026   23.6340 C   0  0  0  0  0  0
  -16.7320  -28.6429   23.0360 C   0  0  0  0  0  0
  -26.4537  -31.6545   25.0748 C   0  0  0  0  0  0
  -25.3675  -31.3770   26.1409 C   0  0  0  0  0  0
  -27.0446  -30.2938   24.6397 C   0  0  0  0  0  0
  -27.6080  -32.4353   25.7470 C   0  0  0  0  0  0
  -27.5562  -37.1725   24.8474 C   0  0  0  0  0  0
  -21.4251  -29.3015   22.3573 N   0  0  0  0  0  0
  -26.4261  -37.3685   23.9426 N   0  0  0  0  0  0
  -24.7155  -31.0269   22.0889 N   0  0  0  0  0  0
  -23.4258  -28.8043   23.2861 O   0  0  0  0  0  0
  -28.1877  -26.0341   20.2971 O   0  0  0  0  0  0
  -26.5708  -34.8875   22.4591 O   0  0  0  0  0  0
  -23.5528  -32.1337   23.7058 O   0  0  0  0  0  0
  -30.6713  -18.0358   21.7715 C   0  0  0  0  0  0
  -30.7670  -19.3244   22.3382 C   0  0  0  0  0  0
  -29.0907  -18.9661   20.2011 C   0  0  0  0  0  0
  -29.8031  -17.7387   20.7046 C   0  0  0  0  0  0
  -30.0776  -20.4720   21.8449 C   0  0  0  0  0  0
  -29.2212  -20.3814   20.7045 C   0  0  0  0  0  0
  -27.4895  -22.8925   21.9238 C   0  0  0  0  0  0
  -30.4568  -21.7456   23.8540 C   0  0  0  0  0  0
  -27.9941  -24.5013   19.9264 C   0  0  0  0  0  0
  -28.4610  -23.0688   20.7403 C   0  0  2  0  0  0
  -29.6445  -16.2298   20.3464 N   0  0  0  0  0  0
  -30.2717  -21.6964   22.4424 O   0  0  0  0  0  0
  -28.5764  -21.6069   20.1456 O   0  0  0  0  0  0
  -31.4798  -12.8639   19.1208 H   0  0  0  0  0  0
  -30.5199  -11.7222   20.0294 H   0  0  0  0  0  0
  -29.8623  -11.7044   17.5982 H   0  0  0  0  0  0
  -29.5810  -13.4255   17.6464 H   0  0  0  0  0  0
  -28.0324  -11.2456   19.0723 H   0  0  0  0  0  0
  -27.3967  -12.3102   17.8531 H   0  0  0  0  0  0
  -27.5833  -14.2192   19.3500 H   0  0  0  0  0  0
  -28.8165  -12.3799   21.4711 H   0  0  0  0  0  0
  -28.3790  -14.0640   21.6996 H   0  0  0  0  0  0
  -25.2871   -9.5585   22.4814 H   0  0  0  0  0  0
  -23.9992   -7.4634   22.7574 H   0  0  0  0  0  0
  -21.0875   -8.8945   19.9039 H   0  0  0  0  0  0
  -22.3926  -10.9726   19.6217 H   0  0  0  0  0  0
  -21.2040   -7.6189   23.9754 H   0  0  0  0  0  0
  -21.1423   -6.0540   25.9076 H   0  0  0  0  0  0
  -22.0617   -2.7651   23.2878 H   0  0  0  0  0  0
  -22.4126  -11.9883   22.4733 H   0  0  0  0  0  0
  -21.1196  -13.1365   22.2561 H   0  0  0  0  0  0
  -24.6244  -15.8202   20.5081 H   0  0  0  0  0  0
  -26.2378  -15.6558   20.0509 H   0  0  0  0  0  0
  -26.7307  -32.5263   23.0995 H   0  0  0  0  0  0
  -25.0096  -33.9636   25.0234 H   0  0  0  0  0  0
  -22.7441  -31.2888   21.3665 H   0  0  0  0  0  0
  -23.3772  -35.9564   23.3247 H   0  0  0  0  0  0
  -24.3563  -36.8929   22.2071 H   0  0  0  0  0  0
  -23.7279  -37.6393   23.6751 H   0  0  0  0  0  0
  -26.1801  -31.4545   20.6341 H   0  0  0  0  0  0
  -26.8670  -30.7387   22.0535 H   0  0  0  0  0  0
  -28.0983  -28.7042   21.3152 H   0  0  0  0  0  0
  -25.8819  -25.8646   18.9270 H   0  0  0  0  0  0
  -23.9842  -27.3400   18.9156 H   0  0  0  0  0  0
  -23.8254  -30.5876   19.3927 H   0  0  0  0  0  0
  -22.7933  -29.2536   19.8188 H   0  0  0  0  0  0
  -25.1269  -36.1707   25.0761 H   0  0  0  0  0  0
  -21.0107  -28.3223   24.1281 H   0  0  0  0  0  0
  -20.5579  -26.2280   23.3546 H   0  0  0  0  0  0
  -21.6651  -26.7242   22.1183 H   0  0  0  0  0  0
  -19.6886  -25.6224   21.1213 H   0  0  0  0  0  0
  -19.6688  -27.3135   20.6677 H   0  0  0  0  0  0
  -17.4189  -26.6652   21.4054 H   0  0  0  0  0  0
  -18.0389  -25.9951   22.8957 H   0  0  0  0  0  0
  -19.8017  -30.7266   24.2189 H   0  0  0  0  0  0
  -17.5074  -31.6237   24.5135 H   0  0  0  0  0  0
  -15.5411  -30.2918   23.7639 H   0  0  0  0  0  0
  -15.8728  -28.0752   22.7027 H   0  0  0  0  0  0
  -24.5881  -30.7090   25.7709 H   0  0  0  0  0  0
  -24.8853  -32.2983   26.4708 H   0  0  0  0  0  0
  -25.7888  -30.9014   27.0270 H   0  0  0  0  0  0
  -26.3115  -29.6608   24.1415 H   0  0  0  0  0  0
  -27.4066  -29.7264   25.4977 H   0  0  0  0  0  0
  -27.8976  -30.4163   23.9725 H   0  0  0  0  0  0
  -27.2708  -33.3739   26.1849 H   0  0  0  0  0  0
  -28.3924  -32.6764   25.0286 H   0  0  0  0  0  0
  -28.0705  -31.8623   26.5513 H   0  0  0  0  0  0
  -28.2455  -38.0123   24.7503 H   0  0  0  0  0  0
  -28.1143  -36.2617   24.6237 H   0  0  0  0  0  0
  -27.2306  -37.1271   25.8888 H   0  0  0  0  0  0
  -20.9432  -29.8875   21.6894 H   0  0  0  0  0  0
  -26.0090  -38.2708   24.1517 H   0  0  0  0  0  0
  -31.2687  -17.2515   22.2111 H   0  0  0  0  0  0
  -31.4269  -19.4081   23.1923 H   0  0  0  0  0  0
  -28.4025  -18.8128   19.3838 H   0  0  0  0  0  0
  -27.4731  -23.7693   22.5727 H   0  0  0  0  0  0
  -27.7443  -22.0396   22.5513 H   0  0  0  0  0  0
  -26.4757  -22.7286   21.5539 H   0  0  0  0  0  0
  -30.3166  -22.7697   24.2105 H   0  0  0  0  0  0
  -31.4554  -21.4157   24.1490 H   0  0  0  0  0  0
  -29.7153  -21.1350   24.3627 H   0  0  0  0  0  0
  -26.9487  -24.3194   19.6930 H   0  0  0  0  0  0
  -28.5017  -24.4328   18.9659 H   0  0  0  0  0  0
  -29.4392  -23.3410   21.1126 H   0  0  0  0  0  0
  -28.6936  -15.9816   20.1196 H   0  0  0  0  0  0
  1 25  1  0  0  0
  1 30  2  0  0  0
  1 81  1  0  0  0
  2  3  1  0  0  0
  2 25  1  0  0  0
  2 84  1  0  0  0
  2 85  1  0  0  0
  3  4  1  0  0  0
  3 86  1  0  0  0
  3 87  1  0  0  0
  4  5  1  0  0  0
  4 88  1  0  0  0
  4 89  1  0  0  0
  5  6  1  0  0  0
  5 26  1  0  0  0
  5 90  1  0  0  0
  6 25  1  0  0  0
  6 91  1  0  0  0
  6 92  1  0  0  0
  7  8  2  0  0  0
  7 26  1  0  0  0
  7 29  1  0  0  0
  8  9  1  0  0  0
  8 22  1  0  0  0
  9 10  1  0  0  0
  9 27  2  0  0  0
 10 11  2  0  0  0
 10 15  1  0  0  0
 11 12  1  0  0  0
 11 93  1  0  0  0
 12 13  2  0  0  0
 12 94  1  0  0  0
 13 14  1  0  0  0
 13 31  1  0  0  0
 14 15  2  0  0  0
 14 95  1  0  0  0
 15 96  1  0  0  0
 16 17  2  0  0  0
 16 21  1  0  0  0
 16 31  1  0  0  0
 17 18  1  0  0  0
 17 97  1  0  0  0
 18 19  2  0  0  0
 18 98  1  0  0  0
 19 20  1  0  0  0
 19 24  1  0  0  0
 20 21  2  0  0  0
 20 99  1  0  0  0
 21 23  1  0  0  0
 22 28  1  0  0  0
 22 32  2  0  0  0
 26 27  1  0  0  0
 28100  1  0  0  0
 28101  1  0  0  0
 29102  1  0  0  0
 29103  1  0  0  0
 33 34  1  0  0  0
 33 66  1  0  0  0
 33 70  2  0  0  0
 34 36  1  0  0  0
 34 59  1  0  0  0
 34104  1  0  0  0
 35 44  2  0  0  0
 35 45  1  0  0  0
 35 68  1  0  0  0
 36 56  1  0  0  0
 36105  1  0  0  0
 37 39  1  0  0  0
 37 47  1  0  0  0
 37 66  1  0  0  0
 37106  1  0  0  0
 38 43  2  0  0  0
 38 46  1  0  0  0
 38 47  1  0  0  0
 39 64  1  0  0  0
 39 67  2  0  0  0
 40 52  1  0  0  0
 40 53  2  0  0  0
 40 58  1  0  0  0
 41107  1  0  0  0
 41108  1  0  0  0
 41109  1  0  0  0
 41 48  1  0  0  0
 42 43  1  0  0  0
 42 66  1  0  0  0
 42110  1  0  0  0
 42111  1  0  0  0
 43 44  1  0  0  0
 44112  1  0  0  0
 45 46  2  0  0  0
 45113  1  0  0  0
 46114  1  0  0  0
 47115  1  0  0  0
 47116  1  0  0  0
 48 56  1  0  0  0
 48 65  1  0  0  0
 48117  1  0  0  0
 49 50  1  0  0  0
 49 53  1  0  0  0
 49 64  1  0  0  0
 49118  1  0  0  0
 50 51  1  0  0  0
 50119  1  0  0  0
 50120  1  0  0  0
 51 52  1  0  0  0
 51121  1  0  0  0
 51122  1  0  0  0
 52123  1  0  0  0
 52124  1  0  0  0
 53 54  1  0  0  0
 54 55  2  0  0  0
 54125  1  0  0  0
 55 57  1  0  0  0
 55126  1  0  0  0
 56 69  2  0  0  0
 57 58  2  0  0  0
 57127  1  0  0  0
 58128  1  0  0  0
 59 60  1  0  0  0
 59 61  1  0  0  0
 59 62  1  0  0  0
 60129  1  0  0  0
 60130  1  0  0  0
 60131  1  0  0  0
 61132  1  0  0  0
 61133  1  0  0  0
 61134  1  0  0  0
 62135  1  0  0  0
 62136  1  0  0  0
 62137  1  0  0  0
 63 65  1  0  0  0
 63138  1  0  0  0
 63139  1  0  0  0
 63140  1  0  0  0
 64141  1  0  0  0
 65142  1  0  0  0
 68 79  1  0  0  0
 71 72  2  0  0  0
 71 74  1  0  0  0
 71143  1  0  0  0
 72 75  1  0  0  0
 72144  1  0  0  0
 73 74  2  0  0  0
 73 76  1  0  0  0
 73145  1  0  0  0
 74 81  1  0  0  0
 75 76  2  0  0  0
 75 82  1  0  0  0
 76 83  1  0  0  0
 77146  1  0  0  0
 77147  1  0  0  0
 77148  1  0  0  0
 77 80  1  0  0  0
 78 82  1  0  0  0
 78149  1  0  0  0
 78150  1  0  0  0
 78151  1  0  0  0
 79 80  1  0  0  0
 79152  1  0  0  0
 79153  1  0  0  0
 80 83  1  0  0  0
 80154  1  0  0  0
 81155  1  0  0  0
M  ISO  4   1 100  68 101  79 101  81 100
M  END
> <chiral flag>
0

> <version>
0

> <s_m_source_file>
/data/baiqing/PycharmProjects/Reinvent-master-3.2/result/LINK_invent/BTK/process_docking_weight1_custom_sum_contain_oxygen_bond_distance_aromatic_linkinvent_7_9_3/rearranged_h_0004.sdf

> <i_m_source_file_index>
26

> <r_mmod_Potential_Energy-OPLS-2005>
715.747436523438

> <r_mmod_Stretch_Energy-OPLS-2005>
333.117095947266

> <r_mmod_Bend_Energy-OPLS-2005>
303.520660400391

> <r_mmod_Torsional_Energy-OPLS-2005>
238.137496948242

> <r_mmod_Improper_Torsional_Energy-OPLS-2005>
8.51051044464111

> <r_mmod_Van_der_Waal_Energy-OPLS-2005>
141.148284912109

> <r_mmod_Electrostatic_Energy-OPLS-2005>
-367.213134765625

> <r_mmod_Solvation_Energy-OPLS-2005>
-218.032073974609

> <b_mmod_Minimization_Converged-OPLS-2005>
0

> <r_mmod_RMS_Derivative-OPLS-2005>
7.04314661026001

$$$$
26
                    3D
 Structure written by MMmdl.
172180  0  0  1  0            999 V2000
  -30.7288  -14.4745   20.4150 C   0  0  0  0  0  0
  -30.4174  -12.2757   19.4129 C   0  0  0  0  0  0
  -29.4853  -12.4382   18.1952 C   0  0  0  0  0  0
  -28.0065  -12.3301   18.6169 C   0  0  0  0  0  0
  -27.6518  -13.2030   19.8509 C   0  0  2  0  0  0
  -28.7117  -13.0680   20.9692 C   0  0  0  0  0  0
  -25.2540  -13.8098   20.5737 C   0  0  0  0  0  0
  -24.1809  -13.0365   20.9205 C   0  0  0  0  0  0
  -24.6396  -11.6856   20.8750 C   0  0  0  0  0  0
  -23.9064  -10.4250   21.0396 C   0  0  0  0  0  0
  -24.3617   -9.4187   21.9187 C   0  0  0  0  0  0
  -23.6278   -8.2233   22.0748 C   0  0  0  0  0  0
  -22.4251   -8.0286   21.3550 C   0  0  0  0  0  0
  -21.9900   -9.0256   20.4632 C   0  0  0  0  0  0
  -22.7233  -10.2128   20.3041 C   0  0  0  0  0  0
  -21.6848   -6.0744   22.5284 C   0  0  0  0  0  0
  -21.4002   -6.5630   23.8227 C   0  0  0  0  0  0
  -21.3660   -5.6778   24.9183 C   0  0  0  0  0  0
  -21.6049   -4.3039   24.7217 C   0  0  0  0  0  0
  -21.8825   -3.8145   23.4331 C   0  0  0  0  0  0
  -21.9185   -4.6976   22.3395 C   0  0  0  0  0  0
  -22.7840  -13.5172   21.1865 C   0  0  0  0  0  0
  -22.1645   -4.2161   21.0973 F   0  0  0  0  0  0
  -21.5637   -3.4516   25.7725 F   0  0  0  0  0  0
  -30.0326  -13.3112   20.3759 N   0  0  0  0  0  0
  -26.2992  -12.9300   20.3350 N   0  0  0  0  0  0
  -25.9326  -11.6454   20.5805 N   0  0  0  0  0  0
  -22.0482  -12.8172   22.0421 N   0  0  0  0  0  0
  -25.4114  -15.1817   20.4298 N   0  0  0  0  0  0
  -31.9593  -14.5090   20.3505 O   0  0  0  0  0  0
  -21.6613   -6.8886   21.4243 O   0  0  0  0  0  0
  -22.3538  -14.5489   20.6724 O   0  0  0  0  0  0
  -24.6125  -31.8725   23.2176 C   0  0  0  0  0  0
  -25.9036  -32.4852   23.8453 C   0  0  1  0  0  0
  -27.2265  -27.4677   20.0861 C   0  0  0  0  0  0
  -25.5917  -33.8650   24.2380 N   0  0  0  0  0  0
  -23.3956  -30.5011   21.5580 C   0  0  2  0  0  0
  -24.8368  -28.9779   20.1167 C   0  0  0  0  0  0
  -22.7390  -29.4674   22.5017 C   0  0  0  0  0  0
  -18.0272  -28.1373   22.8504 C   0  0  0  0  0  0
  -24.1485  -36.7324   23.2638 C   0  0  0  0  0  0
  -25.9251  -30.8521   21.3636 C   0  0  0  0  0  0
  -25.9991  -29.4917   20.7063 C   0  0  0  0  0  0
  -27.1964  -28.7455   20.6830 C   0  0  0  0  0  0
  -26.0393  -26.9654   19.5010 C   0  0  0  0  0  0
  -24.8492  -27.7126   19.5136 C   0  0  0  0  0  0
  -23.6000  -29.8429   20.1697 C   0  0  0  0  0  0
  -25.4107  -36.3133   24.0345 C   0  0  1  0  0  0
  -20.5859  -28.3655   23.1339 C   0  0  2  0  0  0
  -20.6767  -26.9395   22.5426 C   0  0  0  0  0  0
  -19.5750  -26.6391   21.5223 C   0  0  0  0  0  0
  -18.1922  -26.7925   22.1620 C   0  0  0  0  0  0
  -19.1516  -28.8826   23.2922 C   0  0  0  0  0  0
  -18.9440  -30.1435   23.8937 C   0  0  0  0  0  0
  -17.6440  -30.6580   24.0570 C   0  0  0  0  0  0
  -25.9026  -34.9484   23.5151 C   0  0  0  0  0  0
  -16.5331  -29.9080   23.6344 C   0  0  0  0  0  0
  -16.7255  -28.6489   23.0375 C   0  0  0  0  0  0
  -26.4467  -31.6598   25.0753 C   0  0  0  0  0  0
  -25.3744  -31.3637   26.1503 C   0  0  0  0  0  0
  -27.0301  -30.3057   24.6085 C   0  0  0  0  0  0
  -27.6081  -32.4276   25.7494 C   0  0  0  0  0  0
  -27.5584  -37.1811   24.8470 C   0  0  0  0  0  0
  -21.4115  -29.3034   22.3748 N   0  0  0  0  0  0
  -26.4305  -37.3802   23.9408 N   0  0  0  0  0  0
  -24.6637  -31.0871   22.1052 N   0  0  0  0  0  0
  -23.4180  -28.8199   23.3022 O   0  0  0  0  0  0
  -28.4129  -26.7635   20.0983 O   0  0  0  0  0  0
  -26.5563  -34.8912   22.4697 O   0  0  0  0  0  0
  -23.5332  -32.1439   23.7607 O   0  0  0  0  0  0
  -26.8276  -21.1666   15.4111 C   0  0  0  0  0  0
  -29.6064  -16.5077   17.6093 C   0  0  0  0  0  0
  -28.2260  -17.1463   19.6304 C   0  0  0  0  0  0
  -30.6891  -16.0532   18.5858 C   0  0  0  0  0  0
  -29.3056  -16.4984   20.5321 C   0  0  0  0  0  0
  -28.7198  -17.5913   18.2345 C   0  0  0  0  0  0
  -26.4262  -22.2799   16.3788 C   0  0  0  0  0  0
  -27.5198  -17.9349   17.3264 C   0  0  0  0  0  0
  -27.6263  -23.1494   16.8099 C   0  0  0  0  0  0
  -27.8577  -18.1635   15.8357 C   0  0  0  0  0  0
  -27.4701  -23.6993   18.2326 C   0  0  0  0  0  0
  -28.4125  -24.8794   18.5282 C   0  0  0  0  0  0
  -26.6797  -18.7257   15.0185 C   0  0  0  0  0  0
  -28.3396  -25.3427   19.9929 C   0  0  0  0  0  0
  -30.0715  -15.4841   19.7964 N   0  0  0  0  0  0
  -26.2201  -19.9881   15.5814 N   0  0  0  0  0  0
  -27.7016  -21.3527   14.5620 O   0  0  0  0  0  0
  -31.4601  -12.3625   19.1005 H   0  0  0  0  0  0
  -30.3101  -11.2845   19.8556 H   0  0  0  0  0  0
  -29.7143  -11.6759   17.4498 H   0  0  0  0  0  0
  -29.6591  -13.3970   17.7077 H   0  0  0  0  0  0
  -27.8075  -11.2795   18.8386 H   0  0  0  0  0  0
  -27.3594  -12.5908   17.7788 H   0  0  0  0  0  0
  -27.6617  -14.2306   19.4968 H   0  0  0  0  0  0
  -28.6847  -12.0700   21.4092 H   0  0  0  0  0  0
  -28.5110  -13.7700   21.7790 H   0  0  0  0  0  0
  -25.2777   -9.5642   22.4765 H   0  0  0  0  0  0
  -23.9977   -7.4610   22.7460 H   0  0  0  0  0  0
  -21.0844   -8.8773   19.8936 H   0  0  0  0  0  0
  -22.3703  -10.9668   19.6146 H   0  0  0  0  0  0
  -21.1975   -7.6138   23.9717 H   0  0  0  0  0  0
  -21.1477   -6.0514   25.9089 H   0  0  0  0  0  0
  -22.0596   -2.7604   23.2828 H   0  0  0  0  0  0
  -22.4042  -11.9774   22.4750 H   0  0  0  0  0  0
  -21.1110  -13.1226   22.2629 H   0  0  0  0  0  0
  -24.6388  -15.8257   20.5580 H   0  0  0  0  0  0
  -26.2717  -15.6389   20.1616 H   0  0  0  0  0  0
  -26.7109  -32.5557   23.1224 H   0  0  0  0  0  0
  -25.0147  -33.9849   25.0576 H   0  0  0  0  0  0
  -22.6840  -31.3187   21.4256 H   0  0  0  0  0  0
  -23.3749  -35.9656   23.3315 H   0  0  0  0  0  0
  -24.3599  -36.8927   22.2055 H   0  0  0  0  0  0
  -23.7224  -37.6521   23.6646 H   0  0  0  0  0  0
  -26.0368  -31.6240   20.6009 H   0  0  0  0  0  0
  -26.8131  -30.8969   21.9805 H   0  0  0  0  0  0
  -28.0952  -29.1437   21.1332 H   0  0  0  0  0  0
  -26.0063  -26.0042   19.0218 H   0  0  0  0  0  0
  -23.9552  -27.3104   19.0588 H   0  0  0  0  0  0
  -23.7053  -30.6236   19.4163 H   0  0  0  0  0  0
  -22.7219  -29.2661   19.8724 H   0  0  0  0  0  0
  -25.1266  -36.2039   25.0838 H   0  0  0  0  0  0
  -20.9946  -28.3221   24.1459 H   0  0  0  0  0  0
  -20.5708  -26.2245   23.3609 H   0  0  0  0  0  0
  -21.6636  -26.7478   22.1189 H   0  0  0  0  0  0
  -19.6922  -25.6313   21.1233 H   0  0  0  0  0  0
  -19.6708  -27.3218   20.6770 H   0  0  0  0  0  0
  -17.4198  -26.6714   21.4000 H   0  0  0  0  0  0
  -18.0298  -26.0045   22.8981 H   0  0  0  0  0  0
  -19.7903  -30.7247   24.2320 H   0  0  0  0  0  0
  -17.4989  -31.6269   24.5152 H   0  0  0  0  0  0
  -15.5329  -30.2993   23.7644 H   0  0  0  0  0  0
  -15.8654  -28.0812   22.7102 H   0  0  0  0  0  0
  -24.5995  -30.6898   25.7821 H   0  0  0  0  0  0
  -24.8827  -32.2735   26.4931 H   0  0  0  0  0  0
  -25.8116  -30.8835   27.0264 H   0  0  0  0  0  0
  -26.2824  -29.6808   24.1181 H   0  0  0  0  0  0
  -27.4131  -29.7299   25.4517 H   0  0  0  0  0  0
  -27.8624  -30.4389   23.9177 H   0  0  0  0  0  0
  -27.2775  -33.3600   26.2063 H   0  0  0  0  0  0
  -28.3878  -32.6772   25.0290 H   0  0  0  0  0  0
  -28.0747  -31.8381   26.5396 H   0  0  0  0  0  0
  -28.2587  -38.0114   24.7526 H   0  0  0  0  0  0
  -28.1085  -36.2646   24.6285 H   0  0  0  0  0  0
  -27.2309  -37.1440   25.8872 H   0  0  0  0  0  0
  -20.9268  -29.8732   21.6964 H   0  0  0  0  0  0
  -26.0206  -38.2876   24.1427 H   0  0  0  0  0  0
  -28.9976  -15.6552   17.3050 H   0  0  0  0  0  0
  -30.0885  -16.8875   16.7087 H   0  0  0  0  0  0
  -27.7605  -17.9860   20.1495 H   0  0  0  0  0  0
  -27.4321  -16.4278   19.4734 H   0  0  0  0  0  0
  -31.3527  -16.8796   18.8490 H   0  0  0  0  0  0
  -31.3110  -15.3178   18.0714 H   0  0  0  0  0  0
  -28.8285  -16.0593   21.4090 H   0  0  0  0  0  0
  -29.9898  -17.2620   20.9071 H   0  0  0  0  0  0
  -29.3320  -18.4861   18.3593 H   0  0  0  0  0  0
  -25.9707  -21.8251   17.2612 H   0  0  0  0  0  0
  -25.6545  -22.8971   15.9174 H   0  0  0  0  0  0
  -27.0389  -18.8212   17.7408 H   0  0  0  0  0  0
  -26.7749  -17.1384   17.3822 H   0  0  0  0  0  0
  -27.7294  -23.9684   16.0969 H   0  0  0  0  0  0
  -28.5611  -22.5878   16.7629 H   0  0  0  0  0  0
  -28.1655  -17.2217   15.3808 H   0  0  0  0  0  0
  -28.7132  -18.8346   15.7498 H   0  0  0  0  0  0
  -27.6423  -22.8951   18.9514 H   0  0  0  0  0  0
  -26.4369  -24.0104   18.3799 H   0  0  0  0  0  0
  -28.1603  -25.7060   17.8642 H   0  0  0  0  0  0
  -29.4437  -24.6143   18.2908 H   0  0  0  0  0  0
  -25.8457  -18.0219   15.0262 H   0  0  0  0  0  0
  -26.9669  -18.8546   13.9719 H   0  0  0  0  0  0
  -29.1778  -24.9174   20.5469 H   0  0  0  0  0  0
  -27.4499  -24.9588   20.4976 H   0  0  0  0  0  0
  -25.4821  -19.9367   16.2713 H   0  0  0  0  0  0
  1 25  1  0  0  0
  1 30  2  0  0  0
  1 85  1  0  0  0
  2  3  1  0  0  0
  2 25  1  0  0  0
  2 88  1  0  0  0
  2 89  1  0  0  0
  3  4  1  0  0  0
  3 90  1  0  0  0
  3 91  1  0  0  0
  4  5  1  0  0  0
  4 92  1  0  0  0
  4 93  1  0  0  0
  5  6  1  0  0  0
  5 26  1  0  0  0
  5 94  1  0  0  0
  6 25  1  0  0  0
  6 95  1  0  0  0
  6 96  1  0  0  0
  7  8  2  0  0  0
  7 26  1  0  0  0
  7 29  1  0  0  0
  8  9  1  0  0  0
  8 22  1  0  0  0
  9 10  1  0  0  0
  9 27  2  0  0  0
 10 11  2  0  0  0
 10 15  1  0  0  0
 11 12  1  0  0  0
 11 97  1  0  0  0
 12 13  2  0  0  0
 12 98  1  0  0  0
 13 14  1  0  0  0
 13 31  1  0  0  0
 14 15  2  0  0  0
 14 99  1  0  0  0
 15100  1  0  0  0
 16 17  2  0  0  0
 16 21  1  0  0  0
 16 31  1  0  0  0
 17 18  1  0  0  0
 17101  1  0  0  0
 18 19  2  0  0  0
 18102  1  0  0  0
 19 20  1  0  0  0
 19 24  1  0  0  0
 20 21  2  0  0  0
 20103  1  0  0  0
 21 23  1  0  0  0
 22 28  1  0  0  0
 22 32  2  0  0  0
 26 27  1  0  0  0
 28104  1  0  0  0
 28105  1  0  0  0
 29106  1  0  0  0
 29107  1  0  0  0
 33 34  1  0  0  0
 33 66  1  0  0  0
 33 70  2  0  0  0
 34 36  1  0  0  0
 34 59  1  0  0  0
 34108  1  0  0  0
 35 44  2  0  0  0
 35 45  1  0  0  0
 35 68  1  0  0  0
 36 56  1  0  0  0
 36109  1  0  0  0
 37 39  1  0  0  0
 37 47  1  0  0  0
 37 66  1  0  0  0
 37110  1  0  0  0
 38 43  2  0  0  0
 38 46  1  0  0  0
 38 47  1  0  0  0
 39 64  1  0  0  0
 39 67  2  0  0  0
 40 52  1  0  0  0
 40 53  2  0  0  0
 40 58  1  0  0  0
 41111  1  0  0  0
 41112  1  0  0  0
 41113  1  0  0  0
 41 48  1  0  0  0
 42 43  1  0  0  0
 42 66  1  0  0  0
 42114  1  0  0  0
 42115  1  0  0  0
 43 44  1  0  0  0
 44116  1  0  0  0
 45 46  2  0  0  0
 45117  1  0  0  0
 46118  1  0  0  0
 47119  1  0  0  0
 47120  1  0  0  0
 48 56  1  0  0  0
 48 65  1  0  0  0
 48121  1  0  0  0
 49 50  1  0  0  0
 49 53  1  0  0  0
 49 64  1  0  0  0
 49122  1  0  0  0
 50 51  1  0  0  0
 50123  1  0  0  0
 50124  1  0  0  0
 51 52  1  0  0  0
 51125  1  0  0  0
 51126  1  0  0  0
 52127  1  0  0  0
 52128  1  0  0  0
 53 54  1  0  0  0
 54 55  2  0  0  0
 54129  1  0  0  0
 55 57  1  0  0  0
 55130  1  0  0  0
 56 69  2  0  0  0
 57 58  2  0  0  0
 57131  1  0  0  0
 58132  1  0  0  0
 59 60  1  0  0  0
 59 61  1  0  0  0
 59 62  1  0  0  0
 60133  1  0  0  0
 60134  1  0  0  0
 60135  1  0  0  0
 61136  1  0  0  0
 61137  1  0  0  0
 61138  1  0  0  0
 62139  1  0  0  0
 62140  1  0  0  0
 62141  1  0  0  0
 63 65  1  0  0  0
 63142  1  0  0  0
 63143  1  0  0  0
 63144  1  0  0  0
 64145  1  0  0  0
 65146  1  0  0  0
 68 84  1  0  0  0
 71 77  1  0  0  0
 71 86  1  0  0  0
 71 87  2  0  0  0
 72 74  1  0  0  0
 72 76  1  0  0  0
 72147  1  0  0  0
 72148  1  0  0  0
 73 75  1  0  0  0
 73 76  1  0  0  0
 73149  1  0  0  0
 73150  1  0  0  0
 74 85  1  0  0  0
 74151  1  0  0  0
 74152  1  0  0  0
 75 85  1  0  0  0
 75153  1  0  0  0
 75154  1  0  0  0
 76 78  1  0  0  0
 76155  1  0  0  0
 77 79  1  0  0  0
 77156  1  0  0  0
 77157  1  0  0  0
 78 80  1  0  0  0
 78158  1  0  0  0
 78159  1  0  0  0
 79 81  1  0  0  0
 79160  1  0  0  0
 79161  1  0  0  0
 80 83  1  0  0  0
 80162  1  0  0  0
 80163  1  0  0  0
 81 82  1  0  0  0
 81164  1  0  0  0
 81165  1  0  0  0
 82 84  1  0  0  0
 82166  1  0  0  0
 82167  1  0  0  0
 83 86  1  0  0  0
 83168  1  0  0  0
 83169  1  0  0  0
 84170  1  0  0  0
 84171  1  0  0  0
 86172  1  0  0  0
M  ISO  4   1 100  68 101  84 101  85 100
M  END
> <chiral flag>
0

> <version>
0

> <s_m_source_file>
/data/baiqing/PycharmProjects/Reinvent-master-3.2/result/LINK_invent/BTK/process_docking_weight1_custom_sum_contain_oxygen_bond_distance_aromatic_linkinvent_7_9_3/rearranged_h_0004.sdf

> <i_m_source_file_index>
27

> <r_mmod_Potential_Energy-OPLS-2005>
149.509582519531

> <r_mmod_Stretch_Energy-OPLS-2005>
32.9279289245605

> <r_mmod_Bend_Energy-OPLS-2005>
100.436470031738

> <r_mmod_Torsional_Energy-OPLS-2005>
350.283782958984

> <r_mmod_Improper_Torsional_Energy-OPLS-2005>
30.5184917449951

> <r_mmod_Van_der_Waal_Energy-OPLS-2005>
144.744018554688

> <r_mmod_Electrostatic_Energy-OPLS-2005>
-323.654724121094

> <r_mmod_Solvation_Energy-OPLS-2005>
-220.058212280273

> <b_mmod_Minimization_Converged-OPLS-2005>
0

> <r_mmod_RMS_Derivative-OPLS-2005>
2.93293857574463

$$$$
27
                    3D
 Structure written by MMmdl.
216224  0  0  1  0            999 V2000
  -30.7756  -14.3418   20.6869 C   0  0  0  0  0  0
  -30.4143  -12.2760   19.3914 C   0  0  0  0  0  0
  -29.4828  -12.5274   18.1919 C   0  0  0  0  0  0
  -28.0070  -12.3858   18.6079 C   0  0  0  0  0  0
  -27.6681  -13.2024   19.8820 C   0  0  2  0  0  0
  -28.7054  -12.9340   20.9954 C   0  0  0  0  0  0
  -25.2601  -13.8155   20.5671 C   0  0  0  0  0  0
  -24.1851  -13.0444   20.9158 C   0  0  0  0  0  0
  -24.6389  -11.6907   20.8723 C   0  0  0  0  0  0
  -23.9049  -10.4298   21.0393 C   0  0  0  0  0  0
  -24.3603   -9.4215   21.9176 C   0  0  0  0  0  0
  -23.6288   -8.2248   22.0749 C   0  0  0  0  0  0
  -22.4266   -8.0279   21.3538 C   0  0  0  0  0  0
  -21.9898   -9.0247   20.4643 C   0  0  0  0  0  0
  -22.7222  -10.2136   20.3051 C   0  0  0  0  0  0
  -21.6852   -6.0732   22.5278 C   0  0  0  0  0  0
  -21.4015   -6.5638   23.8210 C   0  0  0  0  0  0
  -21.3660   -5.6791   24.9176 C   0  0  0  0  0  0
  -21.6044   -4.3052   24.7225 C   0  0  0  0  0  0
  -21.8819   -3.8146   23.4346 C   0  0  0  0  0  0
  -21.9193   -4.6961   22.3405 C   0  0  0  0  0  0
  -22.7863  -13.5240   21.1838 C   0  0  0  0  0  0
  -22.1660   -4.2145   21.0981 F   0  0  0  0  0  0
  -21.5630   -3.4538   25.7738 F   0  0  0  0  0  0
  -30.0530  -13.2145   20.4623 N   0  0  0  0  0  0
  -26.3048  -12.9327   20.3382 N   0  0  0  0  0  0
  -25.9317  -11.6484   20.5757 N   0  0  0  0  0  0
  -22.0510  -12.8239   22.0394 N   0  0  0  0  0  0
  -25.4336  -15.1876   20.4070 N   0  0  0  0  0  0
  -31.7768  -14.6531   20.0368 O   0  0  0  0  0  0
  -21.6637   -6.8875   21.4238 O   0  0  0  0  0  0
  -22.3555  -14.5549   20.6688 O   0  0  0  0  0  0
  -24.6130  -31.8719   23.2074 C   0  0  0  0  0  0
  -25.9039  -32.4820   23.8395 C   0  0  1  0  0  0
  -27.2396  -27.4555   20.0700 C   0  0  0  0  0  0
  -25.5902  -33.8628   24.2331 N   0  0  0  0  0  0
  -23.3971  -30.4948   21.5497 C   0  0  2  0  0  0
  -24.8428  -28.9602   20.1149 C   0  0  0  0  0  0
  -22.7373  -29.4682   22.4994 C   0  0  0  0  0  0
  -18.0287  -28.1353   22.8489 C   0  0  0  0  0  0
  -24.1484  -36.7315   23.2634 C   0  0  0  0  0  0
  -25.9253  -30.8336   21.3654 C   0  0  0  0  0  0
  -25.9997  -29.4709   20.7121 C   0  0  0  0  0  0
  -27.1953  -28.7190   20.6999 C   0  0  0  0  0  0
  -26.0574  -26.9503   19.4789 C   0  0  0  0  0  0
  -24.8634  -27.6948   19.5044 C   0  0  0  0  0  0
  -23.6032  -29.8225   20.1671 C   0  0  0  0  0  0
  -25.4108  -36.3115   24.0333 C   0  0  1  0  0  0
  -20.5869  -28.3654   23.1327 C   0  0  2  0  0  0
  -20.6758  -26.9412   22.5390 C   0  0  0  0  0  0
  -19.5734  -26.6375   21.5197 C   0  0  0  0  0  0
  -18.1926  -26.7891   22.1629 C   0  0  0  0  0  0
  -19.1541  -28.8837   23.2891 C   0  0  0  0  0  0
  -18.9454  -30.1435   23.8910 C   0  0  0  0  0  0
  -17.6454  -30.6557   24.0585 C   0  0  0  0  0  0
  -25.9038  -34.9481   23.5135 C   0  0  0  0  0  0
  -16.5353  -29.9057   23.6320 C   0  0  0  0  0  0
  -16.7286  -28.6467   23.0351 C   0  0  0  0  0  0
  -26.4466  -31.6595   25.0718 C   0  0  0  0  0  0
  -25.3721  -31.3729   26.1461 C   0  0  0  0  0  0
  -27.0321  -30.3023   24.6141 C   0  0  0  0  0  0
  -27.6039  -32.4334   25.7467 C   0  0  0  0  0  0
  -27.5593  -37.1813   24.8461 C   0  0  0  0  0  0
  -21.4123  -29.3009   22.3692 N   0  0  0  0  0  0
  -26.4310  -37.3778   23.9398 N   0  0  0  0  0  0
  -24.6626  -31.0826   22.0987 N   0  0  0  0  0  0
  -23.4150  -28.8279   23.3087 O   0  0  0  0  0  0
  -28.4374  -26.7715   20.0781 O   0  0  0  0  0  0
  -26.5590  -34.8937   22.4680 O   0  0  0  0  0  0
  -23.5316  -32.1513   23.7428 O   0  0  0  0  0  0
  -20.2179  -21.2919   11.5754 C   0  0  0  0  0  0
  -20.7910  -22.4519   11.0201 C   0  0  0  0  0  0
  -19.7885  -21.2923   12.9171 C   0  0  0  0  0  0
  -20.9382  -23.6096   11.8091 C   0  0  0  0  0  0
  -19.9300  -22.4528   13.7090 C   0  0  0  0  0  0
  -20.5071  -23.6133   13.1490 C   0  0  0  0  0  0
  -26.3741  -20.6370   20.3915 C   0  0  0  0  0  0
  -28.2889  -23.8564   16.4287 C   0  0  0  0  0  0
  -23.6179  -20.8292   16.1826 C   0  0  0  0  0  0
  -28.5314  -24.8069   14.1633 C   0  0  0  0  0  0
  -19.4825  -22.4300   15.1618 C   0  0  0  0  0  0
  -26.7668  -19.1932   20.7399 C   0  0  0  0  0  0
  -29.4090  -24.7598   16.9723 C   0  0  0  0  0  0
  -23.7852  -21.0925   14.6725 C   0  0  0  0  0  0
  -20.4854  -21.6897   16.0608 C   0  0  0  0  0  0
  -28.2909  -18.9600   20.6748 C   0  0  0  0  0  0
  -28.9150  -25.9452   17.8287 C   0  0  0  0  0  0
  -24.9953  -20.3463   14.0658 C   0  0  0  0  0  0
  -28.7662  -17.6315   21.2844 C   0  0  0  0  0  0
  -25.4652  -20.9023   12.7069 C   0  0  0  0  0  0
  -27.0034  -20.9245   12.5759 C   0  0  0  0  0  0
  -30.3037  -17.5336   21.2570 C   0  0  0  0  0  0
  -27.6622  -22.2364   13.0604 C   0  0  0  0  0  0
  -24.1284  -22.5202   18.8363 C   0  0  0  0  0  0
  -21.7713  -22.4944   16.3395 C   0  0  0  0  0  0
  -30.8864  -16.3860   22.0997 C   0  0  0  0  0  0
  -27.3809  -22.5860   14.5427 C   0  0  0  0  0  0
  -24.5376  -22.3137   20.3062 C   0  0  0  0  0  0
  -22.9269  -21.6582   18.3863 C   0  0  0  0  0  0
  -28.6032  -25.5864   19.2970 C   0  0  0  0  0  0
  -25.0872  -20.9763   20.5414 N   0  0  0  0  0  0
  -30.3428  -15.0911   21.7067 N   0  0  0  0  0  0
  -28.1040  -23.7511   15.0887 N   0  0  0  0  0  0
  -22.8150  -21.6372   16.9193 N   0  0  0  0  0  0
  -27.2259  -21.4426   20.0141 O   0  0  0  0  0  0
  -27.6423  -23.1824   17.2315 O   0  0  0  0  0  0
  -24.2779  -19.9261   16.7072 O   0  0  0  0  0  0
  -20.6599  -24.7318   13.8982 F   0  0  0  0  0  0
  -31.4587  -12.3701   19.0886 H   0  0  0  0  0  0
  -30.3036  -11.2519   19.7506 H   0  0  0  0  0  0
  -29.7117  -11.8304   17.3850 H   0  0  0  0  0  0
  -29.6587  -13.5274   17.7928 H   0  0  0  0  0  0
  -27.8092  -11.3276   18.7819 H   0  0  0  0  0  0
  -27.3550  -12.6850   17.7865 H   0  0  0  0  0  0
  -27.7302  -14.2584   19.6165 H   0  0  0  0  0  0
  -28.6588  -11.8899   21.3082 H   0  0  0  0  0  0
  -28.4526  -13.5096   21.8861 H   0  0  0  0  0  0
  -25.2750   -9.5696   22.4747 H   0  0  0  0  0  0
  -23.9999   -7.4640   22.7468 H   0  0  0  0  0  0
  -21.0830   -8.8762   19.8952 H   0  0  0  0  0  0
  -22.3671  -10.9668   19.6160 H   0  0  0  0  0  0
  -21.2006   -7.6145   23.9713 H   0  0  0  0  0  0
  -21.1483   -6.0521   25.9075 H   0  0  0  0  0  0
  -22.0598   -2.7605   23.2848 H   0  0  0  0  0  0
  -22.4119  -11.9896   22.4784 H   0  0  0  0  0  0
  -21.1127  -13.1270   22.2603 H   0  0  0  0  0  0
  -24.6674  -15.8435   20.5074 H   0  0  0  0  0  0
  -26.2930  -15.6216   20.0973 H   0  0  0  0  0  0
  -26.7116  -32.5568   23.1167 H   0  0  0  0  0  0
  -25.0047  -33.9772   25.0478 H   0  0  0  0  0  0
  -22.6890  -31.3139   21.4059 H   0  0  0  0  0  0
  -23.3741  -35.9650   23.3287 H   0  0  0  0  0  0
  -24.3588  -36.8922   22.2048 H   0  0  0  0  0  0
  -23.7242  -37.6519   23.6659 H   0  0  0  0  0  0
  -26.0508  -31.6010   20.6009 H   0  0  0  0  0  0
  -26.8068  -30.8790   21.9912 H   0  0  0  0  0  0
  -28.0855  -29.1117   21.1747 H   0  0  0  0  0  0
  -26.0320  -25.9884   18.9919 H   0  0  0  0  0  0
  -23.9729  -27.2858   19.0482 H   0  0  0  0  0  0
  -23.6953  -30.5915   19.4003 H   0  0  0  0  0  0
  -22.7301  -29.2316   19.8857 H   0  0  0  0  0  0
  -25.1289  -36.1957   25.0826 H   0  0  0  0  0  0
  -20.9993  -28.3212   24.1444 H   0  0  0  0  0  0
  -20.5682  -26.2301   23.3575 H   0  0  0  0  0  0
  -21.6637  -26.7445   22.1212 H   0  0  0  0  0  0
  -19.6901  -25.6291   21.1221 H   0  0  0  0  0  0
  -19.6641  -27.3200   20.6733 H   0  0  0  0  0  0
  -17.4206  -26.6686   21.4016 H   0  0  0  0  0  0
  -18.0301  -26.0013   22.9011 H   0  0  0  0  0  0
  -19.7944  -30.7235   24.2271 H   0  0  0  0  0  0
  -17.5024  -31.6245   24.5180 H   0  0  0  0  0  0
  -15.5356  -30.2982   23.7581 H   0  0  0  0  0  0
  -15.8691  -28.0778   22.7059 H   0  0  0  0  0  0
  -24.5838  -30.7146   25.7772 H   0  0  0  0  0  0
  -24.8993  -32.2924   26.4944 H   0  0  0  0  0  0
  -25.8037  -30.8838   27.0204 H   0  0  0  0  0  0
  -26.2905  -29.6739   24.1187 H   0  0  0  0  0  0
  -27.4054  -29.7284   25.4635 H   0  0  0  0  0  0
  -27.8758  -30.4301   23.9342 H   0  0  0  0  0  0
  -27.2640  -33.3603   26.2101 H   0  0  0  0  0  0
  -28.3806  -32.6951   25.0266 H   0  0  0  0  0  0
  -28.0788  -31.8455   26.5326 H   0  0  0  0  0  0
  -28.2620  -38.0107   24.7534 H   0  0  0  0  0  0
  -28.1087  -36.2658   24.6255 H   0  0  0  0  0  0
  -27.2336  -37.1402   25.8868 H   0  0  0  0  0  0
  -20.9265  -29.8741   21.6933 H   0  0  0  0  0  0
  -26.0198  -38.2860   24.1358 H   0  0  0  0  0  0
  -20.1087  -20.4001   10.9732 H   0  0  0  0  0  0
  -21.1232  -22.4531    9.9916 H   0  0  0  0  0  0
  -19.3547  -20.3960   13.3393 H   0  0  0  0  0  0
  -21.3846  -24.4983   11.3882 H   0  0  0  0  0  0
  -28.5022  -25.7940   14.6261 H   0  0  0  0  0  0
  -27.8807  -24.8959   13.2961 H   0  0  0  0  0  0
  -29.5471  -24.6129   13.8190 H   0  0  0  0  0  0
  -18.5123  -21.9343   15.2101 H   0  0  0  0  0  0
  -19.3173  -23.4432   15.5291 H   0  0  0  0  0  0
  -26.2517  -18.5080   20.0667 H   0  0  0  0  0  0
  -26.4058  -18.9758   21.7452 H   0  0  0  0  0  0
  -30.0395  -25.1418   16.1715 H   0  0  0  0  0  0
  -30.0780  -24.1300   17.5576 H   0  0  0  0  0  0
  -23.9526  -22.1631   14.5454 H   0  0  0  0  0  0
  -22.8679  -20.8542   14.1354 H   0  0  0  0  0  0
  -20.7218  -20.7276   15.6069 H   0  0  0  0  0  0
  -20.0097  -21.4563   17.0138 H   0  0  0  0  0  0
  -28.7962  -19.7707   21.2020 H   0  0  0  0  0  0
  -28.6191  -19.0219   19.6361 H   0  0  0  0  0  0
  -28.0513  -26.4125   17.3529 H   0  0  0  0  0  0
  -29.6996  -26.7023   17.8226 H   0  0  0  0  0  0
  -24.7815  -19.2809   13.9746 H   0  0  0  0  0  0
  -25.8196  -20.3985   14.7740 H   0  0  0  0  0  0
  -28.3259  -16.7892   20.7479 H   0  0  0  0  0  0
  -28.4153  -17.5613   22.3146 H   0  0  0  0  0  0
  -25.0714  -21.9055   12.5437 H   0  0  0  0  0  0
  -25.0331  -20.2922   11.9102 H   0  0  0  0  0  0
  -27.2543  -20.7988   11.5218 H   0  0  0  0  0  0
  -27.4479  -20.0638   13.0819 H   0  0  0  0  0  0
  -30.7303  -18.4683   21.6247 H   0  0  0  0  0  0
  -30.6425  -17.4425   20.2232 H   0  0  0  0  0  0
  -27.3176  -23.0368   12.4088 H   0  0  0  0  0  0
  -28.7391  -22.1611   12.9024 H   0  0  0  0  0  0
  -24.9960  -22.3272   18.2019 H   0  0  0  0  0  0
  -23.8827  -23.5712   18.6809 H   0  0  0  0  0  0
  -21.5460  -23.3253   17.0096 H   0  0  0  0  0  0
  -22.1233  -22.9766   15.4288 H   0  0  0  0  0  0
  -30.6634  -16.5490   23.1546 H   0  0  0  0  0  0
  -31.9755  -16.3828   22.0186 H   0  0  0  0  0  0
  -26.3145  -22.7546   14.6925 H   0  0  0  0  0  0
  -27.6533  -21.7059   15.1295 H   0  0  0  0  0  0
  -23.6836  -22.4720   20.9657 H   0  0  0  0  0  0
  -25.2751  -23.0692   20.5827 H   0  0  0  0  0  0
  -22.0102  -22.0366   18.8401 H   0  0  0  0  0  0
  -23.0247  -20.6375   18.7613 H   0  0  0  0  0  0
  -29.4674  -25.0714   19.7172 H   0  0  0  0  0  0
  -27.7763  -24.8853   19.4053 H   0  0  0  0  0  0
  -24.4494  -20.2627   20.8685 H   0  0  0  0  0  0
  -29.5597  -14.7345   22.2332 H   0  0  0  0  0  0
  1 25  1  0  0  0
  1 30  2  0  0  0
  1102  1  0  0  0
  2  3  1  0  0  0
  2 25  1  0  0  0
  2109  1  0  0  0
  2110  1  0  0  0
  3  4  1  0  0  0
  3111  1  0  0  0
  3112  1  0  0  0
  4  5  1  0  0  0
  4113  1  0  0  0
  4114  1  0  0  0
  5  6  1  0  0  0
  5 26  1  0  0  0
  5115  1  0  0  0
  6 25  1  0  0  0
  6116  1  0  0  0
  6117  1  0  0  0
  7  8  2  0  0  0
  7 26  1  0  0  0
  7 29  1  0  0  0
  8  9  1  0  0  0
  8 22  1  0  0  0
  9 10  1  0  0  0
  9 27  2  0  0  0
 10 11  2  0  0  0
 10 15  1  0  0  0
 11 12  1  0  0  0
 11118  1  0  0  0
 12 13  2  0  0  0
 12119  1  0  0  0
 13 14  1  0  0  0
 13 31  1  0  0  0
 14 15  2  0  0  0
 14120  1  0  0  0
 15121  1  0  0  0
 16 17  2  0  0  0
 16 21  1  0  0  0
 16 31  1  0  0  0
 17 18  1  0  0  0
 17122  1  0  0  0
 18 19  2  0  0  0
 18123  1  0  0  0
 19 20  1  0  0  0
 19 24  1  0  0  0
 20 21  2  0  0  0
 20124  1  0  0  0
 21 23  1  0  0  0
 22 28  1  0  0  0
 22 32  2  0  0  0
 26 27  1  0  0  0
 28125  1  0  0  0
 28126  1  0  0  0
 29127  1  0  0  0
 29128  1  0  0  0
 33 34  1  0  0  0
 33 66  1  0  0  0
 33 70  2  0  0  0
 34 36  1  0  0  0
 34 59  1  0  0  0
 34129  1  0  0  0
 35 44  2  0  0  0
 35 45  1  0  0  0
 35 68  1  0  0  0
 36 56  1  0  0  0
 36130  1  0  0  0
 37 39  1  0  0  0
 37 47  1  0  0  0
 37 66  1  0  0  0
 37131  1  0  0  0
 38 43  2  0  0  0
 38 46  1  0  0  0
 38 47  1  0  0  0
 39 64  1  0  0  0
 39 67  2  0  0  0
 40 52  1  0  0  0
 40 53  2  0  0  0
 40 58  1  0  0  0
 41132  1  0  0  0
 41133  1  0  0  0
 41134  1  0  0  0
 41 48  1  0  0  0
 42 43  1  0  0  0
 42 66  1  0  0  0
 42135  1  0  0  0
 42136  1  0  0  0
 43 44  1  0  0  0
 44137  1  0  0  0
 45 46  2  0  0  0
 45138  1  0  0  0
 46139  1  0  0  0
 47140  1  0  0  0
 47141  1  0  0  0
 48 56  1  0  0  0
 48 65  1  0  0  0
 48142  1  0  0  0
 49 50  1  0  0  0
 49 53  1  0  0  0
 49 64  1  0  0  0
 49143  1  0  0  0
 50 51  1  0  0  0
 50144  1  0  0  0
 50145  1  0  0  0
 51 52  1  0  0  0
 51146  1  0  0  0
 51147  1  0  0  0
 52148  1  0  0  0
 52149  1  0  0  0
 53 54  1  0  0  0
 54 55  2  0  0  0
 54150  1  0  0  0
 55 57  1  0  0  0
 55151  1  0  0  0
 56 69  2  0  0  0
 57 58  2  0  0  0
 57152  1  0  0  0
 58153  1  0  0  0
 59 60  1  0  0  0
 59 61  1  0  0  0
 59 62  1  0  0  0
 60154  1  0  0  0
 60155  1  0  0  0
 60156  1  0  0  0
 61157  1  0  0  0
 61158  1  0  0  0
 61159  1  0  0  0
 62160  1  0  0  0
 62161  1  0  0  0
 62162  1  0  0  0
 63 65  1  0  0  0
 63163  1  0  0  0
 63164  1  0  0  0
 63165  1  0  0  0
 64166  1  0  0  0
 65167  1  0  0  0
 68100  1  0  0  0
 71 72  2  0  0  0
 71 73  1  0  0  0
 71168  1  0  0  0
 72 74  1  0  0  0
 72169  1  0  0  0
 73 75  2  0  0  0
 73170  1  0  0  0
 74 76  2  0  0  0
 74171  1  0  0  0
 75 76  1  0  0  0
 75 81  1  0  0  0
 76108  1  0  0  0
 77 82  1  0  0  0
 77101  1  0  0  0
 77105  2  0  0  0
 78 83  1  0  0  0
 78103  1  0  0  0
 78106  2  0  0  0
 79 84  1  0  0  0
 79104  1  0  0  0
 79107  2  0  0  0
 80103  1  0  0  0
 80172  1  0  0  0
 80173  1  0  0  0
 80174  1  0  0  0
 81 85  1  0  0  0
 81175  1  0  0  0
 81176  1  0  0  0
 82 86  1  0  0  0
 82177  1  0  0  0
 82178  1  0  0  0
 83 87  1  0  0  0
 83179  1  0  0  0
 83180  1  0  0  0
 84 88  1  0  0  0
 84181  1  0  0  0
 84182  1  0  0  0
 85 95  1  0  0  0
 85183  1  0  0  0
 85184  1  0  0  0
 86 89  1  0  0  0
 86185  1  0  0  0
 86186  1  0  0  0
 87100  1  0  0  0
 87187  1  0  0  0
 87188  1  0  0  0
 88 90  1  0  0  0
 88189  1  0  0  0
 88190  1  0  0  0
 89 92  1  0  0  0
 89191  1  0  0  0
 89192  1  0  0  0
 90 91  1  0  0  0
 90193  1  0  0  0
 90194  1  0  0  0
 91 93  1  0  0  0
 91195  1  0  0  0
 91196  1  0  0  0
 92 96  1  0  0  0
 92197  1  0  0  0
 92198  1  0  0  0
 93 97  1  0  0  0
 93199  1  0  0  0
 93200  1  0  0  0
 94 98  1  0  0  0
 94 99  1  0  0  0
 94201  1  0  0  0
 94202  1  0  0  0
 95104  1  0  0  0
 95203  1  0  0  0
 95204  1  0  0  0
 96102  1  0  0  0
 96205  1  0  0  0
 96206  1  0  0  0
 97103  1  0  0  0
 97207  1  0  0  0
 97208  1  0  0  0
 98101  1  0  0  0
 98209  1  0  0  0
 98210  1  0  0  0
 99104  1  0  0  0
 99211  1  0  0  0
 99212  1  0  0  0
100213  1  0  0  0
100214  1  0  0  0
101215  1  0  0  0
102216  1  0  0  0
M  ISO  4   1 100  68 101 100 101 102 100
M  END
> <chiral flag>
0

> <version>
0

> <s_m_source_file>
/data/baiqing/PycharmProjects/Reinvent-master-3.2/result/LINK_invent/BTK/process_docking_weight1_custom_sum_contain_oxygen_bond_distance_aromatic_linkinvent_7_9_3/rearranged_h_0004.sdf

> <i_m_source_file_index>
28

> <r_mmod_Potential_Energy-OPLS-2005>
-108.370162963867

> <r_mmod_Stretch_Energy-OPLS-2005>
40.7073822021484

> <r_mmod_Bend_Energy-OPLS-2005>
114.087677001953

> <r_mmod_Torsional_Energy-OPLS-2005>
286.156616210938

> <r_mmod_Improper_Torsional_Energy-OPLS-2005>
2.94581365585327

> <r_mmod_Van_der_Waal_Energy-OPLS-2005>
155.977493286133

> <r_mmod_Electrostatic_Energy-OPLS-2005>
-433.378082275391

> <r_mmod_Solvation_Energy-OPLS-2005>
-282.807678222656

> <b_mmod_Minimization_Converged-OPLS-2005>
0

> <r_mmod_RMS_Derivative-OPLS-2005>
3.26379799842834

$$$$
28
                    3D
 Structure written by MMmdl.
208216  0  0  1  0            999 V2000
  -30.7447  -14.3582   20.6855 C   0  0  0  0  0  0
  -30.4173  -12.2868   19.3773 C   0  0  0  0  0  0
  -29.4794  -12.5307   18.1808 C   0  0  0  0  0  0
  -28.0027  -12.3857   18.5993 C   0  0  0  0  0  0
  -27.6659  -13.1979   19.8786 C   0  0  2  0  0  0
  -28.7073  -12.9229   20.9855 C   0  0  0  0  0  0
  -25.2621  -13.8154   20.5676 C   0  0  0  0  0  0
  -24.1860  -13.0448   20.9171 C   0  0  0  0  0  0
  -24.6393  -11.6904   20.8726 C   0  0  0  0  0  0
  -23.9053  -10.4292   21.0402 C   0  0  0  0  0  0
  -24.3614   -9.4201   21.9176 C   0  0  0  0  0  0
  -23.6284   -8.2241   22.0750 C   0  0  0  0  0  0
  -22.4274   -8.0279   21.3541 C   0  0  0  0  0  0
  -21.9902   -9.0254   20.4651 C   0  0  0  0  0  0
  -22.7226  -10.2133   20.3055 C   0  0  0  0  0  0
  -21.6851   -6.0735   22.5275 C   0  0  0  0  0  0
  -21.4024   -6.5641   23.8210 C   0  0  0  0  0  0
  -21.3662   -5.6798   24.9177 C   0  0  0  0  0  0
  -21.6038   -4.3057   24.7229 C   0  0  0  0  0  0
  -21.8818   -3.8151   23.4349 C   0  0  0  0  0  0
  -21.9192   -4.6964   22.3403 C   0  0  0  0  0  0
  -22.7880  -13.5255   21.1827 C   0  0  0  0  0  0
  -22.1659   -4.2146   21.0977 F   0  0  0  0  0  0
  -21.5624   -3.4536   25.7740 F   0  0  0  0  0  0
  -30.0426  -13.2234   20.4431 N   0  0  0  0  0  0
  -26.3048  -12.9304   20.3393 N   0  0  0  0  0  0
  -25.9317  -11.6470   20.5757 N   0  0  0  0  0  0
  -22.0517  -12.8239   22.0383 N   0  0  0  0  0  0
  -25.4362  -15.1864   20.4086 N   0  0  0  0  0  0
  -31.7794  -14.6374   20.0701 O   0  0  0  0  0  0
  -21.6640   -6.8880   21.4240 O   0  0  0  0  0  0
  -22.3564  -14.5566   20.6683 O   0  0  0  0  0  0
  -24.6128  -31.8637   23.2023 C   0  0  0  0  0  0
  -25.8988  -32.4806   23.8320 C   0  0  1  0  0  0
  -27.2241  -27.4414   20.1273 C   0  0  0  0  0  0
  -25.5784  -33.8605   24.2241 N   0  0  0  0  0  0
  -23.3989  -30.4795   21.5483 C   0  0  2  0  0  0
  -24.8472  -28.9559   20.1049 C   0  0  0  0  0  0
  -22.7424  -29.4571   22.5048 C   0  0  0  0  0  0
  -18.0217  -28.1348   22.8449 C   0  0  0  0  0  0
  -24.1478  -36.7410   23.2640 C   0  0  0  0  0  0
  -25.9244  -30.8455   21.3342 C   0  0  0  0  0  0
  -26.0069  -29.4771   20.6959 C   0  0  0  0  0  0
  -27.2000  -28.7289   20.7019 C   0  0  0  0  0  0
  -26.0601  -26.9405   19.5074 C   0  0  0  0  0  0
  -24.8712  -27.6907   19.4966 C   0  0  0  0  0  0
  -23.5989  -29.8001   20.1661 C   0  0  0  0  0  0
  -25.4089  -36.3114   24.0304 C   0  0  1  0  0  0
  -20.5802  -28.3592   23.1355 C   0  0  2  0  0  0
  -20.6701  -26.9318   22.5454 C   0  0  0  0  0  0
  -19.5668  -26.6321   21.5237 C   0  0  0  0  0  0
  -18.1840  -26.7874   22.1658 C   0  0  0  0  0  0
  -19.1468  -28.8772   23.2883 C   0  0  0  0  0  0
  -18.9400  -30.1364   23.8917 C   0  0  0  0  0  0
  -17.6410  -30.6546   24.0508 C   0  0  0  0  0  0
  -25.8991  -34.9480   23.5091 C   0  0  0  0  0  0
  -16.5289  -29.9073   23.6259 C   0  0  0  0  0  0
  -16.7208  -28.6478   23.0293 C   0  0  0  0  0  0
  -26.4351  -31.6594   25.0676 C   0  0  0  0  0  0
  -25.3551  -31.3849   26.1392 C   0  0  0  0  0  0
  -27.0131  -30.3009   24.6068 C   0  0  0  0  0  0
  -27.5906  -32.4304   25.7473 C   0  0  0  0  0  0
  -27.5560  -37.1901   24.8459 C   0  0  0  0  0  0
  -21.4134  -29.2951   22.3819 N   0  0  0  0  0  0
  -26.4308  -37.3768   23.9333 N   0  0  0  0  0  0
  -24.6674  -31.0749   22.0925 N   0  0  0  0  0  0
  -23.4234  -28.8064   23.3020 O   0  0  0  0  0  0
  -28.3471  -26.6653   20.2581 O   0  0  0  0  0  0
  -26.5618  -34.8912   22.4701 O   0  0  0  0  0  0
  -23.5322  -32.1313   23.7470 O   0  0  0  0  0  0
  -29.7480  -18.6296   24.6611 C   0  0  0  0  0  0
  -29.9534  -19.6374   25.3124 C   0  0  0  0  0  0
  -21.6658  -20.9980   22.3612 C   0  0  0  0  0  0
  -24.2369  -22.1265   23.9528 C   0  0  0  0  0  0
  -27.2412  -24.0790   22.9468 C   0  0  0  0  0  0
  -24.0777  -18.7467   22.4316 C   0  0  0  0  0  0
  -22.7387  -18.8494   23.1460 C   0  0  0  0  0  0
  -24.9090  -19.8960   23.0070 C   0  0  0  0  0  0
  -22.5694  -20.3507   23.4394 C   0  0  1  0  0  0
  -33.9944  -16.3556   25.6910 C   0  0  0  0  0  0
  -30.7886  -17.6991   20.9483 C   0  0  0  0  0  0
  -19.3963  -21.4493   21.4950 C   0  0  0  0  0  0
  -19.6652  -20.6253   23.8040 C   0  0  0  0  0  0
  -29.6183  -17.4154   23.8419 C   0  0  0  0  0  0
  -30.2318  -15.3198   21.7725 C   0  0  0  0  0  0
  -27.3973  -25.4431   22.2578 C   0  0  0  0  0  0
  -33.2372  -16.9435   24.4929 C   0  0  0  0  0  0
  -27.7179  -21.3054   26.7049 C   0  0  0  0  0  0
  -27.3297  -22.7370   26.2959 C   0  0  0  0  0  0
  -29.1826  -21.1491   27.1767 C   0  0  0  0  0  0
  -25.8920  -22.8403   25.7597 C   0  0  0  0  0  0
  -31.8161  -16.3694   24.3730 C   0  0  0  0  0  0
  -28.1202  -25.3781   20.8790 C   0  0  0  0  0  0
  -30.2264  -20.8662   26.0768 C   0  0  2  0  0  0
  -25.6969  -22.5594   24.2399 C   0  0  2  0  0  0
  -31.0934  -16.5948   21.9865 C   0  0  2  0  0  0
  -23.9446  -20.8872   23.4874 N   0  0  0  0  0  0
  -26.0377  -23.7548   23.4490 N   0  0  0  0  0  0
  -20.3243  -21.0347   22.5573 N   0  0  0  0  0  0
  -30.9972  -17.1210   23.3775 N   0  3  1  0  0  0
  -22.1897  -21.4052   21.3186 O   0  0  0  0  0  0
  -23.3420  -22.9371   24.2119 O   0  0  0  0  0  0
  -28.2176  -23.3304   23.0461 O   0  0  0  0  0  0
  -30.3748  -21.9765   25.2131 O   0  0  0  0  0  0
  -31.4597  -12.3924   19.0704 H   0  0  0  0  0  0
  -30.3171  -11.2617   19.7363 H   0  0  0  0  0  0
  -29.7095  -11.8359   17.3726 H   0  0  0  0  0  0
  -29.6482  -13.5328   17.7822 H   0  0  0  0  0  0
  -27.8026  -11.3264   18.7668 H   0  0  0  0  0  0
  -27.3490  -12.6905   17.7811 H   0  0  0  0  0  0
  -27.7284  -14.2543   19.6161 H   0  0  0  0  0  0
  -28.6720  -11.8735   21.2813 H   0  0  0  0  0  0
  -28.4608  -13.4779   21.8897 H   0  0  0  0  0  0
  -25.2766   -9.5668   22.4736 H   0  0  0  0  0  0
  -23.9994   -7.4631   22.7459 H   0  0  0  0  0  0
  -21.0835   -8.8768   19.8955 H   0  0  0  0  0  0
  -22.3679  -10.9676   19.6164 H   0  0  0  0  0  0
  -21.2031   -7.6149   23.9716 H   0  0  0  0  0  0
  -21.1483   -6.0527   25.9074 H   0  0  0  0  0  0
  -22.0599   -2.7616   23.2848 H   0  0  0  0  0  0
  -22.4135  -11.9899   22.4780 H   0  0  0  0  0  0
  -21.1132  -13.1257   22.2579 H   0  0  0  0  0  0
  -24.6686  -15.8405   20.5069 H   0  0  0  0  0  0
  -26.2889  -15.6225   20.0817 H   0  0  0  0  0  0
  -26.7119  -32.5478   23.1166 H   0  0  0  0  0  0
  -24.9810  -33.9758   25.0300 H   0  0  0  0  0  0
  -22.6815  -31.2864   21.4038 H   0  0  0  0  0  0
  -23.3628  -35.9878   23.3423 H   0  0  0  0  0  0
  -24.3545  -36.8908   22.2029 H   0  0  0  0  0  0
  -23.7391  -37.6723   23.6579 H   0  0  0  0  0  0
  -25.9864  -31.5879   20.5371 H   0  0  0  0  0  0
  -26.8398  -30.9425   21.9070 H   0  0  0  0  0  0
  -28.0864  -29.1161   21.1845 H   0  0  0  0  0  0
  -26.0614  -25.9614   19.0539 H   0  0  0  0  0  0
  -23.9824  -27.2863   19.0365 H   0  0  0  0  0  0
  -23.6633  -30.5507   19.3783 H   0  0  0  0  0  0
  -22.7387  -29.1800   19.9119 H   0  0  0  0  0  0
  -25.1320  -36.2003   25.0810 H   0  0  0  0  0  0
  -20.9833  -28.3087   24.1505 H   0  0  0  0  0  0
  -20.5485  -26.2201   23.3642 H   0  0  0  0  0  0
  -21.6583  -26.7267   22.1292 H   0  0  0  0  0  0
  -19.6776  -25.6237   21.1228 H   0  0  0  0  0  0
  -19.6599  -27.3175   20.6803 H   0  0  0  0  0  0
  -17.4123  -26.6489   21.4098 H   0  0  0  0  0  0
  -18.0235  -26.0084   22.9131 H   0  0  0  0  0  0
  -19.7842  -30.7121   24.2413 H   0  0  0  0  0  0
  -17.4942  -31.6248   24.5104 H   0  0  0  0  0  0
  -15.5278  -30.3006   23.7552 H   0  0  0  0  0  0
  -15.8580  -28.0824   22.7034 H   0  0  0  0  0  0
  -24.5682  -30.7234   25.7770 H   0  0  0  0  0  0
  -24.8782  -32.3099   26.4643 H   0  0  0  0  0  0
  -25.7782  -30.9134   27.0278 H   0  0  0  0  0  0
  -26.2737  -29.6893   24.0906 H   0  0  0  0  0  0
  -27.3638  -29.7084   25.4538 H   0  0  0  0  0  0
  -27.8640  -30.4313   23.9382 H   0  0  0  0  0  0
  -27.2493  -33.3614   26.2021 H   0  0  0  0  0  0
  -28.3721  -32.6893   25.0322 H   0  0  0  0  0  0
  -28.0528  -31.8431   26.5401 H   0  0  0  0  0  0
  -28.2732  -38.0049   24.7281 H   0  0  0  0  0  0
  -28.0882  -36.2590   24.6564 H   0  0  0  0  0  0
  -27.2224  -37.1899   25.8846 H   0  0  0  0  0  0
  -20.9280  -29.8851   21.7221 H   0  0  0  0  0  0
  -26.0187  -38.2891   24.1140 H   0  0  0  0  0  0
  -23.9254  -18.9270   21.3646 H   0  0  0  0  0  0
  -24.5532  -17.7707   22.5420 H   0  0  0  0  0  0
  -22.7596  -18.2845   24.0779 H   0  0  0  0  0  0
  -21.9289  -18.4346   22.5423 H   0  0  0  0  0  0
  -25.5945  -20.3064   22.2633 H   0  0  0  0  0  0
  -25.4897  -19.5317   23.8569 H   0  0  0  0  0  0
  -22.1398  -20.4815   24.4323 H   0  0  0  0  0  0
  -34.9879  -16.7973   25.7794 H   0  0  0  0  0  0
  -34.1122  -15.2755   25.5947 H   0  0  0  0  0  0
  -33.4676  -16.5490   26.6277 H   0  0  0  0  0  0
  -30.9533  -17.3390   19.9325 H   0  0  0  0  0  0
  -31.4347  -18.5660   21.0876 H   0  0  0  0  0  0
  -29.7574  -18.0474   20.9960 H   0  0  0  0  0  0
  -19.8755  -22.0430   20.7146 H   0  0  0  0  0  0
  -18.5764  -22.0539   21.8885 H   0  0  0  0  0  0
  -18.9656  -20.5624   21.0242 H   0  0  0  0  0  0
  -19.9623  -21.2791   24.6271 H   0  0  0  0  0  0
  -19.9241  -19.5990   24.0695 H   0  0  0  0  0  0
  -18.5755  -20.6742   23.7366 H   0  0  0  0  0  0
  -28.9295  -17.6479   23.0297 H   0  0  0  0  0  0
  -29.1846  -16.5951   24.4166 H   0  0  0  0  0  0
  -29.2060  -15.6080   21.5418 H   0  0  0  0  0  0
  -30.1904  -14.7383   22.6929 H   0  0  0  0  0  0
  -27.9771  -26.0749   22.9285 H   0  0  0  0  0  0
  -26.4187  -25.9155   22.1710 H   0  0  0  0  0  0
  -33.7994  -16.7517   23.5782 H   0  0  0  0  0  0
  -33.1932  -18.0274   24.6074 H   0  0  0  0  0  0
  -27.4900  -20.6022   25.9042 H   0  0  0  0  0  0
  -27.0728  -21.0076   27.5359 H   0  0  0  0  0  0
  -28.0308  -23.1513   25.5785 H   0  0  0  0  0  0
  -27.4238  -23.3672   27.1840 H   0  0  0  0  0  0
  -29.2100  -20.3107   27.8766 H   0  0  0  0  0  0
  -29.4827  -22.0163   27.7668 H   0  0  0  0  0  0
  -25.5080  -23.8372   25.9864 H   0  0  0  0  0  0
  -25.2666  -22.1618   26.3447 H   0  0  0  0  0  0
  -31.3479  -16.4259   25.3577 H   0  0  0  0  0  0
  -31.8528  -15.3052   24.1367 H   0  0  0  0  0  0
  -27.5819  -24.7218   20.1970 H   0  0  0  0  0  0
  -29.0927  -24.9023   21.0118 H   0  0  0  0  0  0
  -31.1967  -20.6982   26.5464 H   0  0  0  0  0  0
  -26.3737  -21.7516   23.9661 H   0  0  0  0  0  0
  -32.1444  -16.3388   21.8488 H   0  0  0  0  0  0
  -25.2541  -24.3636   23.2446 H   0  0  0  0  0  0
  -31.4312  -18.0314   23.3370 H   0  0  0  0  0  0
  -29.5226  -22.1743   24.8323 H   0  0  0  0  0  0
  1 25  1  0  0  0
  1 30  2  0  0  0
  1 85  1  0  0  0
  2  3  1  0  0  0
  2 25  1  0  0  0
  2105  1  0  0  0
  2106  1  0  0  0
  3  4  1  0  0  0
  3107  1  0  0  0
  3108  1  0  0  0
  4  5  1  0  0  0
  4109  1  0  0  0
  4110  1  0  0  0
  5  6  1  0  0  0
  5 26  1  0  0  0
  5111  1  0  0  0
  6 25  1  0  0  0
  6112  1  0  0  0
  6113  1  0  0  0
  7  8  2  0  0  0
  7 26  1  0  0  0
  7 29  1  0  0  0
  8  9  1  0  0  0
  8 22  1  0  0  0
  9 10  1  0  0  0
  9 27  2  0  0  0
 10 11  2  0  0  0
 10 15  1  0  0  0
 11 12  1  0  0  0
 11114  1  0  0  0
 12 13  2  0  0  0
 12115  1  0  0  0
 13 14  1  0  0  0
 13 31  1  0  0  0
 14 15  2  0  0  0
 14116  1  0  0  0
 15117  1  0  0  0
 16 17  2  0  0  0
 16 21  1  0  0  0
 16 31  1  0  0  0
 17 18  1  0  0  0
 17118  1  0  0  0
 18 19  2  0  0  0
 18119  1  0  0  0
 19 20  1  0  0  0
 19 24  1  0  0  0
 20 21  2  0  0  0
 20120  1  0  0  0
 21 23  1  0  0  0
 22 28  1  0  0  0
 22 32  2  0  0  0
 26 27  1  0  0  0
 28121  1  0  0  0
 28122  1  0  0  0
 29123  1  0  0  0
 29124  1  0  0  0
 33 34  1  0  0  0
 33 66  1  0  0  0
 33 70  2  0  0  0
 34 36  1  0  0  0
 34 59  1  0  0  0
 34125  1  0  0  0
 35 44  2  0  0  0
 35 45  1  0  0  0
 35 68  1  0  0  0
 36 56  1  0  0  0
 36126  1  0  0  0
 37 39  1  0  0  0
 37 47  1  0  0  0
 37 66  1  0  0  0
 37127  1  0  0  0
 38 43  2  0  0  0
 38 46  1  0  0  0
 38 47  1  0  0  0
 39 64  1  0  0  0
 39 67  2  0  0  0
 40 52  1  0  0  0
 40 53  2  0  0  0
 40 58  1  0  0  0
 41128  1  0  0  0
 41129  1  0  0  0
 41130  1  0  0  0
 41 48  1  0  0  0
 42 43  1  0  0  0
 42 66  1  0  0  0
 42131  1  0  0  0
 42132  1  0  0  0
 43 44  1  0  0  0
 44133  1  0  0  0
 45 46  2  0  0  0
 45134  1  0  0  0
 46135  1  0  0  0
 47136  1  0  0  0
 47137  1  0  0  0
 48 56  1  0  0  0
 48 65  1  0  0  0
 48138  1  0  0  0
 49 50  1  0  0  0
 49 53  1  0  0  0
 49 64  1  0  0  0
 49139  1  0  0  0
 50 51  1  0  0  0
 50140  1  0  0  0
 50141  1  0  0  0
 51 52  1  0  0  0
 51142  1  0  0  0
 51143  1  0  0  0
 52144  1  0  0  0
 52145  1  0  0  0
 53 54  1  0  0  0
 54 55  2  0  0  0
 54146  1  0  0  0
 55 57  1  0  0  0
 55147  1  0  0  0
 56 69  2  0  0  0
 57 58  2  0  0  0
 57148  1  0  0  0
 58149  1  0  0  0
 59 60  1  0  0  0
 59 61  1  0  0  0
 59 62  1  0  0  0
 60150  1  0  0  0
 60151  1  0  0  0
 60152  1  0  0  0
 61153  1  0  0  0
 61154  1  0  0  0
 61155  1  0  0  0
 62156  1  0  0  0
 62157  1  0  0  0
 62158  1  0  0  0
 63 65  1  0  0  0
 63159  1  0  0  0
 63160  1  0  0  0
 63161  1  0  0  0
 64162  1  0  0  0
 65163  1  0  0  0
 68 93  1  0  0  0
 71 72  3  0  0  0
 71 84  1  0  0  0
 72 94  1  0  0  0
 73 99  1  0  0  0
 73101  2  0  0  0
 73 79  1  0  0  0
 74 95  1  0  0  0
 74 97  1  0  0  0
 74102  2  0  0  0
 75 86  1  0  0  0
 75 98  1  0  0  0
 75103  2  0  0  0
 76 77  1  0  0  0
 76 78  1  0  0  0
 76164  1  0  0  0
 76165  1  0  0  0
 77 79  1  0  0  0
 77166  1  0  0  0
 77167  1  0  0  0
 78 97  1  0  0  0
 78168  1  0  0  0
 78169  1  0  0  0
 79 97  1  0  0  0
 79170  1  0  0  0
 80 87  1  0  0  0
 80171  1  0  0  0
 80172  1  0  0  0
 80173  1  0  0  0
 81174  1  0  0  0
 81175  1  0  0  0
 81176  1  0  0  0
 81 96  1  0  0  0
 82 99  1  0  0  0
 82177  1  0  0  0
 82178  1  0  0  0
 82179  1  0  0  0
 83 99  1  0  0  0
 83180  1  0  0  0
 83181  1  0  0  0
 83182  1  0  0  0
 84183  1  0  0  0
 84184  1  0  0  0
 84100  1  0  0  0
 85 96  1  0  0  0
 85185  1  0  0  0
 85186  1  0  0  0
 86 93  1  0  0  0
 86187  1  0  0  0
 86188  1  0  0  0
 87 92  1  0  0  0
 87189  1  0  0  0
 87190  1  0  0  0
 88 89  1  0  0  0
 88 90  1  0  0  0
 88191  1  0  0  0
 88192  1  0  0  0
 89 91  1  0  0  0
 89193  1  0  0  0
 89194  1  0  0  0
 90 94  1  0  0  0
 90195  1  0  0  0
 90196  1  0  0  0
 91197  1  0  0  0
 91198  1  0  0  0
 91 95  1  0  0  0
 92100  1  0  0  0
 92199  1  0  0  0
 92200  1  0  0  0
 93201  1  0  0  0
 93202  1  0  0  0
 94104  1  0  0  0
 94203  1  0  0  0
 95 98  1  0  0  0
 95204  1  0  0  0
 96100  1  0  0  0
 96205  1  0  0  0
 98206  1  0  0  0
100207  1  0  0  0
104208  1  0  0  0
M  CHG  1 100   1
M  ISO  4   1 100  68 101  85 100  93 101
M  END
> <chiral flag>
0

> <version>
0

> <s_m_source_file>
/data/baiqing/PycharmProjects/Reinvent-master-3.2/result/LINK_invent/BTK/process_docking_weight1_custom_sum_contain_oxygen_bond_distance_aromatic_linkinvent_7_9_3/rearranged_h_0004.sdf

> <i_m_source_file_index>
29

> <r_mmod_Potential_Energy-OPLS-2005>
-213.036392211914

> <r_mmod_Stretch_Energy-OPLS-2005>
44.5672721862793

> <r_mmod_Bend_Energy-OPLS-2005>
133.936050415039

> <r_mmod_Torsional_Energy-OPLS-2005>
256.682647705078

> <r_mmod_Improper_Torsional_Energy-OPLS-2005>
2.60368204116821

> <r_mmod_Van_der_Waal_Energy-OPLS-2005>
130.507827758789

> <r_mmod_Electrostatic_Energy-OPLS-2005>
-320.838470458984

> <r_mmod_Solvation_Energy-OPLS-2005>
-474.479919433594

> <b_mmod_Minimization_Converged-OPLS-2005>
0

> <r_mmod_RMS_Derivative-OPLS-2005>
6.93088912963867

$$$$
29
                    3D
 Structure written by MMmdl.
163171  0  0  1  0            999 V2000
  -30.7113  -14.3708   20.5362 C   0  0  0  0  0  0
  -30.4444  -12.2433   19.3635 C   0  0  0  0  0  0
  -29.4893  -12.4844   18.1772 C   0  0  0  0  0  0
  -28.0164  -12.3350   18.6128 C   0  0  0  0  0  0
  -27.6688  -13.1759   19.8689 C   0  0  2  0  0  0
  -28.7239  -12.9311   20.9721 C   0  0  0  0  0  0
  -25.2667  -13.8083   20.5662 C   0  0  0  0  0  0
  -24.1889  -13.0381   20.9161 C   0  0  0  0  0  0
  -24.6422  -11.6844   20.8711 C   0  0  0  0  0  0
  -23.9089  -10.4262   21.0385 C   0  0  0  0  0  0
  -24.3618   -9.4178   21.9165 C   0  0  0  0  0  0
  -23.6270   -8.2232   22.0736 C   0  0  0  0  0  0
  -22.4262   -8.0265   21.3533 C   0  0  0  0  0  0
  -21.9912   -9.0251   20.4652 C   0  0  0  0  0  0
  -22.7262  -10.2115   20.3042 C   0  0  0  0  0  0
  -21.6857   -6.0704   22.5288 C   0  0  0  0  0  0
  -21.4025   -6.5618   23.8221 C   0  0  0  0  0  0
  -21.3660   -5.6775   24.9190 C   0  0  0  0  0  0
  -21.6037   -4.3032   24.7246 C   0  0  0  0  0  0
  -21.8830   -3.8118   23.4374 C   0  0  0  0  0  0
  -21.9219   -4.6932   22.3428 C   0  0  0  0  0  0
  -22.7928  -13.5173   21.1889 C   0  0  0  0  0  0
  -22.1662   -4.2109   21.0997 F   0  0  0  0  0  0
  -21.5668   -3.4528   25.7768 F   0  0  0  0  0  0
  -30.0584  -13.1974   20.4010 N   0  0  0  0  0  0
  -26.3085  -12.9179   20.3355 N   0  0  0  0  0  0
  -25.9327  -11.6364   20.5733 N   0  0  0  0  0  0
  -22.0624  -12.8088   22.0432 N   0  0  0  0  0  0
  -25.4410  -15.1806   20.4120 N   0  0  0  0  0  0
  -31.8936  -14.5686   20.2506 O   0  0  0  0  0  0
  -21.6631   -6.8847   21.4234 O   0  0  0  0  0  0
  -22.3566  -14.5484   20.6807 O   0  0  0  0  0  0
  -24.6121  -31.8795   23.2112 C   0  0  0  0  0  0
  -25.9024  -32.4867   23.8409 C   0  0  1  0  0  0
  -27.2250  -27.4673   20.0742 C   0  0  0  0  0  0
  -25.5892  -33.8669   24.2348 N   0  0  0  0  0  0
  -23.4025  -30.5083   21.5496 C   0  0  2  0  0  0
  -24.8482  -28.9881   20.1134 C   0  0  0  0  0  0
  -22.7399  -29.4795   22.4945 C   0  0  0  0  0  0
  -18.0329  -28.1555   22.8638 C   0  0  0  0  0  0
  -24.1506  -36.7335   23.2644 C   0  0  0  0  0  0
  -25.9354  -30.8359   21.3897 C   0  0  0  0  0  0
  -26.0045  -29.4778   20.7358 C   0  0  0  0  0  0
  -27.1950  -28.7153   20.7320 C   0  0  0  0  0  0
  -26.0692  -27.0496   19.3766 C   0  0  0  0  0  0
  -24.8721  -27.7667   19.4368 C   0  0  0  0  0  0
  -23.6128  -29.8494   20.1624 C   0  0  0  0  0  0
  -25.4139  -36.3162   24.0326 C   0  0  1  0  0  0
  -20.5886  -28.3915   23.1440 C   0  0  2  0  0  0
  -20.6769  -26.9588   22.5676 C   0  0  0  0  0  0
  -19.5840  -26.6612   21.5363 C   0  0  0  0  0  0
  -18.1989  -26.8109   22.1787 C   0  0  0  0  0  0
  -19.1544  -28.9078   23.2975 C   0  0  0  0  0  0
  -18.9465  -30.1745   23.8834 C   0  0  0  0  0  0
  -17.6448  -30.6864   24.0477 C   0  0  0  0  0  0
  -25.9046  -34.9515   23.5138 C   0  0  0  0  0  0
  -16.5355  -29.9271   23.6379 C   0  0  0  0  0  0
  -16.7321  -28.6637   23.0494 C   0  0  0  0  0  0
  -26.4446  -31.6604   25.0699 C   0  0  0  0  0  0
  -25.3670  -31.3675   26.1388 C   0  0  0  0  0  0
  -27.0300  -30.3056   24.6097 C   0  0  0  0  0  0
  -27.6094  -32.4285   25.7403 C   0  0  0  0  0  0
  -27.5605  -37.1828   24.8453 C   0  0  0  0  0  0
  -21.4107  -29.3271   22.3759 N   0  0  0  0  0  0
  -26.4354  -37.3824   23.9354 N   0  0  0  0  0  0
  -24.6660  -31.0910   22.1051 N   0  0  0  0  0  0
  -23.4185  -28.8250   23.2921 O   0  0  0  0  0  0
  -28.3804  -26.7186   20.0476 O   0  0  0  0  0  0
  -26.5638  -34.8939   22.4715 O   0  0  0  0  0  0
  -23.5289  -32.1599   23.7440 O   0  0  0  0  0  0
  -29.3167  -17.2772   23.6363 C   0  0  0  0  0  0
  -28.8788  -18.5036   23.0874 C   0  0  0  0  0  0
  -29.6856  -16.2118   22.7863 C   0  0  0  0  0  0
  -29.1628  -17.5858   20.8473 C   0  0  0  0  0  0
  -28.8096  -18.6449   21.6853 C   0  0  0  0  0  0
  -29.6078  -16.3831   21.3876 C   0  0  0  0  0  0
  -28.3957  -19.8991   21.0047 C   0  0  0  0  0  0
  -26.0358  -19.3407   21.5019 C   0  0  0  0  0  0
  -27.3998  -22.9961   20.3352 C   0  0  0  0  0  0
  -26.2337  -22.1785   19.7510 C   0  0  0  0  0  0
  -27.2647  -24.4665   20.0225 C   0  0  0  0  0  0
  -26.6060  -20.7088   19.5120 C   0  0  0  0  0  0
  -28.3232  -25.4082   20.6355 C   0  0  0  0  0  0
  -29.8633  -15.3828   20.4483 N   0  0  0  0  0  0
  -27.0750  -20.0248   20.7260 N   0  0  0  0  0  0
  -29.2834  -20.6109   20.5301 O   0  0  0  0  0  0
  -31.4817  -12.3649   19.0451 H   0  0  0  0  0  0
  -30.3595  -11.2234   19.7397 H   0  0  0  0  0  0
  -29.7167  -11.7943   17.3631 H   0  0  0  0  0  0
  -29.6452  -13.4851   17.7725 H   0  0  0  0  0  0
  -27.8478  -11.2781   18.8227 H   0  0  0  0  0  0
  -27.3488  -12.5869   17.7891 H   0  0  0  0  0  0
  -27.7055  -14.2237   19.5712 H   0  0  0  0  0  0
  -28.6777  -11.8999   21.3269 H   0  0  0  0  0  0
  -28.5295  -13.5613   21.8379 H   0  0  0  0  0  0
  -25.2786   -9.5625   22.4692 H   0  0  0  0  0  0
  -24.0017   -7.4606   22.7407 H   0  0  0  0  0  0
  -21.0880   -8.8765   19.8917 H   0  0  0  0  0  0
  -22.3763  -10.9630   19.6120 H   0  0  0  0  0  0
  -21.1975   -7.6123   23.9711 H   0  0  0  0  0  0
  -21.1471   -6.0506   25.9095 H   0  0  0  0  0  0
  -22.0607   -2.7570   23.2906 H   0  0  0  0  0  0
  -22.4296  -11.9688   22.4684 H   0  0  0  0  0  0
  -21.1258  -13.1029   22.2764 H   0  0  0  0  0  0
  -24.6761  -15.8371   20.5287 H   0  0  0  0  0  0
  -26.3165  -15.6288   20.1668 H   0  0  0  0  0  0
  -26.7102  -32.5644   23.1192 H   0  0  0  0  0  0
  -24.9865  -33.9823   25.0363 H   0  0  0  0  0  0
  -22.6927  -31.3269   21.4049 H   0  0  0  0  0  0
  -23.3770  -35.9671   23.3344 H   0  0  0  0  0  0
  -24.3565  -36.8910   22.2044 H   0  0  0  0  0  0
  -23.7253  -37.6551   23.6618 H   0  0  0  0  0  0
  -26.0814  -31.6010   20.6271 H   0  0  0  0  0  0
  -26.8132  -30.8701   22.0223 H   0  0  0  0  0  0
  -28.0847  -29.0759   21.2312 H   0  0  0  0  0  0
  -26.0689  -26.1825   18.7424 H   0  0  0  0  0  0
  -23.9992  -27.4091   18.9066 H   0  0  0  0  0  0
  -23.7298  -30.6222   19.4042 H   0  0  0  0  0  0
  -22.7447  -29.2626   19.8586 H   0  0  0  0  0  0
  -25.1336  -36.2058   25.0826 H   0  0  0  0  0  0
  -20.9969  -28.3688   24.1570 H   0  0  0  0  0  0
  -20.5487  -26.2562   23.3928 H   0  0  0  0  0  0
  -21.6668  -26.7565   22.1540 H   0  0  0  0  0  0
  -19.6886  -27.3539   20.6987 H   0  0  0  0  0  0
  -19.7074  -25.6533   21.1374 H   0  0  0  0  0  0
  -17.4199  -26.6800   21.4243 H   0  0  0  0  0  0
  -18.0542  -26.0384   22.9368 H   0  0  0  0  0  0
  -19.7962  -30.7665   24.1973 H   0  0  0  0  0  0
  -17.5038  -31.6720   24.4750 H   0  0  0  0  0  0
  -15.5319  -30.3151   23.7529 H   0  0  0  0  0  0
  -15.8778  -28.0893   22.7239 H   0  0  0  0  0  0
  -24.5846  -30.7089   25.7575 H   0  0  0  0  0  0
  -24.8854  -32.2814   26.4868 H   0  0  0  0  0  0
  -25.7952  -30.8715   27.0107 H   0  0  0  0  0  0
  -26.2847  -29.6780   24.1208 H   0  0  0  0  0  0
  -27.4116  -29.7340   25.4565 H   0  0  0  0  0  0
  -27.8661  -30.4353   23.9233 H   0  0  0  0  0  0
  -27.2793  -33.3570   26.2060 H   0  0  0  0  0  0
  -28.3803  -32.6864   25.0127 H   0  0  0  0  0  0
  -28.0860  -31.8343   26.5199 H   0  0  0  0  0  0
  -28.2684  -38.0082   24.7519 H   0  0  0  0  0  0
  -28.1068  -36.2627   24.6322 H   0  0  0  0  0  0
  -27.2272  -37.1497   25.8846 H   0  0  0  0  0  0
  -20.9239  -29.9163   21.7151 H   0  0  0  0  0  0
  -26.0271  -38.2935   24.1302 H   0  0  0  0  0  0
  -29.3649  -17.1528   24.7077 H   0  0  0  0  0  0
  -28.5991  -19.3227   23.7391 H   0  0  0  0  0  0
  -29.9959  -15.2672   23.2102 H   0  0  0  0  0  0
  -29.0994  -17.7104   19.7749 H   0  0  0  0  0  0
  -26.1498  -19.5698   22.5627 H   0  0  0  0  0  0
  -26.1002  -18.2580   21.3704 H   0  0  0  0  0  0
  -25.0293  -19.6447   21.2177 H   0  0  0  0  0  0
  -28.3403  -22.6905   19.8890 H   0  0  0  0  0  0
  -27.4609  -22.8316   21.4123 H   0  0  0  0  0  0
  -25.9013  -22.6084   18.8021 H   0  0  0  0  0  0
  -25.3678  -22.2459   20.4114 H   0  0  0  0  0  0
  -26.2667  -24.7556   20.3573 H   0  0  0  0  0  0
  -27.3201  -24.5441   18.9361 H   0  0  0  0  0  0
  -27.3694  -20.6460   18.7300 H   0  0  0  0  0  0
  -25.7482  -20.1737   19.1008 H   0  0  0  0  0  0
  -28.1704  -25.4999   21.7145 H   0  0  0  0  0  0
  -29.3137  -24.9687   20.5007 H   0  0  0  0  0  0
  -29.2763  -15.3789   19.6284 H   0  0  0  0  0  0
  1 25  1  0  0  0
  1 30  2  0  0  0
  1 84  1  0  0  0
  2  3  1  0  0  0
  2 25  1  0  0  0
  2 87  1  0  0  0
  2 88  1  0  0  0
  3  4  1  0  0  0
  3 89  1  0  0  0
  3 90  1  0  0  0
  4  5  1  0  0  0
  4 91  1  0  0  0
  4 92  1  0  0  0
  5  6  1  0  0  0
  5 26  1  0  0  0
  5 93  1  0  0  0
  6 25  1  0  0  0
  6 94  1  0  0  0
  6 95  1  0  0  0
  7  8  2  0  0  0
  7 26  1  0  0  0
  7 29  1  0  0  0
  8  9  1  0  0  0
  8 22  1  0  0  0
  9 10  1  0  0  0
  9 27  2  0  0  0
 10 11  2  0  0  0
 10 15  1  0  0  0
 11 12  1  0  0  0
 11 96  1  0  0  0
 12 13  2  0  0  0
 12 97  1  0  0  0
 13 14  1  0  0  0
 13 31  1  0  0  0
 14 15  2  0  0  0
 14 98  1  0  0  0
 15 99  1  0  0  0
 16 17  2  0  0  0
 16 21  1  0  0  0
 16 31  1  0  0  0
 17 18  1  0  0  0
 17100  1  0  0  0
 18 19  2  0  0  0
 18101  1  0  0  0
 19 20  1  0  0  0
 19 24  1  0  0  0
 20 21  2  0  0  0
 20102  1  0  0  0
 21 23  1  0  0  0
 22 28  1  0  0  0
 22 32  2  0  0  0
 26 27  1  0  0  0
 28103  1  0  0  0
 28104  1  0  0  0
 29105  1  0  0  0
 29106  1  0  0  0
 33 34  1  0  0  0
 33 66  1  0  0  0
 33 70  2  0  0  0
 34 36  1  0  0  0
 34 59  1  0  0  0
 34107  1  0  0  0
 35 44  2  0  0  0
 35 45  1  0  0  0
 35 68  1  0  0  0
 36 56  1  0  0  0
 36108  1  0  0  0
 37 39  1  0  0  0
 37 47  1  0  0  0
 37 66  1  0  0  0
 37109  1  0  0  0
 38 43  2  0  0  0
 38 46  1  0  0  0
 38 47  1  0  0  0
 39 64  1  0  0  0
 39 67  2  0  0  0
 40 52  1  0  0  0
 40 53  2  0  0  0
 40 58  1  0  0  0
 41110  1  0  0  0
 41111  1  0  0  0
 41112  1  0  0  0
 41 48  1  0  0  0
 42 43  1  0  0  0
 42 66  1  0  0  0
 42113  1  0  0  0
 42114  1  0  0  0
 43 44  1  0  0  0
 44115  1  0  0  0
 45 46  2  0  0  0
 45116  1  0  0  0
 46117  1  0  0  0
 47118  1  0  0  0
 47119  1  0  0  0
 48 56  1  0  0  0
 48 65  1  0  0  0
 48120  1  0  0  0
 49 50  1  0  0  0
 49 53  1  0  0  0
 49 64  1  0  0  0
 49121  1  0  0  0
 50 51  1  0  0  0
 50122  1  0  0  0
 50123  1  0  0  0
 51 52  1  0  0  0
 51124  1  0  0  0
 51125  1  0  0  0
 52126  1  0  0  0
 52127  1  0  0  0
 53 54  1  0  0  0
 54 55  2  0  0  0
 54128  1  0  0  0
 55 57  1  0  0  0
 55129  1  0  0  0
 56 69  2  0  0  0
 57 58  2  0  0  0
 57130  1  0  0  0
 58131  1  0  0  0
 59 60  1  0  0  0
 59 61  1  0  0  0
 59 62  1  0  0  0
 60132  1  0  0  0
 60133  1  0  0  0
 60134  1  0  0  0
 61135  1  0  0  0
 61136  1  0  0  0
 61137  1  0  0  0
 62138  1  0  0  0
 62139  1  0  0  0
 62140  1  0  0  0
 63 65  1  0  0  0
 63141  1  0  0  0
 63142  1  0  0  0
 63143  1  0  0  0
 64144  1  0  0  0
 65145  1  0  0  0
 68 83  1  0  0  0
 71 72  2  0  0  0
 71 73  1  0  0  0
 71146  1  0  0  0
 72 75  1  0  0  0
 72147  1  0  0  0
 73 76  2  0  0  0
 73148  1  0  0  0
 74 75  2  0  0  0
 74 76  1  0  0  0
 74149  1  0  0  0
 75 77  1  0  0  0
 76 84  1  0  0  0
 77 85  1  0  0  0
 77 86  2  0  0  0
 78 85  1  0  0  0
 78150  1  0  0  0
 78151  1  0  0  0
 78152  1  0  0  0
 79 80  1  0  0  0
 79 81  1  0  0  0
 79153  1  0  0  0
 79154  1  0  0  0
 80 82  1  0  0  0
 80155  1  0  0  0
 80156  1  0  0  0
 81 83  1  0  0  0
 81157  1  0  0  0
 81158  1  0  0  0
 82 85  1  0  0  0
 82159  1  0  0  0
 82160  1  0  0  0
 83161  1  0  0  0
 83162  1  0  0  0
 84163  1  0  0  0
M  ISO  4   1 100  68 101  83 101  84 100
M  END
> <chiral flag>
0

> <version>
0

> <s_m_source_file>
/data/baiqing/PycharmProjects/Reinvent-master-3.2/result/LINK_invent/BTK/process_docking_weight1_custom_sum_contain_oxygen_bond_distance_aromatic_linkinvent_7_9_3/rearranged_h_0004.sdf

> <i_m_source_file_index>
30

> <r_mmod_Potential_Energy-OPLS-2005>
152.178451538086

> <r_mmod_Stretch_Energy-OPLS-2005>
32.2867965698242

> <r_mmod_Bend_Energy-OPLS-2005>
104.783447265625

> <r_mmod_Torsional_Energy-OPLS-2005>
356.761535644531

> <r_mmod_Improper_Torsional_Energy-OPLS-2005>
23.4535026550293

> <r_mmod_Van_der_Waal_Energy-OPLS-2005>
177.864990234375

> <r_mmod_Electrostatic_Energy-OPLS-2005>
-344.431335449219

> <r_mmod_Solvation_Energy-OPLS-2005>
-219.635848999023

> <b_mmod_Minimization_Converged-OPLS-2005>
0

> <r_mmod_RMS_Derivative-OPLS-2005>
6.08970499038696

$$$$
30
                    3D
 Structure written by MMmdl.
155163  0  0  1  0            999 V2000
  -30.6616  -14.5645   20.5163 C   0  0  0  0  0  0
  -30.4354  -12.3478   19.4404 C   0  0  0  0  0  0
  -29.5082  -12.5140   18.2170 C   0  0  0  0  0  0
  -28.0277  -12.3650   18.6252 C   0  0  0  0  0  0
  -27.6610  -13.2145   19.8718 C   0  0  2  0  0  0
  -28.7077  -13.0327   20.9974 C   0  0  0  0  0  0
  -25.2584  -13.8153   20.5661 C   0  0  0  0  0  0
  -24.1847  -13.0433   20.9181 C   0  0  0  0  0  0
  -24.6409  -11.6901   20.8746 C   0  0  0  0  0  0
  -23.9078  -10.4292   21.0417 C   0  0  0  0  0  0
  -24.3621   -9.4202   21.9192 C   0  0  0  0  0  0
  -23.6290   -8.2243   22.0756 C   0  0  0  0  0  0
  -22.4269   -8.0287   21.3560 C   0  0  0  0  0  0
  -21.9911   -9.0263   20.4656 C   0  0  0  0  0  0
  -22.7251  -10.2137   20.3065 C   0  0  0  0  0  0
  -21.6852   -6.0736   22.5276 C   0  0  0  0  0  0
  -21.4016   -6.5630   23.8214 C   0  0  0  0  0  0
  -21.3662   -5.6783   24.9173 C   0  0  0  0  0  0
  -21.6040   -4.3048   24.7218 C   0  0  0  0  0  0
  -21.8817   -3.8144   23.4337 C   0  0  0  0  0  0
  -21.9192   -4.6965   22.3397 C   0  0  0  0  0  0
  -22.7868  -13.5245   21.1829 C   0  0  0  0  0  0
  -22.1658   -4.2151   21.0976 F   0  0  0  0  0  0
  -21.5635   -3.4527   25.7730 F   0  0  0  0  0  0
  -30.0338  -13.3523   20.4395 N   0  0  0  0  0  0
  -26.3032  -12.9340   20.3352 N   0  0  0  0  0  0
  -25.9348  -11.6494   20.5774 N   0  0  0  0  0  0
  -22.0494  -12.8262   22.0389 N   0  0  0  0  0  0
  -25.4281  -15.1862   20.4017 N   0  0  0  0  0  0
  -31.8100  -14.7372   20.1009 O   0  0  0  0  0  0
  -21.6639   -6.8881   21.4243 O   0  0  0  0  0  0
  -22.3572  -14.5556   20.6680 O   0  0  0  0  0  0
  -24.6221  -31.8627   23.2064 C   0  0  0  0  0  0
  -25.9087  -32.4797   23.8387 C   0  0  1  0  0  0
  -27.2337  -27.3742   20.1102 C   0  0  0  0  0  0
  -25.5918  -33.8592   24.2319 N   0  0  0  0  0  0
  -23.4140  -30.4859   21.5468 C   0  0  2  0  0  0
  -24.8626  -28.9472   20.1132 C   0  0  0  0  0  0
  -22.7463  -29.4629   22.4954 C   0  0  0  0  0  0
  -18.0290  -28.1385   22.8482 C   0  0  0  0  0  0
  -24.1488  -36.7302   23.2633 C   0  0  0  0  0  0
  -25.9498  -30.8101   21.3696 C   0  0  0  0  0  0
  -26.0264  -29.4398   20.7170 C   0  0  0  0  0  0
  -27.2158  -28.6629   20.7090 C   0  0  0  0  0  0
  -26.0541  -26.9248   19.4738 C   0  0  0  0  0  0
  -24.8754  -27.6919   19.4841 C   0  0  0  0  0  0
  -23.6276  -29.8200   20.1615 C   0  0  0  0  0  0
  -25.4103  -36.3094   24.0338 C   0  0  1  0  0  0
  -20.5883  -28.3670   23.1297 C   0  0  2  0  0  0
  -20.6772  -26.9395   22.5413 C   0  0  0  0  0  0
  -19.5746  -26.6382   21.5211 C   0  0  0  0  0  0
  -18.1924  -26.7932   22.1624 C   0  0  0  0  0  0
  -19.1538  -28.8851   23.2888 C   0  0  0  0  0  0
  -18.9462  -30.1459   23.8893 C   0  0  0  0  0  0
  -17.6454  -30.6587   24.0568 C   0  0  0  0  0  0
  -25.9028  -34.9459   23.5125 C   0  0  0  0  0  0
  -16.5348  -29.9081   23.6330 C   0  0  0  0  0  0
  -16.7273  -28.6512   23.0330 C   0  0  0  0  0  0
  -26.4487  -31.6579   25.0732 C   0  0  0  0  0  0
  -25.3740  -31.3702   26.1483 C   0  0  0  0  0  0
  -27.0300  -30.3009   24.6126 C   0  0  0  0  0  0
  -27.6066  -32.4290   25.7491 C   0  0  0  0  0  0
  -27.5581  -37.1805   24.8462 C   0  0  0  0  0  0
  -21.4179  -29.3031   22.3707 N   0  0  0  0  0  0
  -26.4289  -37.3779   23.9410 N   0  0  0  0  0  0
  -24.6804  -31.0684   22.0990 N   0  0  0  0  0  0
  -23.4211  -28.8147   23.3002 O   0  0  0  0  0  0
  -28.3738  -26.5755   20.1251 O   0  0  0  0  0  0
  -26.5585  -34.8917   22.4685 O   0  0  0  0  0  0
  -23.5394  -32.1407   23.7414 O   0  0  0  0  0  0
  -28.7174  -17.6649   20.3139 C   0  0  0  0  0  0
  -31.1195  -17.7759   20.6022 C   0  0  0  0  0  0
  -28.6856  -19.0407   19.9692 C   0  0  0  0  0  0
  -31.0826  -19.1646   20.2870 C   0  0  0  0  0  0
  -29.9322  -16.9977   20.6084 C   0  0  0  0  0  0
  -29.8667  -19.8172   19.9586 C   0  0  0  0  0  0
  -27.6509  -22.3048   20.7135 C   0  0  0  0  0  0
  -29.2232  -24.1425   19.9769 C   0  0  0  0  0  0
  -28.2046  -25.1904   20.5649 C   0  0  0  0  0  0
  -29.8771  -15.5902   20.9365 N   0  0  0  0  0  0
  -29.0248  -22.6754   20.3266 N   0  0  0  0  0  0
  -31.2624  -22.0084   19.2240 O   0  0  0  0  0  0
  -29.0932  -21.5190   18.0224 O   0  0  0  0  0  0
  -29.8687  -21.5367   19.2735 S   0  0  0  0  0  0
  -31.4825  -12.4457   19.1448 H   0  0  0  0  0  0
  -30.3387  -11.3452   19.8577 H   0  0  0  0  0  0
  -29.7602  -11.7824   17.4486 H   0  0  0  0  0  0
  -29.6674  -13.4952   17.7659 H   0  0  0  0  0  0
  -27.8450  -11.3101   18.8330 H   0  0  0  0  0  0
  -27.3792  -12.6286   17.7885 H   0  0  0  0  0  0
  -27.6903  -14.2564   19.5531 H   0  0  0  0  0  0
  -28.6977  -12.0057   21.3654 H   0  0  0  0  0  0
  -28.4652  -13.6531   21.8620 H   0  0  0  0  0  0
  -25.2759   -9.5675   22.4775 H   0  0  0  0  0  0
  -23.9992   -7.4634   22.7479 H   0  0  0  0  0  0
  -21.0842   -8.8798   19.8968 H   0  0  0  0  0  0
  -22.3716  -10.9681   19.6181 H   0  0  0  0  0  0
  -21.2010   -7.6139   23.9708 H   0  0  0  0  0  0
  -21.1494   -6.0519   25.9075 H   0  0  0  0  0  0
  -22.0599   -2.7610   23.2835 H   0  0  0  0  0  0
  -22.4066  -11.9912   22.4800 H   0  0  0  0  0  0
  -21.1131  -13.1351   22.2585 H   0  0  0  0  0  0
  -24.6526  -15.8355   20.4761 H   0  0  0  0  0  0
  -26.2581  -15.6078   20.0079 H   0  0  0  0  0  0
  -26.7150  -32.5491   23.1134 H   0  0  0  0  0  0
  -25.0134  -33.9748   25.0512 H   0  0  0  0  0  0
  -22.7045  -31.3034   21.4040 H   0  0  0  0  0  0
  -23.3747  -35.9640   23.3301 H   0  0  0  0  0  0
  -24.3591  -36.8912   22.2049 H   0  0  0  0  0  0
  -23.7249  -37.6509   23.6646 H   0  0  0  0  0  0
  -26.0705  -31.5720   20.5979 H   0  0  0  0  0  0
  -26.8344  -30.8639   21.9921 H   0  0  0  0  0  0
  -28.1121  -29.0360   21.1847 H   0  0  0  0  0  0
  -26.0336  -25.9753   18.9571 H   0  0  0  0  0  0
  -23.9868  -27.3145   18.9963 H   0  0  0  0  0  0
  -23.7421  -30.5941   19.4008 H   0  0  0  0  0  0
  -22.7506  -29.2431   19.8639 H   0  0  0  0  0  0
  -25.1279  -36.1958   25.0832 H   0  0  0  0  0  0
  -20.9979  -28.3239   24.1417 H   0  0  0  0  0  0
  -20.5668  -26.2271   23.3604 H   0  0  0  0  0  0
  -21.6644  -26.7426   22.1211 H   0  0  0  0  0  0
  -19.6893  -25.6294   21.1242 H   0  0  0  0  0  0
  -19.6687  -27.3196   20.6742 H   0  0  0  0  0  0
  -17.4195  -26.6691   21.4025 H   0  0  0  0  0  0
  -18.0312  -26.0084   22.9029 H   0  0  0  0  0  0
  -19.7932  -30.7292   24.2245 H   0  0  0  0  0  0
  -17.5004  -31.6260   24.5175 H   0  0  0  0  0  0
  -15.5343  -30.2968   23.7655 H   0  0  0  0  0  0
  -15.8686  -28.0839   22.7007 H   0  0  0  0  0  0
  -24.5923  -30.7027   25.7843 H   0  0  0  0  0  0
  -24.8921  -32.2861   26.4916 H   0  0  0  0  0  0
  -25.8107  -30.8903   27.0251 H   0  0  0  0  0  0
  -26.2849  -29.6786   24.1164 H   0  0  0  0  0  0
  -27.4030  -29.7235   25.4590 H   0  0  0  0  0  0
  -27.8707  -30.4306   23.9307 H   0  0  0  0  0  0
  -27.2709  -33.3594   26.2084 H   0  0  0  0  0  0
  -28.3875  -32.6838   25.0314 H   0  0  0  0  0  0
  -28.0733  -31.8402   26.5399 H   0  0  0  0  0  0
  -28.2589  -38.0105   24.7512 H   0  0  0  0  0  0
  -28.1081  -36.2642   24.6276 H   0  0  0  0  0  0
  -27.2313  -37.1452   25.8867 H   0  0  0  0  0  0
  -20.9340  -29.8777   21.6949 H   0  0  0  0  0  0
  -26.0178  -38.2859   24.1405 H   0  0  0  0  0  0
  -27.7888  -17.1126   20.3093 H   0  0  0  0  0  0
  -32.0726  -17.3167   20.8259 H   0  0  0  0  0  0
  -27.7514  -19.4924   19.6709 H   0  0  0  0  0  0
  -32.0050  -19.7260   20.2470 H   0  0  0  0  0  0
  -27.2837  -22.9189   21.5357 H   0  0  0  0  0  0
  -27.6165  -21.2793   21.0749 H   0  0  0  0  0  0
  -26.9723  -22.3925   19.8629 H   0  0  0  0  0  0
  -30.2371  -24.4268   20.2603 H   0  0  0  0  0  0
  -29.1918  -24.2308   18.8899 H   0  0  0  0  0  0
  -28.2904  -25.1876   21.6528 H   0  0  0  0  0  0
  -27.1970  -24.8441   20.3536 H   0  0  0  0  0  0
  -28.9784  -15.2687   21.2606 H   0  0  0  0  0  0
  1 25  1  0  0  0
  1 30  2  0  0  0
  1 80  1  0  0  0
  2  3  1  0  0  0
  2 25  1  0  0  0
  2 85  1  0  0  0
  2 86  1  0  0  0
  3  4  1  0  0  0
  3 87  1  0  0  0
  3 88  1  0  0  0
  4  5  1  0  0  0
  4 89  1  0  0  0
  4 90  1  0  0  0
  5  6  1  0  0  0
  5 26  1  0  0  0
  5 91  1  0  0  0
  6 25  1  0  0  0
  6 92  1  0  0  0
  6 93  1  0  0  0
  7  8  2  0  0  0
  7 26  1  0  0  0
  7 29  1  0  0  0
  8  9  1  0  0  0
  8 22  1  0  0  0
  9 10  1  0  0  0
  9 27  2  0  0  0
 10 11  2  0  0  0
 10 15  1  0  0  0
 11 12  1  0  0  0
 11 94  1  0  0  0
 12 13  2  0  0  0
 12 95  1  0  0  0
 13 14  1  0  0  0
 13 31  1  0  0  0
 14 15  2  0  0  0
 14 96  1  0  0  0
 15 97  1  0  0  0
 16 17  2  0  0  0
 16 21  1  0  0  0
 16 31  1  0  0  0
 17 18  1  0  0  0
 17 98  1  0  0  0
 18 19  2  0  0  0
 18 99  1  0  0  0
 19 20  1  0  0  0
 19 24  1  0  0  0
 20 21  2  0  0  0
 20100  1  0  0  0
 21 23  1  0  0  0
 22 28  1  0  0  0
 22 32  2  0  0  0
 26 27  1  0  0  0
 28101  1  0  0  0
 28102  1  0  0  0
 29103  1  0  0  0
 29104  1  0  0  0
 33 34  1  0  0  0
 33 66  1  0  0  0
 33 70  2  0  0  0
 34 36  1  0  0  0
 34 59  1  0  0  0
 34105  1  0  0  0
 35 44  2  0  0  0
 35 45  1  0  0  0
 35 68  1  0  0  0
 36 56  1  0  0  0
 36106  1  0  0  0
 37 39  1  0  0  0
 37 47  1  0  0  0
 37 66  1  0  0  0
 37107  1  0  0  0
 38 43  2  0  0  0
 38 46  1  0  0  0
 38 47  1  0  0  0
 39 64  1  0  0  0
 39 67  2  0  0  0
 40 52  1  0  0  0
 40 53  2  0  0  0
 40 58  1  0  0  0
 41108  1  0  0  0
 41109  1  0  0  0
 41110  1  0  0  0
 41 48  1  0  0  0
 42 43  1  0  0  0
 42 66  1  0  0  0
 42111  1  0  0  0
 42112  1  0  0  0
 43 44  1  0  0  0
 44113  1  0  0  0
 45 46  2  0  0  0
 45114  1  0  0  0
 46115  1  0  0  0
 47116  1  0  0  0
 47117  1  0  0  0
 48 56  1  0  0  0
 48 65  1  0  0  0
 48118  1  0  0  0
 49 50  1  0  0  0
 49 53  1  0  0  0
 49 64  1  0  0  0
 49119  1  0  0  0
 50 51  1  0  0  0
 50120  1  0  0  0
 50121  1  0  0  0
 51 52  1  0  0  0
 51122  1  0  0  0
 51123  1  0  0  0
 52124  1  0  0  0
 52125  1  0  0  0
 53 54  1  0  0  0
 54 55  2  0  0  0
 54126  1  0  0  0
 55 57  1  0  0  0
 55127  1  0  0  0
 56 69  2  0  0  0
 57 58  2  0  0  0
 57128  1  0  0  0
 58129  1  0  0  0
 59 60  1  0  0  0
 59 61  1  0  0  0
 59 62  1  0  0  0
 60130  1  0  0  0
 60131  1  0  0  0
 60132  1  0  0  0
 61133  1  0  0  0
 61134  1  0  0  0
 61135  1  0  0  0
 62136  1  0  0  0
 62137  1  0  0  0
 62138  1  0  0  0
 63 65  1  0  0  0
 63139  1  0  0  0
 63140  1  0  0  0
 63141  1  0  0  0
 64142  1  0  0  0
 65143  1  0  0  0
 68 79  1  0  0  0
 71 73  2  0  0  0
 71 75  1  0  0  0
 71144  1  0  0  0
 72 74  1  0  0  0
 72 75  2  0  0  0
 72145  1  0  0  0
 73 76  1  0  0  0
 73146  1  0  0  0
 74 76  2  0  0  0
 74147  1  0  0  0
 75 80  1  0  0  0
 76 84  1  0  0  0
 77 81  1  0  0  0
 77148  1  0  0  0
 77149  1  0  0  0
 77150  1  0  0  0
 78 79  1  0  0  0
 78 81  1  0  0  0
 78151  1  0  0  0
 78152  1  0  0  0
 79153  1  0  0  0
 79154  1  0  0  0
 80155  1  0  0  0
 81 84  1  0  0  0
 82 84  2  0  0  0
 83 84  2  0  0  0
M  ISO  4   1 100  68 101  79 101  80 100
M  END
> <chiral flag>
0

> <version>
0

> <s_m_source_file>
/data/baiqing/PycharmProjects/Reinvent-master-3.2/result/LINK_invent/BTK/process_docking_weight1_custom_sum_contain_oxygen_bond_distance_aromatic_linkinvent_7_9_3/rearranged_h_0004.sdf

> <i_m_source_file_index>
31

> <r_mmod_Potential_Energy-OPLS-2005>
-69.4627151489258

> <r_mmod_Stretch_Energy-OPLS-2005>
59.8816566467285

> <r_mmod_Bend_Energy-OPLS-2005>
123.822731018066

> <r_mmod_Torsional_Energy-OPLS-2005>
225.051635742188

> <r_mmod_Improper_Torsional_Energy-OPLS-2005>
9.96087646484375

> <r_mmod_Van_der_Waal_Energy-OPLS-2005>
144.175872802734

> <r_mmod_Electrostatic_Energy-OPLS-2005>
-400.823394775391

> <r_mmod_Solvation_Energy-OPLS-2005>
-258.513366699219

> <b_mmod_Minimization_Converged-OPLS-2005>
0

> <r_mmod_RMS_Derivative-OPLS-2005>
1.93190133571625

$$$$
31
                    3D
 Structure written by MMmdl.
178185  0  0  1  0            999 V2000
  -30.6088  -14.6201   20.4654 C   0  0  0  0  0  0
  -30.4252  -12.3678   19.4605 C   0  0  0  0  0  0
  -29.5078  -12.5167   18.2267 C   0  0  0  0  0  0
  -28.0268  -12.3591   18.6265 C   0  0  0  0  0  0
  -27.6473  -13.2184   19.8640 C   0  0  2  0  0  0
  -28.6894  -13.0690   20.9965 C   0  0  0  0  0  0
  -25.2505  -13.8168   20.5674 C   0  0  0  0  0  0
  -24.1773  -13.0411   20.9113 C   0  0  0  0  0  0
  -24.6361  -11.6891   20.8675 C   0  0  0  0  0  0
  -23.9046  -10.4268   21.0364 C   0  0  0  0  0  0
  -24.3609   -9.4202   21.9156 C   0  0  0  0  0  0
  -23.6283   -8.2240   22.0747 C   0  0  0  0  0  0
  -22.4270   -8.0255   21.3541 C   0  0  0  0  0  0
  -21.9894   -9.0219   20.4646 C   0  0  0  0  0  0
  -22.7212  -10.2099   20.3031 C   0  0  0  0  0  0
  -21.6859   -6.0718   22.5275 C   0  0  0  0  0  0
  -21.4025   -6.5624   23.8210 C   0  0  0  0  0  0
  -21.3665   -5.6779   24.9168 C   0  0  0  0  0  0
  -21.6050   -4.3043   24.7221 C   0  0  0  0  0  0
  -21.8822   -3.8136   23.4340 C   0  0  0  0  0  0
  -21.9200   -4.6949   22.3394 C   0  0  0  0  0  0
  -22.7805  -13.5209   21.1835 C   0  0  0  0  0  0
  -22.1667   -4.2137   21.0970 F   0  0  0  0  0  0
  -21.5624   -3.4532   25.7737 F   0  0  0  0  0  0
  -30.0097  -13.3909   20.4356 N   0  0  0  0  0  0
  -26.2949  -12.9358   20.3328 N   0  0  0  0  0  0
  -25.9299  -11.6504   20.5732 N   0  0  0  0  0  0
  -22.0501  -12.8168   22.0409 N   0  0  0  0  0  0
  -25.4168  -15.1902   20.4219 N   0  0  0  0  0  0
  -31.7826  -14.7792   20.1237 O   0  0  0  0  0  0
  -21.6645   -6.8849   21.4234 O   0  0  0  0  0  0
  -22.3489  -14.5546   20.6744 O   0  0  0  0  0  0
  -24.6241  -31.8615   23.2058 C   0  0  0  0  0  0
  -25.9097  -32.4789   23.8383 C   0  0  1  0  0  0
  -27.2194  -27.3357   20.1131 C   0  0  0  0  0  0
  -25.5920  -33.8591   24.2305 N   0  0  0  0  0  0
  -23.4149  -30.4858   21.5489 C   0  0  2  0  0  0
  -24.8586  -28.9414   20.1152 C   0  0  0  0  0  0
  -22.7452  -29.4625   22.4968 C   0  0  0  0  0  0
  -18.0275  -28.1388   22.8486 C   0  0  0  0  0  0
  -24.1485  -36.7299   23.2640 C   0  0  0  0  0  0
  -25.9534  -30.7980   21.3727 C   0  0  0  0  0  0
  -26.0268  -29.4255   20.7169 C   0  0  0  0  0  0
  -27.2108  -28.6344   20.7045 C   0  0  0  0  0  0
  -26.0302  -26.9002   19.4864 C   0  0  0  0  0  0
  -24.8614  -27.6843   19.4919 C   0  0  0  0  0  0
  -23.6266  -29.8200   20.1642 C   0  0  0  0  0  0
  -25.4113  -36.3091   24.0331 C   0  0  1  0  0  0
  -20.5874  -28.3675   23.1300 C   0  0  2  0  0  0
  -20.6766  -26.9404   22.5418 C   0  0  0  0  0  0
  -19.5744  -26.6382   21.5218 C   0  0  0  0  0  0
  -18.1918  -26.7934   22.1616 C   0  0  0  0  0  0
  -19.1528  -28.8848   23.2891 C   0  0  0  0  0  0
  -18.9455  -30.1455   23.8910 C   0  0  0  0  0  0
  -17.6451  -30.6587   24.0571 C   0  0  0  0  0  0
  -25.9045  -34.9455   23.5118 C   0  0  0  0  0  0
  -16.5342  -29.9089   23.6328 C   0  0  0  0  0  0
  -16.7261  -28.6504   23.0354 C   0  0  0  0  0  0
  -26.4493  -31.6592   25.0743 C   0  0  0  0  0  0
  -25.3733  -31.3705   26.1470 C   0  0  0  0  0  0
  -27.0339  -30.3022   24.6178 C   0  0  0  0  0  0
  -27.6052  -32.4326   25.7519 C   0  0  0  0  0  0
  -27.5582  -37.1810   24.8465 C   0  0  0  0  0  0
  -21.4173  -29.3039   22.3710 N   0  0  0  0  0  0
  -26.4292  -37.3784   23.9411 N   0  0  0  0  0  0
  -24.6828  -31.0642   22.0998 N   0  0  0  0  0  0
  -23.4181  -28.8157   23.3032 O   0  0  0  0  0  0
  -28.3623  -26.5324   20.1199 O   0  0  0  0  0  0
  -26.5605  -34.8918   22.4682 O   0  0  0  0  0  0
  -23.5411  -32.1409   23.7399 O   0  0  0  0  0  0
  -29.4446  -24.3095   19.5908 C   0  0  0  0  0  0
  -28.6314  -17.9005   20.9224 C   0  0  0  0  0  0
  -30.3879  -16.7627   16.3042 C   0  0  0  0  0  0
  -31.6706  -18.3121   17.8138 C   0  0  0  0  0  0
  -30.7414  -22.3598   18.8292 C   0  0  0  0  0  0
  -28.2455  -25.0597   20.2608 C   0  0  0  0  0  0
  -25.9440  -19.6376   20.7430 C   0  0  0  0  0  0
  -29.5485  -17.1567   18.6538 C   0  0  0  0  0  0
  -27.2157  -19.7727   21.6138 C   0  0  0  0  0  0
  -28.8139  -21.8963   20.3360 C   0  0  0  0  0  0
  -29.2490  -20.3422   20.2213 C   0  0  0  0  0  0
  -24.6355  -20.0374   21.4563 C   0  0  0  0  0  0
  -29.7790  -17.1098   20.1938 C   0  0  2  0  0  0
  -30.7998  -17.0463   17.7575 C   0  0  0  0  0  0
  -29.7600  -15.6692   20.6447 N   0  0  0  0  0  0
  -29.6211  -22.9320   19.6029 N   0  0  0  0  0  0
  -28.4237  -19.2777   20.9042 N   0  0  0  0  0  0
  -24.4289  -21.4962   21.5248 N   0  3  0  0  0  0
  -30.2526  -25.0371   19.0014 O   0  0  0  0  0  0
  -27.8337  -17.1674   21.5232 O   0  0  0  0  0  0
  -31.4731  -12.4701   19.1727 H   0  0  0  0  0  0
  -30.3263  -11.3715   19.8936 H   0  0  0  0  0  0
  -29.7721  -11.7840   17.4636 H   0  0  0  0  0  0
  -29.6650  -13.4965   17.7724 H   0  0  0  0  0  0
  -27.8527  -11.3033   18.8369 H   0  0  0  0  0  0
  -27.3815  -12.6069   17.7831 H   0  0  0  0  0  0
  -27.6599  -14.2553   19.5301 H   0  0  0  0  0  0
  -28.6884  -12.0514   21.3885 H   0  0  0  0  0  0
  -28.4395  -13.7164   21.8393 H   0  0  0  0  0  0
  -25.2752   -9.5678   22.4724 H   0  0  0  0  0  0
  -24.0001   -7.4631   22.7460 H   0  0  0  0  0  0
  -21.0837   -8.8703   19.8945 H   0  0  0  0  0  0
  -22.3654  -10.9616   19.6128 H   0  0  0  0  0  0
  -21.2024   -7.6134   23.9701 H   0  0  0  0  0  0
  -21.1494   -6.0517   25.9071 H   0  0  0  0  0  0
  -22.0609   -2.7602   23.2848 H   0  0  0  0  0  0
  -22.4161  -11.9794   22.4689 H   0  0  0  0  0  0
  -21.1135  -13.1163   22.2721 H   0  0  0  0  0  0
  -24.6451  -15.8312   20.5686 H   0  0  0  0  0  0
  -26.3050  -15.6634   20.3120 H   0  0  0  0  0  0
  -26.7167  -32.5464   23.1137 H   0  0  0  0  0  0
  -25.0077  -33.9747   25.0455 H   0  0  0  0  0  0
  -22.7078  -31.3057   21.4077 H   0  0  0  0  0  0
  -23.3749  -35.9625   23.3293 H   0  0  0  0  0  0
  -24.3578  -36.8926   22.2053 H   0  0  0  0  0  0
  -23.7230  -37.6499   23.6664 H   0  0  0  0  0  0
  -26.0786  -31.5617   20.6040 H   0  0  0  0  0  0
  -26.8368  -30.8503   21.9970 H   0  0  0  0  0  0
  -28.1125  -29.0055   21.1722 H   0  0  0  0  0  0
  -25.9812  -25.9553   18.9681 H   0  0  0  0  0  0
  -23.9679  -27.3140   19.0078 H   0  0  0  0  0  0
  -23.7405  -30.5957   19.4064 H   0  0  0  0  0  0
  -22.7476  -29.2460   19.8658 H   0  0  0  0  0  0
  -25.1294  -36.1954   25.0824 H   0  0  0  0  0  0
  -20.9952  -28.3248   24.1422 H   0  0  0  0  0  0
  -20.5658  -26.2289   23.3618 H   0  0  0  0  0  0
  -21.6640  -26.7442   22.1213 H   0  0  0  0  0  0
  -19.6902  -25.6293   21.1247 H   0  0  0  0  0  0
  -19.6695  -27.3194   20.6749 H   0  0  0  0  0  0
  -17.4199  -26.6696   21.4008 H   0  0  0  0  0  0
  -18.0303  -26.0070   22.9001 H   0  0  0  0  0  0
  -19.7931  -30.7272   24.2282 H   0  0  0  0  0  0
  -17.5005  -31.6269   24.5168 H   0  0  0  0  0  0
  -15.5340  -30.2994   23.7658 H   0  0  0  0  0  0
  -15.8655  -28.0825   22.7071 H   0  0  0  0  0  0
  -24.5931  -30.7024   25.7799 H   0  0  0  0  0  0
  -24.8898  -32.2854   26.4897 H   0  0  0  0  0  0
  -25.8072  -30.8896   27.0244 H   0  0  0  0  0  0
  -26.2909  -29.6772   24.1200 H   0  0  0  0  0  0
  -27.4043  -29.7272   25.4679 H   0  0  0  0  0  0
  -27.8776  -30.4317   23.9392 H   0  0  0  0  0  0
  -27.2658  -33.3616   26.2108 H   0  0  0  0  0  0
  -28.3861  -32.6899   25.0349 H   0  0  0  0  0  0
  -28.0721  -31.8445   26.5427 H   0  0  0  0  0  0
  -28.2593  -38.0108   24.7515 H   0  0  0  0  0  0
  -28.1082  -36.2646   24.6290 H   0  0  0  0  0  0
  -27.2301  -37.1459   25.8864 H   0  0  0  0  0  0
  -20.9344  -29.8775   21.6942 H   0  0  0  0  0  0
  -26.0174  -38.2857   24.1420 H   0  0  0  0  0  0
  -31.2595  -16.6455   15.6597 H   0  0  0  0  0  0
  -29.7808  -17.5732   15.8983 H   0  0  0  0  0  0
  -29.8063  -15.8428   16.2321 H   0  0  0  0  0  0
  -32.5429  -18.2119   17.1677 H   0  0  0  0  0  0
  -32.0410  -18.5080   18.8197 H   0  0  0  0  0  0
  -31.1177  -19.1913   17.4819 H   0  0  0  0  0  0
  -31.3639  -23.0821   18.3011 H   0  0  0  0  0  0
  -30.3674  -21.6844   18.0599 H   0  0  0  0  0  0
  -31.4205  -21.8090   19.4792 H   0  0  0  0  0  0
  -28.2357  -24.8167   21.3234 H   0  0  0  0  0  0
  -27.3322  -24.6449   19.8421 H   0  0  0  0  0  0
  -25.8376  -18.5936   20.4458 H   0  0  0  0  0  0
  -26.0539  -20.1932   19.8106 H   0  0  0  0  0  0
  -29.0221  -18.0658   18.3675 H   0  0  0  0  0  0
  -28.8484  -16.3621   18.3881 H   0  0  0  0  0  0
  -27.0774  -19.2223   22.5467 H   0  0  0  0  0  0
  -27.3186  -20.7920   21.9731 H   0  0  0  0  0  0
  -28.8362  -22.1946   21.3848 H   0  0  0  0  0  0
  -27.7830  -22.0067   19.9950 H   0  0  0  0  0  0
  -30.2693  -20.2240   20.5881 H   0  0  0  0  0  0
  -29.2692  -20.0798   19.1651 H   0  0  0  0  0  0
  -24.5997  -19.6122   22.4605 H   0  0  0  0  0  0
  -23.7892  -19.6102   20.9149 H   0  0  0  0  0  0
  -30.7281  -17.5653   20.4727 H   0  0  0  0  0  0
  -31.4051  -16.2046   18.0859 H   0  0  0  0  0  0
  -28.8549  -15.4207   21.0223 H   0  0  0  0  0  0
  -25.1358  -21.9477   22.0766 H   0  0  0  0  0  0
  -23.5410  -21.6845   21.9561 H   0  0  0  0  0  0
  -24.4104  -21.8991   20.6052 H   0  0  0  0  0  0
  1 25  1  0  0  0
  1 30  2  0  0  0
  1 85  1  0  0  0
  2  3  1  0  0  0
  2 25  1  0  0  0
  2 91  1  0  0  0
  2 92  1  0  0  0
  3  4  1  0  0  0
  3 93  1  0  0  0
  3 94  1  0  0  0
  4  5  1  0  0  0
  4 95  1  0  0  0
  4 96  1  0  0  0
  5  6  1  0  0  0
  5 26  1  0  0  0
  5 97  1  0  0  0
  6 25  1  0  0  0
  6 98  1  0  0  0
  6 99  1  0  0  0
  7  8  2  0  0  0
  7 26  1  0  0  0
  7 29  1  0  0  0
  8  9  1  0  0  0
  8 22  1  0  0  0
  9 10  1  0  0  0
  9 27  2  0  0  0
 10 11  2  0  0  0
 10 15  1  0  0  0
 11 12  1  0  0  0
 11100  1  0  0  0
 12 13  2  0  0  0
 12101  1  0  0  0
 13 14  1  0  0  0
 13 31  1  0  0  0
 14 15  2  0  0  0
 14102  1  0  0  0
 15103  1  0  0  0
 16 17  2  0  0  0
 16 21  1  0  0  0
 16 31  1  0  0  0
 17 18  1  0  0  0
 17104  1  0  0  0
 18 19  2  0  0  0
 18105  1  0  0  0
 19 20  1  0  0  0
 19 24  1  0  0  0
 20 21  2  0  0  0
 20106  1  0  0  0
 21 23  1  0  0  0
 22 28  1  0  0  0
 22 32  2  0  0  0
 26 27  1  0  0  0
 28107  1  0  0  0
 28108  1  0  0  0
 29109  1  0  0  0
 29110  1  0  0  0
 33 34  1  0  0  0
 33 66  1  0  0  0
 33 70  2  0  0  0
 34 36  1  0  0  0
 34 59  1  0  0  0
 34111  1  0  0  0
 35 44  2  0  0  0
 35 45  1  0  0  0
 35 68  1  0  0  0
 36 56  1  0  0  0
 36112  1  0  0  0
 37 39  1  0  0  0
 37 47  1  0  0  0
 37 66  1  0  0  0
 37113  1  0  0  0
 38 43  2  0  0  0
 38 46  1  0  0  0
 38 47  1  0  0  0
 39 64  1  0  0  0
 39 67  2  0  0  0
 40 52  1  0  0  0
 40 53  2  0  0  0
 40 58  1  0  0  0
 41114  1  0  0  0
 41115  1  0  0  0
 41116  1  0  0  0
 41 48  1  0  0  0
 42 43  1  0  0  0
 42 66  1  0  0  0
 42117  1  0  0  0
 42118  1  0  0  0
 43 44  1  0  0  0
 44119  1  0  0  0
 45 46  2  0  0  0
 45120  1  0  0  0
 46121  1  0  0  0
 47122  1  0  0  0
 47123  1  0  0  0
 48 56  1  0  0  0
 48 65  1  0  0  0
 48124  1  0  0  0
 49 50  1  0  0  0
 49 53  1  0  0  0
 49 64  1  0  0  0
 49125  1  0  0  0
 50 51  1  0  0  0
 50126  1  0  0  0
 50127  1  0  0  0
 51 52  1  0  0  0
 51128  1  0  0  0
 51129  1  0  0  0
 52130  1  0  0  0
 52131  1  0  0  0
 53 54  1  0  0  0
 54 55  2  0  0  0
 54132  1  0  0  0
 55 57  1  0  0  0
 55133  1  0  0  0
 56 69  2  0  0  0
 57 58  2  0  0  0
 57134  1  0  0  0
 58135  1  0  0  0
 59 60  1  0  0  0
 59 61  1  0  0  0
 59 62  1  0  0  0
 60136  1  0  0  0
 60137  1  0  0  0
 60138  1  0  0  0
 61139  1  0  0  0
 61140  1  0  0  0
 61141  1  0  0  0
 62142  1  0  0  0
 62143  1  0  0  0
 62144  1  0  0  0
 63 65  1  0  0  0
 63145  1  0  0  0
 63146  1  0  0  0
 63147  1  0  0  0
 64148  1  0  0  0
 65149  1  0  0  0
 68 76  1  0  0  0
 71 76  1  0  0  0
 71 86  1  0  0  0
 71 89  2  0  0  0
 72 83  1  0  0  0
 72 87  1  0  0  0
 72 90  2  0  0  0
 73150  1  0  0  0
 73151  1  0  0  0
 73152  1  0  0  0
 73 84  1  0  0  0
 74 84  1  0  0  0
 74153  1  0  0  0
 74154  1  0  0  0
 74155  1  0  0  0
 75 86  1  0  0  0
 75156  1  0  0  0
 75157  1  0  0  0
 75158  1  0  0  0
 76159  1  0  0  0
 76160  1  0  0  0
 77 79  1  0  0  0
 77 82  1  0  0  0
 77161  1  0  0  0
 77162  1  0  0  0
 78 84  1  0  0  0
 78163  1  0  0  0
 78164  1  0  0  0
 78 83  1  0  0  0
 79 87  1  0  0  0
 79165  1  0  0  0
 79166  1  0  0  0
 80 81  1  0  0  0
 80 86  1  0  0  0
 80167  1  0  0  0
 80168  1  0  0  0
 81 87  1  0  0  0
 81169  1  0  0  0
 81170  1  0  0  0
 82 88  1  0  0  0
 82171  1  0  0  0
 82172  1  0  0  0
 83 85  1  0  0  0
 83173  1  0  0  0
 84174  1  0  0  0
 85175  1  0  0  0
 88176  1  0  0  0
 88177  1  0  0  0
 88178  1  0  0  0
M  CHG  1  88   1
M  ISO  4   1 100  68 101  76 101  85 100
M  END
> <chiral flag>
0

> <version>
0

> <s_m_source_file>
/data/baiqing/PycharmProjects/Reinvent-master-3.2/result/LINK_invent/BTK/process_docking_weight1_custom_sum_contain_oxygen_bond_distance_aromatic_linkinvent_7_9_3/rearranged_h_0004.sdf

> <i_m_source_file_index>
32

> <r_mmod_Potential_Energy-OPLS-2005>
-130.58805847168

> <r_mmod_Stretch_Energy-OPLS-2005>
91.2828521728516

> <r_mmod_Bend_Energy-OPLS-2005>
165.783920288086

> <r_mmod_Torsional_Energy-OPLS-2005>
305.860107421875

> <r_mmod_Improper_Torsional_Energy-OPLS-2005>
6.79138040542603

> <r_mmod_Van_der_Waal_Energy-OPLS-2005>
141.536422729492

> <r_mmod_Electrostatic_Energy-OPLS-2005>
-303.659301757812

> <r_mmod_Solvation_Energy-OPLS-2005>
-579.270263671875

> <b_mmod_Minimization_Converged-OPLS-2005>
0

> <r_mmod_RMS_Derivative-OPLS-2005>
2.1107771396637

$$$$
32
                    3D
 Structure written by MMmdl.
157165  0  0  1  0            999 V2000
  -30.6239  -14.6410   20.4815 C   0  0  0  0  0  0
  -30.4367  -12.3904   19.4516 C   0  0  0  0  0  0
  -29.5088  -12.5118   18.2224 C   0  0  0  0  0  0
  -28.0305  -12.3507   18.6319 C   0  0  0  0  0  0
  -27.6522  -13.2194   19.8603 C   0  0  2  0  0  0
  -28.6972  -13.0806   20.9905 C   0  0  0  0  0  0
  -25.2561  -13.8181   20.5683 C   0  0  0  0  0  0
  -24.1828  -13.0444   20.9194 C   0  0  0  0  0  0
  -24.6395  -11.6913   20.8734 C   0  0  0  0  0  0
  -23.9063  -10.4297   21.0402 C   0  0  0  0  0  0
  -24.3612   -9.4214   21.9186 C   0  0  0  0  0  0
  -23.6289   -8.2248   22.0755 C   0  0  0  0  0  0
  -22.4274   -8.0282   21.3543 C   0  0  0  0  0  0
  -21.9904   -9.0261   20.4653 C   0  0  0  0  0  0
  -22.7229  -10.2142   20.3058 C   0  0  0  0  0  0
  -21.6860   -6.0733   22.5279 C   0  0  0  0  0  0
  -21.4019   -6.5636   23.8212 C   0  0  0  0  0  0
  -21.3658   -5.6788   24.9173 C   0  0  0  0  0  0
  -21.6042   -4.3050   24.7223 C   0  0  0  0  0  0
  -21.8818   -3.8146   23.4344 C   0  0  0  0  0  0
  -21.9195   -4.6962   22.3404 C   0  0  0  0  0  0
  -22.7847  -13.5242   21.1854 C   0  0  0  0  0  0
  -22.1660   -4.2147   21.0980 F   0  0  0  0  0  0
  -21.5629   -3.4535   25.7735 F   0  0  0  0  0  0
  -30.0137  -13.4161   20.4250 N   0  0  0  0  0  0
  -26.2984  -12.9365   20.3300 N   0  0  0  0  0  0
  -25.9324  -11.6516   20.5739 N   0  0  0  0  0  0
  -22.0475  -12.8246   22.0408 N   0  0  0  0  0  0
  -25.4276  -15.1902   20.4088 N   0  0  0  0  0  0
  -31.8055  -14.7767   20.1534 O   0  0  0  0  0  0
  -21.6636   -6.8877   21.4241 O   0  0  0  0  0  0
  -22.3536  -14.5547   20.6696 O   0  0  0  0  0  0
  -24.6265  -31.8619   23.2058 C   0  0  0  0  0  0
  -25.9121  -32.4785   23.8381 C   0  0  1  0  0  0
  -27.2172  -27.3216   20.1156 C   0  0  0  0  0  0
  -25.5946  -33.8586   24.2309 N   0  0  0  0  0  0
  -23.4189  -30.4881   21.5491 C   0  0  2  0  0  0
  -24.8626  -28.9477   20.1139 C   0  0  0  0  0  0
  -22.7481  -29.4638   22.4952 C   0  0  0  0  0  0
  -18.0284  -28.1384   22.8478 C   0  0  0  0  0  0
  -24.1486  -36.7290   23.2635 C   0  0  0  0  0  0
  -25.9613  -30.7930   21.3784 C   0  0  0  0  0  0
  -26.0339  -29.4219   20.7187 C   0  0  0  0  0  0
  -27.2149  -28.6219   20.7092 C   0  0  0  0  0  0
  -26.0219  -26.9075   19.4808 C   0  0  0  0  0  0
  -24.8593  -27.6953   19.4862 C   0  0  0  0  0  0
  -23.6328  -29.8283   20.1630 C   0  0  0  0  0  0
  -25.4108  -36.3088   24.0334 C   0  0  1  0  0  0
  -20.5883  -28.3692   23.1278 C   0  0  2  0  0  0
  -20.6779  -26.9421   22.5396 C   0  0  0  0  0  0
  -19.5756  -26.6383   21.5200 C   0  0  0  0  0  0
  -18.1936  -26.7925   22.1612 C   0  0  0  0  0  0
  -19.1537  -28.8853   23.2869 C   0  0  0  0  0  0
  -18.9456  -30.1451   23.8891 C   0  0  0  0  0  0
  -17.6458  -30.6584   24.0557 C   0  0  0  0  0  0
  -25.9049  -34.9456   23.5117 C   0  0  0  0  0  0
  -16.5349  -29.9079   23.6330 C   0  0  0  0  0  0
  -16.7272  -28.6495   23.0354 C   0  0  0  0  0  0
  -26.4502  -31.6593   25.0752 C   0  0  0  0  0  0
  -25.3727  -31.3733   26.1477 C   0  0  0  0  0  0
  -27.0351  -30.3018   24.6214 C   0  0  0  0  0  0
  -27.6078  -32.4318   25.7510 C   0  0  0  0  0  0
  -27.5581  -37.1799   24.8460 C   0  0  0  0  0  0
  -21.4197  -29.3046   22.3683 N   0  0  0  0  0  0
  -26.4288  -37.3783   23.9408 N   0  0  0  0  0  0
  -24.6879  -31.0635   22.1009 N   0  0  0  0  0  0
  -23.4206  -28.8178   23.3031 O   0  0  0  0  0  0
  -28.3321  -26.4677   20.1499 O   0  0  0  0  0  0
  -26.5607  -34.8924   22.4676 O   0  0  0  0  0  0
  -23.5430  -32.1427   23.7377 O   0  0  0  0  0  0
  -30.5204  -19.2552   19.3967 C   0  0  0  0  0  0
  -29.1308  -19.4291   21.3388 C   0  0  0  0  0  0
  -30.5377  -17.8318   19.4942 C   0  0  0  0  0  0
  -29.1709  -18.0043   21.4830 C   0  0  0  0  0  0
  -29.8921  -17.1592   20.5797 C   0  0  0  0  0  0
  -29.8191  -20.0954   20.2940 C   0  0  0  0  0  0
  -31.2096  -17.0829   18.3551 C   0  0  0  0  0  0
  -28.3996  -17.3825   22.6378 C   0  0  0  0  0  0
  -29.2527  -23.9671   20.2621 C   0  0  0  0  0  0
  -28.0683  -25.0179   20.3236 C   0  0  0  0  0  0
  -28.8934  -22.4391   20.5542 C   0  0  0  0  0  0
  -29.7993  -15.7022   20.7576 N   0  0  0  0  0  0
  -29.8988  -21.4877   20.0910 O   0  0  0  0  0  0
  -31.4795  -12.5116   19.1515 H   0  0  0  0  0  0
  -30.3637  -11.3955   19.8930 H   0  0  0  0  0  0
  -29.7735  -11.7646   17.4726 H   0  0  0  0  0  0
  -29.6539  -13.4841   17.7483 H   0  0  0  0  0  0
  -27.8630  -11.2975   18.8584 H   0  0  0  0  0  0
  -27.3797  -12.5878   17.7896 H   0  0  0  0  0  0
  -27.6680  -14.2533   19.5158 H   0  0  0  0  0  0
  -28.7079  -12.0624   21.3827 H   0  0  0  0  0  0
  -28.4464  -13.7237   21.8353 H   0  0  0  0  0  0
  -25.2756   -9.5699   22.4755 H   0  0  0  0  0  0
  -24.0005   -7.4643   22.7467 H   0  0  0  0  0  0
  -21.0837   -8.8779   19.8960 H   0  0  0  0  0  0
  -22.3685  -10.9679   19.6166 H   0  0  0  0  0  0
  -21.2013   -7.6140   23.9714 H   0  0  0  0  0  0
  -21.1480   -6.0516   25.9075 H   0  0  0  0  0  0
  -22.0599   -2.7610   23.2842 H   0  0  0  0  0  0
  -22.4073  -11.9912   22.4813 H   0  0  0  0  0  0
  -21.1097  -13.1299   22.2597 H   0  0  0  0  0  0
  -24.6572  -15.8421   20.5083 H   0  0  0  0  0  0
  -26.2683  -15.6265   20.0531 H   0  0  0  0  0  0
  -26.7192  -32.5454   23.1131 H   0  0  0  0  0  0
  -25.0133  -33.9732   25.0483 H   0  0  0  0  0  0
  -22.7114  -31.3079   21.4089 H   0  0  0  0  0  0
  -23.3752  -35.9616   23.3292 H   0  0  0  0  0  0
  -24.3590  -36.8912   22.2052 H   0  0  0  0  0  0
  -23.7238  -37.6493   23.6653 H   0  0  0  0  0  0
  -26.0957  -31.5586   20.6135 H   0  0  0  0  0  0
  -26.8409  -30.8369   22.0097 H   0  0  0  0  0  0
  -28.1119  -28.9821   21.1927 H   0  0  0  0  0  0
  -25.9481  -25.9665   18.9607 H   0  0  0  0  0  0
  -23.9649  -27.3301   19.0001 H   0  0  0  0  0  0
  -23.7543  -30.6064   19.4084 H   0  0  0  0  0  0
  -22.7525  -29.2590   19.8588 H   0  0  0  0  0  0
  -25.1283  -36.1942   25.0828 H   0  0  0  0  0  0
  -20.9960  -28.3260   24.1404 H   0  0  0  0  0  0
  -20.5683  -26.2307   23.3593 H   0  0  0  0  0  0
  -21.6650  -26.7457   22.1196 H   0  0  0  0  0  0
  -19.6927  -25.6289   21.1247 H   0  0  0  0  0  0
  -19.6695  -27.3174   20.6712 H   0  0  0  0  0  0
  -17.4205  -26.6658   21.4014 H   0  0  0  0  0  0
  -18.0345  -26.0070   22.9014 H   0  0  0  0  0  0
  -19.7935  -30.7263   24.2274 H   0  0  0  0  0  0
  -17.5013  -31.6273   24.5149 H   0  0  0  0  0  0
  -15.5349  -30.2974   23.7667 H   0  0  0  0  0  0
  -15.8671  -28.0807   22.7080 H   0  0  0  0  0  0
  -24.5884  -30.7111   25.7792 H   0  0  0  0  0  0
  -24.8933  -32.2897   26.4924 H   0  0  0  0  0  0
  -25.8038  -30.8882   27.0242 H   0  0  0  0  0  0
  -26.2937  -29.6764   24.1228 H   0  0  0  0  0  0
  -27.4040  -29.7285   25.4730 H   0  0  0  0  0  0
  -27.8810  -30.4310   23.9460 H   0  0  0  0  0  0
  -27.2715  -33.3614   26.2109 H   0  0  0  0  0  0
  -28.3871  -32.6881   25.0320 H   0  0  0  0  0  0
  -28.0770  -31.8429   26.5401 H   0  0  0  0  0  0
  -28.2589  -38.0107   24.7527 H   0  0  0  0  0  0
  -28.1091  -36.2641   24.6252 H   0  0  0  0  0  0
  -27.2311  -37.1414   25.8868 H   0  0  0  0  0  0
  -20.9387  -29.8772   21.6890 H   0  0  0  0  0  0
  -26.0171  -38.2862   24.1401 H   0  0  0  0  0  0
  -31.0398  -19.7288   18.5748 H   0  0  0  0  0  0
  -28.5755  -20.0133   22.0589 H   0  0  0  0  0  0
  -31.2497  -17.6975   17.4551 H   0  0  0  0  0  0
  -30.6602  -16.1799   18.0913 H   0  0  0  0  0  0
  -32.2336  -16.8195   18.6179 H   0  0  0  0  0  0
  -28.0339  -18.1396   23.3324 H   0  0  0  0  0  0
  -29.0315  -16.6972   23.2043 H   0  0  0  0  0  0
  -27.5370  -16.8278   22.2660 H   0  0  0  0  0  0
  -30.0386  -24.2758   20.9509 H   0  0  0  0  0  0
  -29.6936  -24.0295   19.2667 H   0  0  0  0  0  0
  -27.5529  -24.8978   21.2773 H   0  0  0  0  0  0
  -27.3767  -24.6662   19.5637 H   0  0  0  0  0  0
  -27.9542  -22.1897   20.0598 H   0  0  0  0  0  0
  -28.7244  -22.3109   21.6238 H   0  0  0  0  0  0
  -28.9176  -15.3976   21.1397 H   0  0  0  0  0  0
  1 25  1  0  0  0
  1 30  2  0  0  0
  1 82  1  0  0  0
  2  3  1  0  0  0
  2 25  1  0  0  0
  2 84  1  0  0  0
  2 85  1  0  0  0
  3  4  1  0  0  0
  3 86  1  0  0  0
  3 87  1  0  0  0
  4  5  1  0  0  0
  4 88  1  0  0  0
  4 89  1  0  0  0
  5  6  1  0  0  0
  5 26  1  0  0  0
  5 90  1  0  0  0
  6 25  1  0  0  0
  6 91  1  0  0  0
  6 92  1  0  0  0
  7  8  2  0  0  0
  7 26  1  0  0  0
  7 29  1  0  0  0
  8  9  1  0  0  0
  8 22  1  0  0  0
  9 10  1  0  0  0
  9 27  2  0  0  0
 10 11  2  0  0  0
 10 15  1  0  0  0
 11 12  1  0  0  0
 11 93  1  0  0  0
 12 13  2  0  0  0
 12 94  1  0  0  0
 13 14  1  0  0  0
 13 31  1  0  0  0
 14 15  2  0  0  0
 14 95  1  0  0  0
 15 96  1  0  0  0
 16 17  2  0  0  0
 16 21  1  0  0  0
 16 31  1  0  0  0
 17 18  1  0  0  0
 17 97  1  0  0  0
 18 19  2  0  0  0
 18 98  1  0  0  0
 19 20  1  0  0  0
 19 24  1  0  0  0
 20 21  2  0  0  0
 20 99  1  0  0  0
 21 23  1  0  0  0
 22 28  1  0  0  0
 22 32  2  0  0  0
 26 27  1  0  0  0
 28100  1  0  0  0
 28101  1  0  0  0
 29102  1  0  0  0
 29103  1  0  0  0
 33 34  1  0  0  0
 33 66  1  0  0  0
 33 70  2  0  0  0
 34 36  1  0  0  0
 34 59  1  0  0  0
 34104  1  0  0  0
 35 44  2  0  0  0
 35 45  1  0  0  0
 35 68  1  0  0  0
 36 56  1  0  0  0
 36105  1  0  0  0
 37 39  1  0  0  0
 37 47  1  0  0  0
 37 66  1  0  0  0
 37106  1  0  0  0
 38 43  2  0  0  0
 38 46  1  0  0  0
 38 47  1  0  0  0
 39 64  1  0  0  0
 39 67  2  0  0  0
 40 52  1  0  0  0
 40 53  2  0  0  0
 40 58  1  0  0  0
 41107  1  0  0  0
 41108  1  0  0  0
 41109  1  0  0  0
 41 48  1  0  0  0
 42 43  1  0  0  0
 42 66  1  0  0  0
 42110  1  0  0  0
 42111  1  0  0  0
 43 44  1  0  0  0
 44112  1  0  0  0
 45 46  2  0  0  0
 45113  1  0  0  0
 46114  1  0  0  0
 47115  1  0  0  0
 47116  1  0  0  0
 48 56  1  0  0  0
 48 65  1  0  0  0
 48117  1  0  0  0
 49 50  1  0  0  0
 49 53  1  0  0  0
 49 64  1  0  0  0
 49118  1  0  0  0
 50 51  1  0  0  0
 50119  1  0  0  0
 50120  1  0  0  0
 51 52  1  0  0  0
 51121  1  0  0  0
 51122  1  0  0  0
 52123  1  0  0  0
 52124  1  0  0  0
 53 54  1  0  0  0
 54 55  2  0  0  0
 54125  1  0  0  0
 55 57  1  0  0  0
 55126  1  0  0  0
 56 69  2  0  0  0
 57 58  2  0  0  0
 57127  1  0  0  0
 58128  1  0  0  0
 59 60  1  0  0  0
 59 61  1  0  0  0
 59 62  1  0  0  0
 60129  1  0  0  0
 60130  1  0  0  0
 60131  1  0  0  0
 61132  1  0  0  0
 61133  1  0  0  0
 61134  1  0  0  0
 62135  1  0  0  0
 62136  1  0  0  0
 62137  1  0  0  0
 63 65  1  0  0  0
 63138  1  0  0  0
 63139  1  0  0  0
 63140  1  0  0  0
 64141  1  0  0  0
 65142  1  0  0  0
 68 80  1  0  0  0
 71 73  2  0  0  0
 71 76  1  0  0  0
 71143  1  0  0  0
 72 74  1  0  0  0
 72 76  2  0  0  0
 72144  1  0  0  0
 73 75  1  0  0  0
 73 77  1  0  0  0
 74 75  2  0  0  0
 74 78  1  0  0  0
 75 82  1  0  0  0
 76 83  1  0  0  0
 77145  1  0  0  0
 77146  1  0  0  0
 77147  1  0  0  0
 78148  1  0  0  0
 78149  1  0  0  0
 78150  1  0  0  0
 79 80  1  0  0  0
 79 81  1  0  0  0
 79151  1  0  0  0
 79152  1  0  0  0
 80153  1  0  0  0
 80154  1  0  0  0
 81 83  1  0  0  0
 81155  1  0  0  0
 81156  1  0  0  0
 82157  1  0  0  0
M  ISO  4   1 100  68 101  80 101  82 100
M  END
> <chiral flag>
0

> <version>
0

> <s_m_source_file>
/data/baiqing/PycharmProjects/Reinvent-master-3.2/result/LINK_invent/BTK/process_docking_weight1_custom_sum_contain_oxygen_bond_distance_aromatic_linkinvent_7_9_3/rearranged_h_0004.sdf

> <i_m_source_file_index>
33

> <r_mmod_Potential_Energy-OPLS-2005>
40.922435760498

> <r_mmod_Stretch_Energy-OPLS-2005>
78.3917388916016

> <r_mmod_Bend_Energy-OPLS-2005>
150.542282104492

> <r_mmod_Torsional_Energy-OPLS-2005>
234.970779418945

> <r_mmod_Improper_Torsional_Energy-OPLS-2005>
4.45768117904663

> <r_mmod_Van_der_Waal_Energy-OPLS-2005>
146.981582641602

> <r_mmod_Electrostatic_Energy-OPLS-2005>
-414.784271240234

> <r_mmod_Solvation_Energy-OPLS-2005>
-208.764511108398

> <b_mmod_Minimization_Converged-OPLS-2005>
0

> <r_mmod_RMS_Derivative-OPLS-2005>
1.24213683605194

$$$$
33
                    3D
 Structure written by MMmdl.
171179  0  0  1  0            999 V2000
  -30.8233  -14.2847   20.7449 C   0  0  0  0  0  0
  -30.4126  -12.2805   19.3782 C   0  0  0  0  0  0
  -29.4738  -12.5274   18.1864 C   0  0  0  0  0  0
  -28.0013  -12.4005   18.6145 C   0  0  0  0  0  0
  -27.6735  -13.2047   19.8976 C   0  0  2  0  0  0
  -28.7145  -12.9391   21.0102 C   0  0  0  0  0  0
  -25.2630  -13.8127   20.5715 C   0  0  0  0  0  0
  -24.1875  -13.0417   20.9145 C   0  0  0  0  0  0
  -24.6414  -11.6875   20.8760 C   0  0  0  0  0  0
  -23.9064  -10.4269   21.0426 C   0  0  0  0  0  0
  -24.3600   -9.4195   21.9220 C   0  0  0  0  0  0
  -23.6281   -8.2235   22.0790 C   0  0  0  0  0  0
  -22.4273   -8.0264   21.3545 C   0  0  0  0  0  0
  -21.9898   -9.0249   20.4664 C   0  0  0  0  0  0
  -22.7220  -10.2132   20.3087 C   0  0  0  0  0  0
  -21.6851   -6.0713   22.5256 C   0  0  0  0  0  0
  -21.4023   -6.5640   23.8187 C   0  0  0  0  0  0
  -21.3673   -5.6797   24.9157 C   0  0  0  0  0  0
  -21.6040   -4.3055   24.7213 C   0  0  0  0  0  0
  -21.8834   -3.8142   23.4333 C   0  0  0  0  0  0
  -21.9213   -4.6955   22.3386 C   0  0  0  0  0  0
  -22.7888  -13.5217   21.1755 C   0  0  0  0  0  0
  -22.1683   -4.2133   21.0967 F   0  0  0  0  0  0
  -21.5624   -3.4542   25.7721 F   0  0  0  0  0  0
  -30.0605  -13.2021   20.4668 N   0  0  0  0  0  0
  -26.3107  -12.9309   20.3524 N   0  0  0  0  0  0
  -25.9367  -11.6468   20.5862 N   0  0  0  0  0  0
  -22.0507  -12.8256   22.0319 N   0  0  0  0  0  0
  -25.4312  -15.1852   20.4134 N   0  0  0  0  0  0
  -31.7360  -14.6739   20.0088 O   0  0  0  0  0  0
  -21.6658   -6.8851   21.4212 O   0  0  0  0  0  0
  -22.3597  -14.5525   20.6584 O   0  0  0  0  0  0
  -24.6112  -31.8687   23.2133 C   0  0  0  0  0  0
  -25.9016  -32.4831   23.8421 C   0  0  1  0  0  0
  -27.2495  -27.4635   20.0840 C   0  0  0  0  0  0
  -25.5884  -33.8626   24.2348 N   0  0  0  0  0  0
  -23.3982  -30.4899   21.5533 C   0  0  2  0  0  0
  -24.8455  -28.9558   20.1158 C   0  0  0  0  0  0
  -22.7400  -29.4639   22.5020 C   0  0  0  0  0  0
  -18.0270  -28.1369   22.8485 C   0  0  0  0  0  0
  -24.1475  -36.7319   23.2635 C   0  0  0  0  0  0
  -25.9231  -30.8380   21.3642 C   0  0  0  0  0  0
  -26.0002  -29.4737   20.7136 C   0  0  0  0  0  0
  -27.1986  -28.7312   20.6997 C   0  0  0  0  0  0
  -26.0742  -26.9483   19.4857 C   0  0  0  0  0  0
  -24.8756  -27.6901   19.5026 C   0  0  0  0  0  0
  -23.6051  -29.8206   20.1674 C   0  0  0  0  0  0
  -25.4094  -36.3121   24.0341 C   0  0  1  0  0  0
  -20.5855  -28.3640   23.1327 C   0  0  2  0  0  0
  -20.6754  -26.9382   22.5415 C   0  0  0  0  0  0
  -19.5736  -26.6379   21.5200 C   0  0  0  0  0  0
  -18.1917  -26.7913   22.1619 C   0  0  0  0  0  0
  -19.1520  -28.8825   23.2901 C   0  0  0  0  0  0
  -18.9448  -30.1434   23.8906 C   0  0  0  0  0  0
  -17.6450  -30.6573   24.0564 C   0  0  0  0  0  0
  -25.9019  -34.9476   23.5141 C   0  0  0  0  0  0
  -16.5341  -29.9075   23.6326 C   0  0  0  0  0  0
  -16.7259  -28.6496   23.0338 C   0  0  0  0  0  0
  -26.4458  -31.6609   25.0742 C   0  0  0  0  0  0
  -25.3756  -31.3717   26.1531 C   0  0  0  0  0  0
  -27.0254  -30.3043   24.6088 C   0  0  0  0  0  0
  -27.6058  -32.4317   25.7485 C   0  0  0  0  0  0
  -27.5573  -37.1810   24.8462 C   0  0  0  0  0  0
  -21.4132  -29.3009   22.3745 N   0  0  0  0  0  0
  -26.4279  -37.3804   23.9419 N   0  0  0  0  0  0
  -24.6619  -31.0799   22.1024 N   0  0  0  0  0  0
  -23.4179  -28.8182   23.3056 O   0  0  0  0  0  0
  -28.4596  -26.8028   20.1000 O   0  0  0  0  0  0
  -26.5583  -34.8924   22.4701 O   0  0  0  0  0  0
  -23.5308  -32.1429   23.7543 O   0  0  0  0  0  0
  -33.0257  -16.2626   24.4233 C   0  0  0  0  0  0
  -32.0945  -15.3833   23.8372 C   0  0  0  0  0  0
  -31.7914  -16.9525   22.0008 C   0  0  0  0  0  0
  -33.3415  -17.4932   23.8063 C   0  0  0  0  0  0
  -31.5048  -15.7110   22.6014 C   0  0  0  0  0  0
  -32.6912  -17.8591   22.6054 C   0  0  0  0  0  0
  -32.9945  -18.3065   17.9429 C   0  0  0  0  0  0
  -32.8210  -19.6135   18.1960 C   0  0  0  0  0  0
  -31.5891  -23.0143   19.4813 C   0  0  0  0  0  0
  -32.1231  -19.8507   21.2819 C   0  0  0  0  0  0
  -34.3732  -18.4049   24.4461 C   0  0  0  0  0  0
  -33.5929  -20.4171   19.2327 C   0  0  0  0  0  0
  -30.2128  -23.5977   19.1567 C   0  0  0  0  0  0
  -29.9680  -24.9663   19.8137 C   0  0  0  0  0  0
  -28.5698  -25.5191   19.5000 C   0  0  0  0  0  0
  -32.7143  -20.9539   20.3923 C   0  0  1  0  0  0
  -32.9899  -19.0925   21.9682 N   0  0  0  0  0  0
  -30.6348  -14.7910   21.9730 N   0  0  0  0  0  0
  -31.5945  -21.7498   19.8983 N   0  0  0  0  0  0
  -32.6139  -23.6867   19.3575 O   0  0  0  0  0  0
  -30.8946  -19.7104   21.3535 O   0  0  0  0  0  0
  -31.4489  -12.3928   19.0550 H   0  0  0  0  0  0
  -30.3260  -11.2529   19.7333 H   0  0  0  0  0  0
  -29.6896  -11.8116   17.3913 H   0  0  0  0  0  0
  -29.6583  -13.5182   17.7696 H   0  0  0  0  0  0
  -27.7887  -11.3415   18.7688 H   0  0  0  0  0  0
  -27.3527  -12.7293   17.8011 H   0  0  0  0  0  0
  -27.7335  -14.2631   19.6445 H   0  0  0  0  0  0
  -28.6655  -11.9029   21.3547 H   0  0  0  0  0  0
  -28.4750  -13.5451   21.8866 H   0  0  0  0  0  0
  -25.2729   -9.5670   22.4815 H   0  0  0  0  0  0
  -23.9974   -7.4639   22.7526 H   0  0  0  0  0  0
  -21.0825   -8.8747   19.8971 H   0  0  0  0  0  0
  -22.3654  -10.9683   19.6228 H   0  0  0  0  0  0
  -21.2007   -7.6147   23.9668 H   0  0  0  0  0  0
  -21.1490   -6.0540   25.9055 H   0  0  0  0  0  0
  -22.0613   -2.7605   23.2830 H   0  0  0  0  0  0
  -22.4109  -11.9930   22.4751 H   0  0  0  0  0  0
  -21.1139  -13.1352   22.2495 H   0  0  0  0  0  0
  -24.6584  -15.8291   20.5315 H   0  0  0  0  0  0
  -26.2841  -15.6385   20.1077 H   0  0  0  0  0  0
  -26.7086  -32.5541   23.1187 H   0  0  0  0  0  0
  -25.0064  -33.9803   25.0509 H   0  0  0  0  0  0
  -22.6850  -31.3051   21.4163 H   0  0  0  0  0  0
  -23.3737  -35.9651   23.3301 H   0  0  0  0  0  0
  -24.3567  -36.8927   22.2048 H   0  0  0  0  0  0
  -23.7224  -37.6520   23.6643 H   0  0  0  0  0  0
  -26.0331  -31.6030   20.5953 H   0  0  0  0  0  0
  -26.8118  -30.8916   21.9817 H   0  0  0  0  0  0
  -28.0918  -29.1311   21.1584 H   0  0  0  0  0  0
  -26.0654  -25.9850   18.9972 H   0  0  0  0  0  0
  -23.9886  -27.2837   19.0370 H   0  0  0  0  0  0
  -23.7112  -30.5960   19.4079 H   0  0  0  0  0  0
  -22.7292  -29.2398   19.8724 H   0  0  0  0  0  0
  -25.1261  -36.1989   25.0830 H   0  0  0  0  0  0
  -20.9933  -28.3197   24.1450 H   0  0  0  0  0  0
  -20.5643  -26.2246   23.3593 H   0  0  0  0  0  0
  -21.6631  -26.7418   22.1219 H   0  0  0  0  0  0
  -19.6898  -25.6299   21.1206 H   0  0  0  0  0  0
  -19.6674  -27.3209   20.6746 H   0  0  0  0  0  0
  -17.4182  -26.6651   21.4031 H   0  0  0  0  0  0
  -18.0331  -26.0055   22.9018 H   0  0  0  0  0  0
  -19.7925  -30.7247   24.2278 H   0  0  0  0  0  0
  -17.5004  -31.6251   24.5172 H   0  0  0  0  0  0
  -15.5343  -30.2974   23.7648 H   0  0  0  0  0  0
  -15.8661  -28.0818   22.7038 H   0  0  0  0  0  0
  -24.5892  -30.7094   25.7899 H   0  0  0  0  0  0
  -24.9004  -32.2876   26.5050 H   0  0  0  0  0  0
  -25.8150  -30.8844   27.0246 H   0  0  0  0  0  0
  -26.2761  -29.6839   24.1159 H   0  0  0  0  0  0
  -27.4031  -29.7254   25.4526 H   0  0  0  0  0  0
  -27.8608  -30.4356   23.9210 H   0  0  0  0  0  0
  -27.2703  -33.3624   26.2075 H   0  0  0  0  0  0
  -28.3862  -32.6861   25.0300 H   0  0  0  0  0  0
  -28.0726  -31.8427   26.5392 H   0  0  0  0  0  0
  -28.2604  -38.0097   24.7510 H   0  0  0  0  0  0
  -28.1058  -36.2632   24.6280 H   0  0  0  0  0  0
  -27.2300  -37.1458   25.8868 H   0  0  0  0  0  0
  -20.9295  -29.8730   21.6963 H   0  0  0  0  0  0
  -26.0170  -38.2874   24.1443 H   0  0  0  0  0  0
  -33.5084  -15.9834   25.3485 H   0  0  0  0  0  0
  -31.8708  -14.4418   24.3205 H   0  0  0  0  0  0
  -31.3321  -17.2015   21.0541 H   0  0  0  0  0  0
  -32.4036  -17.8055   17.1884 H   0  0  0  0  0  0
  -33.7209  -17.7110   18.4794 H   0  0  0  0  0  0
  -32.0779  -20.1602   17.6320 H   0  0  0  0  0  0
  -34.7067  -18.0152   25.4072 H   0  0  0  0  0  0
  -33.9624  -19.4030   24.6102 H   0  0  0  0  0  0
  -35.2487  -18.4913   23.8033 H   0  0  0  0  0  0
  -34.0805  -21.2494   18.7249 H   0  0  0  0  0  0
  -34.4046  -19.8056   19.6332 H   0  0  0  0  0  0
  -29.4391  -22.9021   19.4901 H   0  0  0  0  0  0
  -30.1155  -23.6743   18.0744 H   0  0  0  0  0  0
  -30.7267  -25.6766   19.4840 H   0  0  0  0  0  0
  -30.0850  -24.8736   20.8958 H   0  0  0  0  0  0
  -27.8133  -24.8391   19.8955 H   0  0  0  0  0  0
  -28.4283  -25.5967   18.4210 H   0  0  0  0  0  0
  -33.3285  -21.5857   21.0349 H   0  0  0  0  0  0
  -33.9503  -19.4018   21.9850 H   0  0  0  0  0  0
  -29.9501  -14.3236   22.5479 H   0  0  0  0  0  0
  -30.7012  -21.2895   20.0313 H   0  0  0  0  0  0
  1 25  1  0  0  0
  1 30  2  0  0  0
  1 88  1  0  0  0
  2  3  1  0  0  0
  2 25  1  0  0  0
  2 92  1  0  0  0
  2 93  1  0  0  0
  3  4  1  0  0  0
  3 94  1  0  0  0
  3 95  1  0  0  0
  4  5  1  0  0  0
  4 96  1  0  0  0
  4 97  1  0  0  0
  5  6  1  0  0  0
  5 26  1  0  0  0
  5 98  1  0  0  0
  6 25  1  0  0  0
  6 99  1  0  0  0
  6100  1  0  0  0
  7  8  2  0  0  0
  7 26  1  0  0  0
  7 29  1  0  0  0
  8  9  1  0  0  0
  8 22  1  0  0  0
  9 10  1  0  0  0
  9 27  2  0  0  0
 10 11  2  0  0  0
 10 15  1  0  0  0
 11 12  1  0  0  0
 11101  1  0  0  0
 12 13  2  0  0  0
 12102  1  0  0  0
 13 14  1  0  0  0
 13 31  1  0  0  0
 14 15  2  0  0  0
 14103  1  0  0  0
 15104  1  0  0  0
 16 17  2  0  0  0
 16 21  1  0  0  0
 16 31  1  0  0  0
 17 18  1  0  0  0
 17105  1  0  0  0
 18 19  2  0  0  0
 18106  1  0  0  0
 19 20  1  0  0  0
 19 24  1  0  0  0
 20 21  2  0  0  0
 20107  1  0  0  0
 21 23  1  0  0  0
 22 28  1  0  0  0
 22 32  2  0  0  0
 26 27  1  0  0  0
 28108  1  0  0  0
 28109  1  0  0  0
 29110  1  0  0  0
 29111  1  0  0  0
 33 34  1  0  0  0
 33 66  1  0  0  0
 33 70  2  0  0  0
 34 36  1  0  0  0
 34 59  1  0  0  0
 34112  1  0  0  0
 35 44  2  0  0  0
 35 45  1  0  0  0
 35 68  1  0  0  0
 36 56  1  0  0  0
 36113  1  0  0  0
 37 39  1  0  0  0
 37 47  1  0  0  0
 37 66  1  0  0  0
 37114  1  0  0  0
 38 43  2  0  0  0
 38 46  1  0  0  0
 38 47  1  0  0  0
 39 64  1  0  0  0
 39 67  2  0  0  0
 40 52  1  0  0  0
 40 53  2  0  0  0
 40 58  1  0  0  0
 41115  1  0  0  0
 41116  1  0  0  0
 41117  1  0  0  0
 41 48  1  0  0  0
 42 43  1  0  0  0
 42 66  1  0  0  0
 42118  1  0  0  0
 42119  1  0  0  0
 43 44  1  0  0  0
 44120  1  0  0  0
 45 46  2  0  0  0
 45121  1  0  0  0
 46122  1  0  0  0
 47123  1  0  0  0
 47124  1  0  0  0
 48 56  1  0  0  0
 48 65  1  0  0  0
 48125  1  0  0  0
 49 50  1  0  0  0
 49 53  1  0  0  0
 49 64  1  0  0  0
 49126  1  0  0  0
 50 51  1  0  0  0
 50127  1  0  0  0
 50128  1  0  0  0
 51 52  1  0  0  0
 51129  1  0  0  0
 51130  1  0  0  0
 52131  1  0  0  0
 52132  1  0  0  0
 53 54  1  0  0  0
 54 55  2  0  0  0
 54133  1  0  0  0
 55 57  1  0  0  0
 55134  1  0  0  0
 56 69  2  0  0  0
 57 58  2  0  0  0
 57135  1  0  0  0
 58136  1  0  0  0
 59 60  1  0  0  0
 59 61  1  0  0  0
 59 62  1  0  0  0
 60137  1  0  0  0
 60138  1  0  0  0
 60139  1  0  0  0
 61140  1  0  0  0
 61141  1  0  0  0
 61142  1  0  0  0
 62143  1  0  0  0
 62144  1  0  0  0
 62145  1  0  0  0
 63 65  1  0  0  0
 63146  1  0  0  0
 63147  1  0  0  0
 63148  1  0  0  0
 64149  1  0  0  0
 65150  1  0  0  0
 68 85  1  0  0  0
 71 72  2  0  0  0
 71 74  1  0  0  0
 71151  1  0  0  0
 72 75  1  0  0  0
 72152  1  0  0  0
 73 75  2  0  0  0
 73 76  1  0  0  0
 73153  1  0  0  0
 74 76  2  0  0  0
 74 81  1  0  0  0
 75 88  1  0  0  0
 76 87  1  0  0  0
 77 78  2  0  0  0
 77154  1  0  0  0
 77155  1  0  0  0
 78 82  1  0  0  0
 78156  1  0  0  0
 79 83  1  0  0  0
 79 89  1  0  0  0
 79 90  2  0  0  0
 80 86  1  0  0  0
 80 87  1  0  0  0
 80 91  2  0  0  0
 81157  1  0  0  0
 81158  1  0  0  0
 81159  1  0  0  0
 82160  1  0  0  0
 82161  1  0  0  0
 82 86  1  0  0  0
 83 84  1  0  0  0
 83162  1  0  0  0
 83163  1  0  0  0
 84 85  1  0  0  0
 84164  1  0  0  0
 84165  1  0  0  0
 85166  1  0  0  0
 85167  1  0  0  0
 86 89  1  0  0  0
 86168  1  0  0  0
 87169  1  0  0  0
 88170  1  0  0  0
 89171  1  0  0  0
M  ISO  4   1 100  68 101  85 101  88 100
M  END
> <chiral flag>
0

> <version>
0

> <s_m_source_file>
/data/baiqing/PycharmProjects/Reinvent-master-3.2/result/LINK_invent/BTK/process_docking_weight1_custom_sum_contain_oxygen_bond_distance_aromatic_linkinvent_7_9_3/rearranged_h_0004.sdf

> <i_m_source_file_index>
34

> <r_mmod_Potential_Energy-OPLS-2005>
-217.697692871094

> <r_mmod_Stretch_Energy-OPLS-2005>
32.6165351867676

> <r_mmod_Bend_Energy-OPLS-2005>
96.8398666381836

> <r_mmod_Torsional_Energy-OPLS-2005>
249.036575317383

> <r_mmod_Improper_Torsional_Energy-OPLS-2005>
4.51118040084839

> <r_mmod_Van_der_Waal_Energy-OPLS-2005>
167.203704833984

> <r_mmod_Electrostatic_Energy-OPLS-2005>
-534.538513183594

> <r_mmod_Solvation_Energy-OPLS-2005>
-243.308929443359

> <b_mmod_Minimization_Converged-OPLS-2005>
0

> <r_mmod_RMS_Derivative-OPLS-2005>
3.10548090934753

$$$$
34
                    3D
 Structure written by MMmdl.
174182  0  0  1  0            999 V2000
  -30.7972  -14.3212   20.7454 C   0  0  0  0  0  0
  -30.4158  -12.3033   19.3702 C   0  0  0  0  0  0
  -29.4734  -12.5348   18.1762 C   0  0  0  0  0  0
  -28.0011  -12.3831   18.6006 C   0  0  0  0  0  0
  -27.6635  -13.2018   19.8727 C   0  0  2  0  0  0
  -28.7018  -12.9383   20.9833 C   0  0  0  0  0  0
  -25.2598  -13.8152   20.5662 C   0  0  0  0  0  0
  -24.1841  -13.0435   20.9155 C   0  0  0  0  0  0
  -24.6388  -11.6900   20.8717 C   0  0  0  0  0  0
  -23.9050  -10.4287   21.0401 C   0  0  0  0  0  0
  -24.3604   -9.4206   21.9178 C   0  0  0  0  0  0
  -23.6286   -8.2243   22.0750 C   0  0  0  0  0  0
  -22.4269   -8.0276   21.3541 C   0  0  0  0  0  0
  -21.9896   -9.0246   20.4642 C   0  0  0  0  0  0
  -22.7222  -10.2124   20.3051 C   0  0  0  0  0  0
  -21.6846   -6.0727   22.5277 C   0  0  0  0  0  0
  -21.4014   -6.5637   23.8209 C   0  0  0  0  0  0
  -21.3655   -5.6796   24.9174 C   0  0  0  0  0  0
  -21.6050   -4.3061   24.7231 C   0  0  0  0  0  0
  -21.8819   -3.8140   23.4353 C   0  0  0  0  0  0
  -21.9193   -4.6953   22.3403 C   0  0  0  0  0  0
  -22.7866  -13.5234   21.1839 C   0  0  0  0  0  0
  -22.1662   -4.2135   21.0981 F   0  0  0  0  0  0
  -21.5624   -3.4547   25.7745 F   0  0  0  0  0  0
  -30.0473  -13.2297   20.4494 N   0  0  0  0  0  0
  -26.3036  -12.9316   20.3357 N   0  0  0  0  0  0
  -25.9310  -11.6473   20.5734 N   0  0  0  0  0  0
  -22.0514  -12.8216   22.0396 N   0  0  0  0  0  0
  -25.4349  -15.1861   20.4054 N   0  0  0  0  0  0
  -31.7887  -14.6677   20.0957 O   0  0  0  0  0  0
  -21.6639   -6.8866   21.4237 O   0  0  0  0  0  0
  -22.3544  -14.5545   20.6702 O   0  0  0  0  0  0
  -24.6109  -31.8713   23.2113 C   0  0  0  0  0  0
  -25.9014  -32.4842   23.8405 C   0  0  1  0  0  0
  -27.2384  -27.4735   20.0957 C   0  0  0  0  0  0
  -25.5885  -33.8645   24.2336 N   0  0  0  0  0  0
  -23.3967  -30.4941   21.5508 C   0  0  2  0  0  0
  -24.8434  -28.9587   20.1183 C   0  0  0  0  0  0
  -22.7382  -29.4681   22.5011 C   0  0  0  0  0  0
  -18.0268  -28.1399   22.8503 C   0  0  0  0  0  0
  -24.1486  -36.7322   23.2644 C   0  0  0  0  0  0
  -25.9198  -30.8492   21.3552 C   0  0  0  0  0  0
  -25.9985  -29.4812   20.7146 C   0  0  0  0  0  0
  -27.1981  -28.7433   20.7044 C   0  0  0  0  0  0
  -26.0728  -26.9530   19.4958 C   0  0  0  0  0  0
  -24.8729  -27.6901   19.5093 C   0  0  0  0  0  0
  -23.6021  -29.8211   20.1658 C   0  0  0  0  0  0
  -25.4107  -36.3129   24.0339 C   0  0  1  0  0  0
  -20.5855  -28.3663   23.1350 C   0  0  2  0  0  0
  -20.6769  -26.9410   22.5432 C   0  0  0  0  0  0
  -19.5736  -26.6393   21.5239 C   0  0  0  0  0  0
  -18.1911  -26.7949   22.1632 C   0  0  0  0  0  0
  -19.1516  -28.8847   23.2921 C   0  0  0  0  0  0
  -18.9451  -30.1454   23.8916 C   0  0  0  0  0  0
  -17.6455  -30.6598   24.0572 C   0  0  0  0  0  0
  -25.9027  -34.9490   23.5128 C   0  0  0  0  0  0
  -16.5350  -29.9108   23.6326 C   0  0  0  0  0  0
  -16.7256  -28.6533   23.0343 C   0  0  0  0  0  0
  -26.4459  -31.6623   25.0724 C   0  0  0  0  0  0
  -25.3738  -31.3727   26.1479 C   0  0  0  0  0  0
  -27.0279  -30.3080   24.6058 C   0  0  0  0  0  0
  -27.6035  -32.4349   25.7477 C   0  0  0  0  0  0
  -27.5574  -37.1826   24.8470 C   0  0  0  0  0  0
  -21.4118  -29.3040   22.3755 N   0  0  0  0  0  0
  -26.4291  -37.3814   23.9421 N   0  0  0  0  0  0
  -24.6614  -31.0861   22.0973 N   0  0  0  0  0  0
  -23.4182  -28.8208   23.3021 O   0  0  0  0  0  0
  -28.4226  -26.7872   20.0462 O   0  0  0  0  0  0
  -26.5592  -34.8941   22.4688 O   0  0  0  0  0  0
  -23.5310  -32.1446   23.7532 O   0  0  0  0  0  0
  -26.5205  -18.4784   27.2164 C   0  0  0  0  0  0
  -27.1172  -17.2366   26.8673 C   0  0  0  0  0  0
  -26.8039  -19.3658   26.2161 C   0  0  0  0  0  0
  -27.7370  -17.3969   25.6591 C   0  0  0  0  0  0
  -28.4784  -16.4096   24.8439 C   0  0  0  0  0  0
  -28.0926  -22.6958   22.0554 C   0  0  0  0  0  0
  -29.9348  -22.6169   20.3994 C   0  0  0  0  0  0
  -28.5969  -21.3558   22.6168 C   0  0  0  0  0  0
  -27.7947  -20.7948   23.8072 C   0  0  0  0  0  0
  -31.5666  -15.3338   24.0595 C   0  0  0  0  0  0
  -28.1312  -19.3108   24.0384 C   0  0  0  0  0  0
  -30.3840  -14.7989   24.9038 C   0  0  0  0  0  0
  -31.2103  -15.8981   22.6652 C   0  0  0  0  0  0
  -28.1857  -24.3739   20.2509 C   0  0  0  0  0  0
  -28.5341  -25.6950   20.9523 C   0  0  0  0  0  0
  -27.5650  -18.7184   25.2501 N   0  0  0  0  0  0
  -29.5256  -15.8462   25.4514 N   0  0  0  0  0  0
  -30.4483  -14.9236   21.8878 N   0  0  0  0  0  0
  -28.7185  -23.2086   20.9699 N   0  0  0  0  0  0
  -28.1516  -16.1593   23.6829 O   0  0  0  0  0  0
  -27.1207  -23.2483   22.5794 O   0  0  0  0  0  0
  -31.4544  -12.4232   19.0558 H   0  0  0  0  0  0
  -30.3314  -11.2751   19.7269 H   0  0  0  0  0  0
  -29.7038  -11.8324   17.3741 H   0  0  0  0  0  0
  -29.6364  -13.5321   17.7655 H   0  0  0  0  0  0
  -27.8124  -11.3233   18.7789 H   0  0  0  0  0  0
  -27.3424  -12.6743   17.7811 H   0  0  0  0  0  0
  -27.7223  -14.2563   19.6017 H   0  0  0  0  0  0
  -28.6646  -11.8943   21.2988 H   0  0  0  0  0  0
  -28.4361  -13.5145   21.8689 H   0  0  0  0  0  0
  -25.2749   -9.5690   22.4749 H   0  0  0  0  0  0
  -23.9994   -7.4640   22.7470 H   0  0  0  0  0  0
  -21.0826   -8.8755   19.8958 H   0  0  0  0  0  0
  -22.3672  -10.9656   19.6158 H   0  0  0  0  0  0
  -21.2006   -7.6148   23.9705 H   0  0  0  0  0  0
  -21.1477   -6.0531   25.9074 H   0  0  0  0  0  0
  -22.0601   -2.7605   23.2861 H   0  0  0  0  0  0
  -22.4126  -11.9862   22.4759 H   0  0  0  0  0  0
  -21.1147  -13.1245   22.2635 H   0  0  0  0  0  0
  -24.6792  -15.8511   20.5263 H   0  0  0  0  0  0
  -26.3103  -15.6224   20.1441 H   0  0  0  0  0  0
  -26.7074  -32.5550   23.1164 H   0  0  0  0  0  0
  -25.0109  -33.9830   25.0531 H   0  0  0  0  0  0
  -22.6840  -31.3091   21.4099 H   0  0  0  0  0  0
  -23.3746  -35.9660   23.3319 H   0  0  0  0  0  0
  -24.3580  -36.8913   22.2057 H   0  0  0  0  0  0
  -23.7227  -37.6533   23.6637 H   0  0  0  0  0  0
  -26.0203  -31.6077   20.5775 H   0  0  0  0  0  0
  -26.8137  -30.9152   21.9623 H   0  0  0  0  0  0
  -28.0925  -29.1489   21.1573 H   0  0  0  0  0  0
  -26.0942  -25.9904   19.0055 H   0  0  0  0  0  0
  -23.9852  -27.2834   19.0443 H   0  0  0  0  0  0
  -23.7052  -30.5944   19.4031 H   0  0  0  0  0  0
  -22.7285  -29.2368   19.8708 H   0  0  0  0  0  0
  -25.1282  -36.1999   25.0831 H   0  0  0  0  0  0
  -20.9946  -28.3221   24.1468 H   0  0  0  0  0  0
  -20.5725  -26.2267   23.3618 H   0  0  0  0  0  0
  -21.6640  -26.7498   22.1185 H   0  0  0  0  0  0
  -19.6904  -25.6309   21.1244 H   0  0  0  0  0  0
  -19.6678  -27.3233   20.6792 H   0  0  0  0  0  0
  -17.4201  -26.6724   21.4008 H   0  0  0  0  0  0
  -18.0261  -26.0107   22.9028 H   0  0  0  0  0  0
  -19.7929  -30.7265   24.2296 H   0  0  0  0  0  0
  -17.5016  -31.6278   24.5176 H   0  0  0  0  0  0
  -15.5352  -30.3018   23.7647 H   0  0  0  0  0  0
  -15.8655  -28.0856   22.7045 H   0  0  0  0  0  0
  -24.5900  -30.7069   25.7829 H   0  0  0  0  0  0
  -24.8949  -32.2899   26.4930 H   0  0  0  0  0  0
  -25.8115  -30.8906   27.0224 H   0  0  0  0  0  0
  -26.2813  -29.6862   24.1120 H   0  0  0  0  0  0
  -27.4092  -29.7287   25.4474 H   0  0  0  0  0  0
  -27.8604  -30.4429   23.9153 H   0  0  0  0  0  0
  -27.2635  -33.3636   26.2077 H   0  0  0  0  0  0
  -28.3833  -32.6943   25.0291 H   0  0  0  0  0  0
  -28.0718  -31.8470   26.5386 H   0  0  0  0  0  0
  -28.2619  -38.0103   24.7519 H   0  0  0  0  0  0
  -28.1038  -36.2642   24.6282 H   0  0  0  0  0  0
  -27.2300  -37.1454   25.8875 H   0  0  0  0  0  0
  -20.9273  -29.8751   21.6978 H   0  0  0  0  0  0
  -26.0172  -38.2887   24.1417 H   0  0  0  0  0  0
  -25.9465  -18.6994   28.1069 H   0  0  0  0  0  0
  -27.0846  -16.3135   27.4307 H   0  0  0  0  0  0
  -26.5310  -20.4092   26.1206 H   0  0  0  0  0  0
  -30.7019  -22.4681   21.1614 H   0  0  0  0  0  0
  -30.3851  -23.2490   19.6339 H   0  0  0  0  0  0
  -29.7153  -21.6524   19.9410 H   0  0  0  0  0  0
  -29.6399  -21.4577   22.9151 H   0  0  0  0  0  0
  -28.5698  -20.6311   21.8034 H   0  0  0  0  0  0
  -26.7217  -20.8927   23.6371 H   0  0  0  0  0  0
  -28.0353  -21.3838   24.6928 H   0  0  0  0  0  0
  -32.2744  -14.5140   23.9226 H   0  0  0  0  0  0
  -32.1106  -16.0879   24.6301 H   0  0  0  0  0  0
  -29.2153  -19.1887   24.0881 H   0  0  0  0  0  0
  -27.7860  -18.7322   23.1809 H   0  0  0  0  0  0
  -30.7816  -14.2379   25.7507 H   0  0  0  0  0  0
  -29.7875  -14.0816   24.3376 H   0  0  0  0  0  0
  -32.1252  -16.1901   22.1468 H   0  0  0  0  0  0
  -30.6173  -16.8076   22.7653 H   0  0  0  0  0  0
  -28.5707  -24.3976   19.2306 H   0  0  0  0  0  0
  -27.1056  -24.2760   20.1431 H   0  0  0  0  0  0
  -29.5731  -25.6688   21.2853 H   0  0  0  0  0  0
  -27.9243  -25.8391   21.8459 H   0  0  0  0  0  0
  -29.7015  -16.1435   26.4023 H   0  0  0  0  0  0
  -29.5893  -14.6028   22.3083 H   0  0  0  0  0  0
  1 25  1  0  0  0
  1 30  2  0  0  0
  1 88  1  0  0  0
  2  3  1  0  0  0
  2 25  1  0  0  0
  2 92  1  0  0  0
  2 93  1  0  0  0
  3  4  1  0  0  0
  3 94  1  0  0  0
  3 95  1  0  0  0
  4  5  1  0  0  0
  4 96  1  0  0  0
  4 97  1  0  0  0
  5  6  1  0  0  0
  5 26  1  0  0  0
  5 98  1  0  0  0
  6 25  1  0  0  0
  6 99  1  0  0  0
  6100  1  0  0  0
  7  8  2  0  0  0
  7 26  1  0  0  0
  7 29  1  0  0  0
  8  9  1  0  0  0
  8 22  1  0  0  0
  9 10  1  0  0  0
  9 27  2  0  0  0
 10 11  2  0  0  0
 10 15  1  0  0  0
 11 12  1  0  0  0
 11101  1  0  0  0
 12 13  2  0  0  0
 12102  1  0  0  0
 13 14  1  0  0  0
 13 31  1  0  0  0
 14 15  2  0  0  0
 14103  1  0  0  0
 15104  1  0  0  0
 16 17  2  0  0  0
 16 21  1  0  0  0
 16 31  1  0  0  0
 17 18  1  0  0  0
 17105  1  0  0  0
 18 19  2  0  0  0
 18106  1  0  0  0
 19 20  1  0  0  0
 19 24  1  0  0  0
 20 21  2  0  0  0
 20107  1  0  0  0
 21 23  1  0  0  0
 22 28  1  0  0  0
 22 32  2  0  0  0
 26 27  1  0  0  0
 28108  1  0  0  0
 28109  1  0  0  0
 29110  1  0  0  0
 29111  1  0  0  0
 33 34  1  0  0  0
 33 66  1  0  0  0
 33 70  2  0  0  0
 34 36  1  0  0  0
 34 59  1  0  0  0
 34112  1  0  0  0
 35 44  2  0  0  0
 35 45  1  0  0  0
 35 68  1  0  0  0
 36 56  1  0  0  0
 36113  1  0  0  0
 37 39  1  0  0  0
 37 47  1  0  0  0
 37 66  1  0  0  0
 37114  1  0  0  0
 38 43  2  0  0  0
 38 46  1  0  0  0
 38 47  1  0  0  0
 39 64  1  0  0  0
 39 67  2  0  0  0
 40 52  1  0  0  0
 40 53  2  0  0  0
 40 58  1  0  0  0
 41115  1  0  0  0
 41116  1  0  0  0
 41117  1  0  0  0
 41 48  1  0  0  0
 42 43  1  0  0  0
 42 66  1  0  0  0
 42118  1  0  0  0
 42119  1  0  0  0
 43 44  1  0  0  0
 44120  1  0  0  0
 45 46  2  0  0  0
 45121  1  0  0  0
 46122  1  0  0  0
 47123  1  0  0  0
 47124  1  0  0  0
 48 56  1  0  0  0
 48 65  1  0  0  0
 48125  1  0  0  0
 49 50  1  0  0  0
 49 53  1  0  0  0
 49 64  1  0  0  0
 49126  1  0  0  0
 50 51  1  0  0  0
 50127  1  0  0  0
 50128  1  0  0  0
 51 52  1  0  0  0
 51129  1  0  0  0
 51130  1  0  0  0
 52131  1  0  0  0
 52132  1  0  0  0
 53 54  1  0  0  0
 54 55  2  0  0  0
 54133  1  0  0  0
 55 57  1  0  0  0
 55134  1  0  0  0
 56 69  2  0  0  0
 57 58  2  0  0  0
 57135  1  0  0  0
 58136  1  0  0  0
 59 60  1  0  0  0
 59 61  1  0  0  0
 59 62  1  0  0  0
 60137  1  0  0  0
 60138  1  0  0  0
 60139  1  0  0  0
 61140  1  0  0  0
 61141  1  0  0  0
 61142  1  0  0  0
 62143  1  0  0  0
 62144  1  0  0  0
 62145  1  0  0  0
 63 65  1  0  0  0
 63146  1  0  0  0
 63147  1  0  0  0
 63148  1  0  0  0
 64149  1  0  0  0
 65150  1  0  0  0
 68 85  1  0  0  0
 71 72  1  0  0  0
 71 73  2  0  0  0
 71151  1  0  0  0
 72 74  2  0  0  0
 72152  1  0  0  0
 73 86  1  0  0  0
 73153  1  0  0  0
 74 75  1  0  0  0
 74 86  1  0  0  0
 75 87  1  0  0  0
 75 90  2  0  0  0
 76 78  1  0  0  0
 76 89  1  0  0  0
 76 91  2  0  0  0
 77 89  1  0  0  0
 77154  1  0  0  0
 77155  1  0  0  0
 77156  1  0  0  0
 78 79  1  0  0  0
 78157  1  0  0  0
 78158  1  0  0  0
 79 81  1  0  0  0
 79159  1  0  0  0
 79160  1  0  0  0
 80 82  1  0  0  0
 80 83  1  0  0  0
 80161  1  0  0  0
 80162  1  0  0  0
 81 86  1  0  0  0
 81163  1  0  0  0
 81164  1  0  0  0
 82 87  1  0  0  0
 82165  1  0  0  0
 82166  1  0  0  0
 83 88  1  0  0  0
 83167  1  0  0  0
 83168  1  0  0  0
 84 85  1  0  0  0
 84 89  1  0  0  0
 84169  1  0  0  0
 84170  1  0  0  0
 85171  1  0  0  0
 85172  1  0  0  0
 87173  1  0  0  0
 88174  1  0  0  0
M  ISO  4   1 100  68 101  85 101  88 100
M  END
> <chiral flag>
0

> <version>
0

> <s_m_source_file>
/data/baiqing/PycharmProjects/Reinvent-master-3.2/result/LINK_invent/BTK/process_docking_weight1_custom_sum_contain_oxygen_bond_distance_aromatic_linkinvent_7_9_3/rearranged_h_0004.sdf

> <i_m_source_file_index>
35

> <r_mmod_Potential_Energy-OPLS-2005>
-129.176681518555

> <r_mmod_Stretch_Energy-OPLS-2005>
33.1873741149902

> <r_mmod_Bend_Energy-OPLS-2005>
95.7538146972656

> <r_mmod_Torsional_Energy-OPLS-2005>
285.732879638672

> <r_mmod_Improper_Torsional_Energy-OPLS-2005>
2.75918459892273

> <r_mmod_Van_der_Waal_Energy-OPLS-2005>
136.05549621582

> <r_mmod_Electrostatic_Energy-OPLS-2005>
-438.674377441406

> <r_mmod_Solvation_Energy-OPLS-2005>
-251.663879394531

> <b_mmod_Minimization_Converged-OPLS-2005>
0

> <r_mmod_RMS_Derivative-OPLS-2005>
2.26856350898743

$$$$
35
                    3D
 Structure written by MMmdl.
165173  0  0  1  0            999 V2000
  -30.6096  -14.6920   20.4616 C   0  0  0  0  0  0
  -30.4388  -12.4200   19.4548 C   0  0  0  0  0  0
  -29.5081  -12.5079   18.2250 C   0  0  0  0  0  0
  -28.0322  -12.3396   18.6396 C   0  0  0  0  0  0
  -27.6459  -13.2187   19.8592 C   0  0  2  0  0  0
  -28.6967  -13.1160   20.9871 C   0  0  0  0  0  0
  -25.2486  -13.7935   20.5718 C   0  0  0  0  0  0
  -24.1772  -13.0252   20.9208 C   0  0  0  0  0  0
  -24.6393  -11.6764   20.8756 C   0  0  0  0  0  0
  -23.9055  -10.4188   21.0407 C   0  0  0  0  0  0
  -24.3596   -9.4123   21.9202 C   0  0  0  0  0  0
  -23.6266   -8.2166   22.0758 C   0  0  0  0  0  0
  -22.4251   -8.0225   21.3541 C   0  0  0  0  0  0
  -21.9890   -9.0198   20.4640 C   0  0  0  0  0  0
  -22.7225  -10.2068   20.3054 C   0  0  0  0  0  0
  -21.6822   -6.0712   22.5293 C   0  0  0  0  0  0
  -21.3981   -6.5619   23.8224 C   0  0  0  0  0  0
  -21.3657   -5.6775   24.9189 C   0  0  0  0  0  0
  -21.6049   -4.3036   24.7237 C   0  0  0  0  0  0
  -21.8828   -3.8131   23.4357 C   0  0  0  0  0  0
  -21.9183   -4.6947   22.3414 C   0  0  0  0  0  0
  -22.7810  -13.5102   21.1865 C   0  0  0  0  0  0
  -22.1657   -4.2139   21.0988 F   0  0  0  0  0  0
  -21.5643   -3.4519   25.7747 F   0  0  0  0  0  0
  -30.0034  -13.4606   20.4077 N   0  0  0  0  0  0
  -26.2975  -12.9235   20.3351 N   0  0  0  0  0  0
  -25.9341  -11.6381   20.5783 N   0  0  0  0  0  0
  -22.0422  -12.8151   22.0433 N   0  0  0  0  0  0
  -25.3980  -15.1572   20.4204 N   0  0  0  0  0  0
  -31.7988  -14.8253   20.1587 O   0  0  0  0  0  0
  -21.6596   -6.8846   21.4252 O   0  0  0  0  0  0
  -22.3537  -14.5438   20.6717 O   0  0  0  0  0  0
  -24.6267  -31.8596   23.2017 C   0  0  0  0  0  0
  -25.9119  -32.4774   23.8350 C   0  0  1  0  0  0
  -27.2379  -27.3281   20.1104 C   0  0  0  0  0  0
  -25.5936  -33.8575   24.2277 N   0  0  0  0  0  0
  -23.4198  -30.4827   21.5444 C   0  0  2  0  0  0
  -24.8676  -28.9359   20.1124 C   0  0  0  0  0  0
  -22.7472  -29.4635   22.4944 C   0  0  0  0  0  0
  -18.0280  -28.1391   22.8487 C   0  0  0  0  0  0
  -24.1488  -36.7286   23.2642 C   0  0  0  0  0  0
  -25.9603  -30.7931   21.3706 C   0  0  0  0  0  0
  -26.0359  -29.4206   20.7129 C   0  0  0  0  0  0
  -27.2217  -28.6288   20.7014 C   0  0  0  0  0  0
  -26.0418  -26.8930   19.4904 C   0  0  0  0  0  0
  -24.8711  -27.6761   19.4941 C   0  0  0  0  0  0
  -23.6341  -29.8141   20.1610 C   0  0  0  0  0  0
  -25.4112  -36.3076   24.0334 C   0  0  1  0  0  0
  -20.5880  -28.3699   23.1280 C   0  0  2  0  0  0
  -20.6771  -26.9425   22.5407 C   0  0  0  0  0  0
  -19.5748  -26.6391   21.5212 C   0  0  0  0  0  0
  -18.1926  -26.7935   22.1619 C   0  0  0  0  0  0
  -19.1533  -28.8861   23.2875 C   0  0  0  0  0  0
  -18.9460  -30.1461   23.8893 C   0  0  0  0  0  0
  -17.6461  -30.6594   24.0564 C   0  0  0  0  0  0
  -25.9055  -34.9451   23.5104 C   0  0  0  0  0  0
  -16.5350  -29.9092   23.6335 C   0  0  0  0  0  0
  -16.7270  -28.6509   23.0357 C   0  0  0  0  0  0
  -26.4498  -31.6581   25.0720 C   0  0  0  0  0  0
  -25.3736  -31.3710   26.1449 C   0  0  0  0  0  0
  -27.0336  -30.3003   24.6172 C   0  0  0  0  0  0
  -27.6054  -32.4315   25.7491 C   0  0  0  0  0  0
  -27.5577  -37.1798   24.8468 C   0  0  0  0  0  0
  -21.4187  -29.3049   22.3677 N   0  0  0  0  0  0
  -26.4285  -37.3777   23.9418 N   0  0  0  0  0  0
  -24.6879  -31.0616   22.0960 N   0  0  0  0  0  0
  -23.4195  -28.8191   23.3039 O   0  0  0  0  0  0
  -28.3730  -26.4993   20.1546 O   0  0  0  0  0  0
  -26.5616  -34.8921   22.4664 O   0  0  0  0  0  0
  -23.5432  -32.1393   23.7351 O   0  0  0  0  0  0
  -31.1696  -17.9164   20.7548 C   0  0  0  0  0  0
  -31.2449  -19.3452   20.7272 C   0  0  0  0  0  0
  -28.9154  -19.4815   20.2121 C   0  0  0  0  0  0
  -29.9489  -17.2255   20.5273 C   0  0  0  0  0  0
  -28.8138  -18.0537   20.2527 C   0  0  0  0  0  0
  -30.1195  -20.1749   20.4633 C   0  0  0  0  0  0
  -26.6167  -17.7612   22.3012 C   0  0  0  0  0  0
  -26.9346  -18.4568   17.7788 C   0  0  0  0  0  0
  -29.3847  -24.0467   20.3342 C   0  0  0  0  0  0
  -26.4565  -18.0309   20.7980 C   0  0  0  0  0  0
  -27.3284  -17.2079   18.5847 C   0  0  0  0  0  0
  -28.1929  -25.0399   19.9811 C   0  0  0  0  0  0
  -29.1101  -22.4780   20.2037 C   0  0  0  0  0  0
  -29.7715  -15.7686   20.6294 N   0  0  0  0  0  0
  -27.5591  -17.4581   20.0125 N   0  0  0  0  0  0
  -30.2459  -21.5833   20.4670 O   0  0  0  0  0  0
  -31.4786  -12.5515   19.1501 H   0  0  0  0  0  0
  -30.3826  -11.4327   19.9155 H   0  0  0  0  0  0
  -29.7783  -11.7480   17.4913 H   0  0  0  0  0  0
  -29.6433  -13.4711   17.7302 H   0  0  0  0  0  0
  -27.8772  -11.2879   18.8807 H   0  0  0  0  0  0
  -27.3758  -12.5572   17.7967 H   0  0  0  0  0  0
  -27.6415  -14.2481   19.5005 H   0  0  0  0  0  0
  -28.7213  -12.1088   21.4056 H   0  0  0  0  0  0
  -28.4419  -13.7796   21.8154 H   0  0  0  0  0  0
  -25.2731   -9.5601   22.4796 H   0  0  0  0  0  0
  -23.9967   -7.4547   22.7475 H   0  0  0  0  0  0
  -21.0820   -8.8718   19.8942 H   0  0  0  0  0  0
  -22.3690  -10.9617   19.6169 H   0  0  0  0  0  0
  -21.1947   -7.6124   23.9727 H   0  0  0  0  0  0
  -21.1475   -6.0497   25.9093 H   0  0  0  0  0  0
  -22.0610   -2.7594   23.2853 H   0  0  0  0  0  0
  -22.3976  -11.9795   22.4840 H   0  0  0  0  0  0
  -21.1050  -13.1237   22.2615 H   0  0  0  0  0  0
  -24.6116  -15.7773   20.5710 H   0  0  0  0  0  0
  -26.2601  -15.6592   20.2218 H   0  0  0  0  0  0
  -26.7191  -32.5446   23.1104 H   0  0  0  0  0  0
  -25.0101  -33.9714   25.0434 H   0  0  0  0  0  0
  -22.7137  -31.3031   21.3998 H   0  0  0  0  0  0
  -23.3755  -35.9614   23.3295 H   0  0  0  0  0  0
  -24.3582  -36.8913   22.2059 H   0  0  0  0  0  0
  -23.7237  -37.6486   23.6665 H   0  0  0  0  0  0
  -26.0902  -31.5571   20.6028 H   0  0  0  0  0  0
  -26.8408  -30.8411   21.9997 H   0  0  0  0  0  0
  -28.1183  -28.9997   21.1774 H   0  0  0  0  0  0
  -25.9819  -25.9322   19.0016 H   0  0  0  0  0  0
  -23.9744  -27.2971   19.0222 H   0  0  0  0  0  0
  -23.7520  -30.5883   19.4018 H   0  0  0  0  0  0
  -22.7547  -29.2412   19.8612 H   0  0  0  0  0  0
  -25.1293  -36.1921   25.0828 H   0  0  0  0  0  0
  -20.9967  -28.3277   24.1401 H   0  0  0  0  0  0
  -20.5674  -26.2321   23.3613 H   0  0  0  0  0  0
  -21.6642  -26.7463   22.1203 H   0  0  0  0  0  0
  -19.6916  -25.6300   21.1247 H   0  0  0  0  0  0
  -19.6686  -27.3195   20.6734 H   0  0  0  0  0  0
  -17.4206  -26.6691   21.4011 H   0  0  0  0  0  0
  -18.0317  -26.0070   22.9006 H   0  0  0  0  0  0
  -19.7940  -30.7266   24.2267 H   0  0  0  0  0  0
  -17.5025  -31.6274   24.5166 H   0  0  0  0  0  0
  -15.5350  -30.2995   23.7665 H   0  0  0  0  0  0
  -15.8669  -28.0825   22.7078 H   0  0  0  0  0  0
  -24.5923  -30.7042   25.7786 H   0  0  0  0  0  0
  -24.8913  -32.2868   26.4872 H   0  0  0  0  0  0
  -25.8073  -30.8900   27.0226 H   0  0  0  0  0  0
  -26.2903  -29.6748   24.1216 H   0  0  0  0  0  0
  -27.4051  -29.7262   25.4672 H   0  0  0  0  0  0
  -27.8767  -30.4277   23.9378 H   0  0  0  0  0  0
  -27.2665  -33.3625   26.2045 H   0  0  0  0  0  0
  -28.3876  -32.6857   25.0327 H   0  0  0  0  0  0
  -28.0709  -31.8457   26.5427 H   0  0  0  0  0  0
  -28.2592  -38.0097   24.7513 H   0  0  0  0  0  0
  -28.1067  -36.2627   24.6284 H   0  0  0  0  0  0
  -27.2298  -37.1439   25.8871 H   0  0  0  0  0  0
  -20.9378  -29.8754   21.6863 H   0  0  0  0  0  0
  -26.0161  -38.2851   24.1410 H   0  0  0  0  0  0
  -32.0649  -17.3559   20.9802 H   0  0  0  0  0  0
  -32.1988  -19.8143   20.9236 H   0  0  0  0  0  0
  -28.0430  -20.0664   19.9729 H   0  0  0  0  0  0
  -25.7470  -18.1209   22.8514 H   0  0  0  0  0  0
  -27.4914  -18.2645   22.7135 H   0  0  0  0  0  0
  -26.7143  -16.6948   22.5078 H   0  0  0  0  0  0
  -26.7265  -18.1830   16.7447 H   0  0  0  0  0  0
  -27.7294  -19.2017   17.7550 H   0  0  0  0  0  0
  -26.0349  -18.9308   18.1714 H   0  0  0  0  0  0
  -29.7074  -24.2514   21.3550 H   0  0  0  0  0  0
  -30.2335  -24.3019   19.7001 H   0  0  0  0  0  0
  -26.3550  -19.1030   20.6361 H   0  0  0  0  0  0
  -25.5048  -17.6331   20.4503 H   0  0  0  0  0  0
  -28.2206  -16.7606   18.1420 H   0  0  0  0  0  0
  -26.5425  -16.4613   18.4707 H   0  0  0  0  0  0
  -27.3333  -24.7328   20.5793 H   0  0  0  0  0  0
  -27.9251  -24.8574   18.9395 H   0  0  0  0  0  0
  -28.7452  -22.2709   19.1969 H   0  0  0  0  0  0
  -28.2996  -22.2161   20.8846 H   0  0  0  0  0  0
  -28.8003  -15.5111   20.7205 H   0  0  0  0  0  0
  1 25  1  0  0  0
  1 30  2  0  0  0
  1 84  1  0  0  0
  2  3  1  0  0  0
  2 25  1  0  0  0
  2 87  1  0  0  0
  2 88  1  0  0  0
  3  4  1  0  0  0
  3 89  1  0  0  0
  3 90  1  0  0  0
  4  5  1  0  0  0
  4 91  1  0  0  0
  4 92  1  0  0  0
  5  6  1  0  0  0
  5 26  1  0  0  0
  5 93  1  0  0  0
  6 25  1  0  0  0
  6 94  1  0  0  0
  6 95  1  0  0  0
  7  8  2  0  0  0
  7 26  1  0  0  0
  7 29  1  0  0  0
  8  9  1  0  0  0
  8 22  1  0  0  0
  9 10  1  0  0  0
  9 27  2  0  0  0
 10 11  2  0  0  0
 10 15  1  0  0  0
 11 12  1  0  0  0
 11 96  1  0  0  0
 12 13  2  0  0  0
 12 97  1  0  0  0
 13 14  1  0  0  0
 13 31  1  0  0  0
 14 15  2  0  0  0
 14 98  1  0  0  0
 15 99  1  0  0  0
 16 17  2  0  0  0
 16 21  1  0  0  0
 16 31  1  0  0  0
 17 18  1  0  0  0
 17100  1  0  0  0
 18 19  2  0  0  0
 18101  1  0  0  0
 19 20  1  0  0  0
 19 24  1  0  0  0
 20 21  2  0  0  0
 20102  1  0  0  0
 21 23  1  0  0  0
 22 28  1  0  0  0
 22 32  2  0  0  0
 26 27  1  0  0  0
 28103  1  0  0  0
 28104  1  0  0  0
 29105  1  0  0  0
 29106  1  0  0  0
 33 34  1  0  0  0
 33 66  1  0  0  0
 33 70  2  0  0  0
 34 36  1  0  0  0
 34 59  1  0  0  0
 34107  1  0  0  0
 35 44  2  0  0  0
 35 45  1  0  0  0
 35 68  1  0  0  0
 36 56  1  0  0  0
 36108  1  0  0  0
 37 39  1  0  0  0
 37 47  1  0  0  0
 37 66  1  0  0  0
 37109  1  0  0  0
 38 43  2  0  0  0
 38 46  1  0  0  0
 38 47  1  0  0  0
 39 64  1  0  0  0
 39 67  2  0  0  0
 40 52  1  0  0  0
 40 53  2  0  0  0
 40 58  1  0  0  0
 41110  1  0  0  0
 41111  1  0  0  0
 41112  1  0  0  0
 41 48  1  0  0  0
 42 43  1  0  0  0
 42 66  1  0  0  0
 42113  1  0  0  0
 42114  1  0  0  0
 43 44  1  0  0  0
 44115  1  0  0  0
 45 46  2  0  0  0
 45116  1  0  0  0
 46117  1  0  0  0
 47118  1  0  0  0
 47119  1  0  0  0
 48 56  1  0  0  0
 48 65  1  0  0  0
 48120  1  0  0  0
 49 50  1  0  0  0
 49 53  1  0  0  0
 49 64  1  0  0  0
 49121  1  0  0  0
 50 51  1  0  0  0
 50122  1  0  0  0
 50123  1  0  0  0
 51 52  1  0  0  0
 51124  1  0  0  0
 51125  1  0  0  0
 52126  1  0  0  0
 52127  1  0  0  0
 53 54  1  0  0  0
 54 55  2  0  0  0
 54128  1  0  0  0
 55 57  1  0  0  0
 55129  1  0  0  0
 56 69  2  0  0  0
 57 58  2  0  0  0
 57130  1  0  0  0
 58131  1  0  0  0
 59 60  1  0  0  0
 59 61  1  0  0  0
 59 62  1  0  0  0
 60132  1  0  0  0
 60133  1  0  0  0
 60134  1  0  0  0
 61135  1  0  0  0
 61136  1  0  0  0
 61137  1  0  0  0
 62138  1  0  0  0
 62139  1  0  0  0
 62140  1  0  0  0
 63 65  1  0  0  0
 63141  1  0  0  0
 63142  1  0  0  0
 63143  1  0  0  0
 64144  1  0  0  0
 65145  1  0  0  0
 68 82  1  0  0  0
 71 72  2  0  0  0
 71 74  1  0  0  0
 71146  1  0  0  0
 72 76  1  0  0  0
 72147  1  0  0  0
 73 75  1  0  0  0
 73 76  2  0  0  0
 73148  1  0  0  0
 74 75  2  0  0  0
 74 84  1  0  0  0
 75 85  1  0  0  0
 76 86  1  0  0  0
 77 80  1  0  0  0
 77149  1  0  0  0
 77150  1  0  0  0
 77151  1  0  0  0
 78 81  1  0  0  0
 78152  1  0  0  0
 78153  1  0  0  0
 78154  1  0  0  0
 79 82  1  0  0  0
 79 83  1  0  0  0
 79155  1  0  0  0
 79156  1  0  0  0
 80 85  1  0  0  0
 80157  1  0  0  0
 80158  1  0  0  0
 81 85  1  0  0  0
 81159  1  0  0  0
 81160  1  0  0  0
 82161  1  0  0  0
 82162  1  0  0  0
 83 86  1  0  0  0
 83163  1  0  0  0
 83164  1  0  0  0
 84165  1  0  0  0
M  ISO  4   1 100  68 101  82 101  84 100
M  END
> <chiral flag>
0

> <version>
0

> <s_m_source_file>
/data/baiqing/PycharmProjects/Reinvent-master-3.2/result/LINK_invent/BTK/process_docking_weight1_custom_sum_contain_oxygen_bond_distance_aromatic_linkinvent_7_9_3/rearranged_h_0004.sdf

> <i_m_source_file_index>
36

> <r_mmod_Potential_Energy-OPLS-2005>
12.8349189758301

> <r_mmod_Stretch_Energy-OPLS-2005>
83.856330871582

> <r_mmod_Bend_Energy-OPLS-2005>
146.705642700195

> <r_mmod_Torsional_Energy-OPLS-2005>
231.280044555664

> <r_mmod_Improper_Torsional_Energy-OPLS-2005>
9.48149681091309

> <r_mmod_Van_der_Waal_Energy-OPLS-2005>
148.334564208984

> <r_mmod_Electrostatic_Energy-OPLS-2005>
-469.923614501953

> <r_mmod_Solvation_Energy-OPLS-2005>
-194.089508056641

> <b_mmod_Minimization_Converged-OPLS-2005>
0

> <r_mmod_RMS_Derivative-OPLS-2005>
1.09142184257507

$$$$
36
                    3D
 Structure written by MMmdl.
158167  0  0  1  0            999 V2000
  -30.4779  -15.0546   20.4044 C   0  0  0  0  0  0
  -30.4457  -12.6569   19.5154 C   0  0  0  0  0  0
  -29.5321  -12.5669   18.2674 C   0  0  0  0  0  0
  -28.0638  -12.3389   18.6788 C   0  0  0  0  0  0
  -27.6318  -13.2607   19.8471 C   0  0  2  0  0  0
  -28.6696  -13.2945   20.9905 C   0  0  0  0  0  0
  -25.2457  -13.8226   20.5718 C   0  0  0  0  0  0
  -24.1772  -13.0443   20.9219 C   0  0  0  0  0  0
  -24.6412  -11.6930   20.8731 C   0  0  0  0  0  0
  -23.9080  -10.4302   21.0393 C   0  0  0  0  0  0
  -24.3634   -9.4211   21.9169 C   0  0  0  0  0  0
  -23.6307   -8.2247   22.0738 C   0  0  0  0  0  0
  -22.4274   -8.0288   21.3541 C   0  0  0  0  0  0
  -21.9884   -9.0278   20.4662 C   0  0  0  0  0  0
  -22.7226  -10.2157   20.3071 C   0  0  0  0  0  0
  -21.6849   -6.0744   22.5271 C   0  0  0  0  0  0
  -21.4030   -6.5647   23.8219 C   0  0  0  0  0  0
  -21.3648   -5.6788   24.9169 C   0  0  0  0  0  0
  -21.6040   -4.3054   24.7214 C   0  0  0  0  0  0
  -21.8812   -3.8149   23.4332 C   0  0  0  0  0  0
  -21.9202   -4.6969   22.3392 C   0  0  0  0  0  0
  -22.7784  -13.5213   21.1873 C   0  0  0  0  0  0
  -22.1667   -4.2167   21.0964 F   0  0  0  0  0  0
  -21.5623   -3.4539   25.7720 F   0  0  0  0  0  0
  -29.9357  -13.7548   20.4030 N   0  0  0  0  0  0
  -26.2911  -12.9490   20.3273 N   0  0  0  0  0  0
  -25.9352  -11.6602   20.5707 N   0  0  0  0  0  0
  -22.0435  -12.8243   22.0468 N   0  0  0  0  0  0
  -25.4112  -15.1959   20.4211 N   0  0  0  0  0  0
  -31.6503  -15.1414   20.0194 O   0  0  0  0  0  0
  -21.6634   -6.8888   21.4227 O   0  0  0  0  0  0
  -22.3483  -14.5515   20.6711 O   0  0  0  0  0  0
  -24.6517  -31.8354   23.1790 C   0  0  0  0  0  0
  -25.9224  -32.4662   23.8249 C   0  0  1  0  0  0
  -27.2207  -27.0466   20.1653 C   0  0  0  0  0  0
  -25.5922  -33.8473   24.2139 N   0  0  0  0  0  0
  -23.4624  -30.4510   21.5250 C   0  0  2  0  0  0
  -24.9134  -28.8580   20.1115 C   0  0  0  0  0  0
  -22.7619  -29.4498   22.4804 C   0  0  0  0  0  0
  -18.0312  -28.1397   22.8457 C   0  0  0  0  0  0
  -24.1490  -36.7243   23.2644 C   0  0  0  0  0  0
  -26.0251  -30.6769   21.3963 C   0  0  0  0  0  0
  -26.0933  -29.2807   20.7359 C   0  0  0  0  0  0
  -27.2446  -28.3927   20.7398 C   0  0  0  0  0  0
  -26.0139  -26.7433   19.4980 C   0  0  0  0  0  0
  -24.8902  -27.6062   19.4757 C   0  0  0  0  0  0
  -23.6963  -29.7743   20.1479 C   0  0  0  0  0  0
  -25.4128  -36.3019   24.0308 C   0  0  1  0  0  0
  -20.5927  -28.3744   23.1198 C   0  0  2  0  0  0
  -20.6798  -26.9435   22.5398 C   0  0  0  0  0  0
  -19.5767  -26.6355   21.5215 C   0  0  0  0  0  0
  -18.1949  -26.7920   22.1629 C   0  0  0  0  0  0
  -19.1569  -28.8886   23.2817 C   0  0  0  0  0  0
  -18.9485  -30.1483   23.8851 C   0  0  0  0  0  0
  -17.6482  -30.6596   24.0548 C   0  0  0  0  0  0
  -25.9081  -34.9393   23.5045 C   0  0  0  0  0  0
  -16.5372  -29.9090   23.6333 C   0  0  0  0  0  0
  -16.7296  -28.6501   23.0359 C   0  0  0  0  0  0
  -26.4493  -31.6579   25.0749 C   0  0  0  0  0  0
  -25.3635  -31.3861   26.1439 C   0  0  0  0  0  0
  -27.0336  -30.2931   24.6444 C   0  0  0  0  0  0
  -27.6044  -32.4357   25.7495 C   0  0  0  0  0  0
  -27.5591  -37.1771   24.8452 C   0  0  0  0  0  0
  -21.4303  -29.3045   22.3553 N   0  0  0  0  0  0
  -26.4290  -37.3741   23.9413 N   0  0  0  0  0  0
  -24.7326  -31.0138   22.0868 N   0  0  0  0  0  0
  -23.4204  -28.8056   23.3009 O   0  0  0  0  0  0
  -28.2565  -26.0173   20.2458 O   0  0  0  0  0  0
  -26.5704  -34.8898   22.4642 O   0  0  0  0  0  0
  -23.5599  -32.1276   23.6941 O   0  0  0  0  0  0
  -33.5031  -21.6595   22.2059 C   0  0  0  0  0  0
  -32.4043  -21.8379   23.0696 C   0  0  0  0  0  0
  -33.2912  -21.5427   20.8192 C   0  0  0  0  0  0
  -27.6202  -18.8393   18.9351 C   0  0  0  0  0  0
  -31.0973  -21.9052   22.5490 C   0  0  0  0  0  0
  -31.9845  -21.6079   20.2989 C   0  0  0  0  0  0
  -27.9944  -20.1380   19.3602 C   0  0  0  0  0  0
  -28.2717  -17.6480   19.3515 C   0  0  0  0  0  0
  -29.7105  -19.0414   20.6814 C   0  0  0  0  0  0
  -30.8798  -21.8047   21.1570 C   0  0  0  0  0  0
  -29.0759  -20.3492   20.2387 C   0  0  0  0  0  0
  -29.3530  -17.6401   20.2599 C   0  0  0  0  0  0
  -29.1438  -23.2933   20.5160 C   0  0  0  0  0  0
  -29.5216  -21.8830   20.5845 C   0  0  0  0  0  0
  -28.0220  -24.4466   20.0632 C   0  0  0  0  0  0
  -29.7213  -16.2160   20.8046 N   0  0  0  0  0  0
  -31.4769  -12.8321   19.2055 H   0  0  0  0  0  0
  -30.4616  -11.7058   20.0483 H   0  0  0  0  0  0
  -29.8680  -11.7704   17.6037 H   0  0  0  0  0  0
  -29.6102  -13.4939   17.6953 H   0  0  0  0  0  0
  -27.9567  -11.2953   18.9781 H   0  0  0  0  0  0
  -27.4011  -12.4824   17.8236 H   0  0  0  0  0  0
  -27.5989  -14.2657   19.4285 H   0  0  0  0  0  0
  -28.7759  -12.3105   21.4480 H   0  0  0  0  0  0
  -28.3503  -13.9698   21.7850 H   0  0  0  0  0  0
  -25.2800   -9.5714   22.4721 H   0  0  0  0  0  0
  -24.0049   -7.4623   22.7437 H   0  0  0  0  0  0
  -21.0813   -8.8828   19.8974 H   0  0  0  0  0  0
  -22.3683  -10.9719   19.6204 H   0  0  0  0  0  0
  -21.2040   -7.6158   23.9733 H   0  0  0  0  0  0
  -21.1462   -6.0506   25.9075 H   0  0  0  0  0  0
  -22.0603   -2.7620   23.2814 H   0  0  0  0  0  0
  -22.4062  -11.9964   22.4959 H   0  0  0  0  0  0
  -21.1061  -13.1320   22.2677 H   0  0  0  0  0  0
  -24.6479  -15.8484   20.5592 H   0  0  0  0  0  0
  -26.2652  -15.6452   20.1204 H   0  0  0  0  0  0
  -26.7297  -32.5226   23.0981 H   0  0  0  0  0  0
  -25.0006  -33.9574   25.0245 H   0  0  0  0  0  0
  -22.7687  -31.2782   21.3628 H   0  0  0  0  0  0
  -23.3778  -35.9549   23.3265 H   0  0  0  0  0  0
  -24.3577  -36.8931   22.2072 H   0  0  0  0  0  0
  -23.7218  -37.6405   23.6722 H   0  0  0  0  0  0
  -26.2052  -31.4300   20.6277 H   0  0  0  0  0  0
  -26.8826  -30.7191   22.0558 H   0  0  0  0  0  0
  -28.1415  -28.7127   21.2503 H   0  0  0  0  0  0
  -25.9099  -25.7858   19.0090 H   0  0  0  0  0  0
  -23.9901  -27.2755   18.9746 H   0  0  0  0  0  0
  -23.8471  -30.5442   19.3917 H   0  0  0  0  0  0
  -22.8081  -29.2240   19.8341 H   0  0  0  0  0  0
  -25.1324  -36.1842   25.0803 H   0  0  0  0  0  0
  -21.0019  -28.3351   24.1324 H   0  0  0  0  0  0
  -20.5678  -26.2375   23.3641 H   0  0  0  0  0  0
  -21.6671  -26.7415   22.1215 H   0  0  0  0  0  0
  -19.6934  -25.6239   21.1316 H   0  0  0  0  0  0
  -19.6703  -27.3110   20.6698 H   0  0  0  0  0  0
  -17.4215  -26.6622   21.4054 H   0  0  0  0  0  0
  -18.0372  -26.0099   22.9063 H   0  0  0  0  0  0
  -19.7965  -30.7300   24.2206 H   0  0  0  0  0  0
  -17.5040  -31.6282   24.5149 H   0  0  0  0  0  0
  -15.5370  -30.2982   23.7672 H   0  0  0  0  0  0
  -15.8694  -28.0805   22.7105 H   0  0  0  0  0  0
  -24.5594  -30.7525   25.7683 H   0  0  0  0  0  0
  -24.9114  -32.3117   26.5023 H   0  0  0  0  0  0
  -25.7799  -30.8773   27.0143 H   0  0  0  0  0  0
  -26.2970  -29.6654   24.1419 H   0  0  0  0  0  0
  -27.3814  -29.7276   25.5104 H   0  0  0  0  0  0
  -27.8958  -30.4102   23.9875 H   0  0  0  0  0  0
  -27.2619  -33.3619   26.2125 H   0  0  0  0  0  0
  -28.3780  -32.6993   25.0269 H   0  0  0  0  0  0
  -28.0800  -31.8474   26.5354 H   0  0  0  0  0  0
  -28.2585  -38.0093   24.7530 H   0  0  0  0  0  0
  -28.1104  -36.2624   24.6223 H   0  0  0  0  0  0
  -27.2319  -37.1370   25.8856 H   0  0  0  0  0  0
  -20.9534  -29.8751   21.6713 H   0  0  0  0  0  0
  -26.0152  -38.2806   24.1420 H   0  0  0  0  0  0
  -34.5066  -21.6043   22.6072 H   0  0  0  0  0  0
  -32.5686  -21.9200   24.1349 H   0  0  0  0  0  0
  -34.1314  -21.3964   20.1534 H   0  0  0  0  0  0
  -26.7779  -18.7448   18.2664 H   0  0  0  0  0  0
  -30.2587  -22.0379   23.2199 H   0  0  0  0  0  0
  -31.8295  -21.5119   19.2325 H   0  0  0  0  0  0
  -27.4420  -20.9909   18.9865 H   0  0  0  0  0  0
  -27.8798  -16.7078   18.9884 H   0  0  0  0  0  0
  -30.5150  -19.1222   21.3959 H   0  0  0  0  0  0
  -29.9278  -23.9139   20.9303 H   0  0  0  0  0  0
  -27.0898  -24.1896   20.5660 H   0  0  0  0  0  0
  -27.8315  -24.2823   19.0020 H   0  0  0  0  0  0
  -28.9381  -15.8609   21.3373 H   0  0  0  0  0  0
  1 25  1  0  0  0
  1 30  2  0  0  0
  1 86  1  0  0  0
  2  3  1  0  0  0
  2 25  1  0  0  0
  2 87  1  0  0  0
  2 88  1  0  0  0
  3  4  1  0  0  0
  3 89  1  0  0  0
  3 90  1  0  0  0
  4  5  1  0  0  0
  4 91  1  0  0  0
  4 92  1  0  0  0
  5  6  1  0  0  0
  5 26  1  0  0  0
  5 93  1  0  0  0
  6 25  1  0  0  0
  6 94  1  0  0  0
  6 95  1  0  0  0
  7  8  2  0  0  0
  7 26  1  0  0  0
  7 29  1  0  0  0
  8  9  1  0  0  0
  8 22  1  0  0  0
  9 10  1  0  0  0
  9 27  2  0  0  0
 10 11  2  0  0  0
 10 15  1  0  0  0
 11 12  1  0  0  0
 11 96  1  0  0  0
 12 13  2  0  0  0
 12 97  1  0  0  0
 13 14  1  0  0  0
 13 31  1  0  0  0
 14 15  2  0  0  0
 14 98  1  0  0  0
 15 99  1  0  0  0
 16 17  2  0  0  0
 16 21  1  0  0  0
 16 31  1  0  0  0
 17 18  1  0  0  0
 17100  1  0  0  0
 18 19  2  0  0  0
 18101  1  0  0  0
 19 20  1  0  0  0
 19 24  1  0  0  0
 20 21  2  0  0  0
 20102  1  0  0  0
 21 23  1  0  0  0
 22 28  1  0  0  0
 22 32  2  0  0  0
 26 27  1  0  0  0
 28103  1  0  0  0
 28104  1  0  0  0
 29105  1  0  0  0
 29106  1  0  0  0
 33 34  1  0  0  0
 33 66  1  0  0  0
 33 70  2  0  0  0
 34 36  1  0  0  0
 34 59  1  0  0  0
 34107  1  0  0  0
 35 44  2  0  0  0
 35 45  1  0  0  0
 35 68  1  0  0  0
 36 56  1  0  0  0
 36108  1  0  0  0
 37 39  1  0  0  0
 37 47  1  0  0  0
 37 66  1  0  0  0
 37109  1  0  0  0
 38 43  2  0  0  0
 38 46  1  0  0  0
 38 47  1  0  0  0
 39 64  1  0  0  0
 39 67  2  0  0  0
 40 52  1  0  0  0
 40 53  2  0  0  0
 40 58  1  0  0  0
 41110  1  0  0  0
 41111  1  0  0  0
 41112  1  0  0  0
 41 48  1  0  0  0
 42 43  1  0  0  0
 42 66  1  0  0  0
 42113  1  0  0  0
 42114  1  0  0  0
 43 44  1  0  0  0
 44115  1  0  0  0
 45 46  2  0  0  0
 45116  1  0  0  0
 46117  1  0  0  0
 47118  1  0  0  0
 47119  1  0  0  0
 48 56  1  0  0  0
 48 65  1  0  0  0
 48120  1  0  0  0
 49 50  1  0  0  0
 49 53  1  0  0  0
 49 64  1  0  0  0
 49121  1  0  0  0
 50 51  1  0  0  0
 50122  1  0  0  0
 50123  1  0  0  0
 51 52  1  0  0  0
 51124  1  0  0  0
 51125  1  0  0  0
 52126  1  0  0  0
 52127  1  0  0  0
 53 54  1  0  0  0
 54 55  2  0  0  0
 54128  1  0  0  0
 55 57  1  0  0  0
 55129  1  0  0  0
 56 69  2  0  0  0
 57 58  2  0  0  0
 57130  1  0  0  0
 58131  1  0  0  0
 59 60  1  0  0  0
 59 61  1  0  0  0
 59 62  1  0  0  0
 60132  1  0  0  0
 60133  1  0  0  0
 60134  1  0  0  0
 61135  1  0  0  0
 61136  1  0  0  0
 61137  1  0  0  0
 62138  1  0  0  0
 62139  1  0  0  0
 62140  1  0  0  0
 63 65  1  0  0  0
 63141  1  0  0  0
 63142  1  0  0  0
 63143  1  0  0  0
 64144  1  0  0  0
 65145  1  0  0  0
 68 85  1  0  0  0
 71 72  2  0  0  0
 71 73  1  0  0  0
 71146  1  0  0  0
 72 75  1  0  0  0
 72147  1  0  0  0
 73 76  2  0  0  0
 73148  1  0  0  0
 74 77  2  0  0  0
 74 78  1  0  0  0
 74149  1  0  0  0
 75 80  2  0  0  0
 75150  1  0  0  0
 76 80  1  0  0  0
 76151  1  0  0  0
 77 81  1  0  0  0
 77152  1  0  0  0
 78 82  2  0  0  0
 78153  1  0  0  0
 79 81  2  0  0  0
 79 82  1  0  0  0
 79154  1  0  0  0
 80 84  1  0  0  0
 81 84  1  0  0  0
 82 86  1  0  0  0
 83 84  2  0  0  0
 83 85  1  0  0  0
 83155  1  0  0  0
 85156  1  0  0  0
 85157  1  0  0  0
 86158  1  0  0  0
M  ISO  4   1 100  68 101  85 101  86 100
M  END
> <chiral flag>
0

> <version>
0

> <s_m_source_file>
/data/baiqing/PycharmProjects/Reinvent-master-3.2/result/LINK_invent/BTK/process_docking_weight1_custom_sum_contain_oxygen_bond_distance_aromatic_linkinvent_7_9_3/rearranged_h_0004.sdf

> <i_m_source_file_index>
37

> <r_mmod_Potential_Energy-OPLS-2005>
873.114074707031

> <r_mmod_Stretch_Energy-OPLS-2005>
355.095275878906

> <r_mmod_Bend_Energy-OPLS-2005>
388.386199951172

> <r_mmod_Torsional_Energy-OPLS-2005>
276.002868652344

> <r_mmod_Improper_Torsional_Energy-OPLS-2005>
6.90687370300293

> <r_mmod_Van_der_Waal_Energy-OPLS-2005>
142.872406005859

> <r_mmod_Electrostatic_Energy-OPLS-2005>
-360.022277832031

> <r_mmod_Solvation_Energy-OPLS-2005>
-213.282730102539

> <b_mmod_Minimization_Converged-OPLS-2005>
0

> <r_mmod_RMS_Derivative-OPLS-2005>
3.59491872787476

$$$$
37
                    3D
 Structure written by MMmdl.
213221  0  0  1  0            999 V2000
  -30.9590  -14.0700   20.8709 C   0  0  0  0  0  0
  -30.3845  -12.2947   19.3296 C   0  0  0  0  0  0
  -29.4351  -12.5354   18.1660 C   0  0  0  0  0  0
  -27.9995  -12.3175   18.6486 C   0  0  0  0  0  0
  -27.6607  -13.1976   19.8718 C   0  0  2  0  0  0
  -28.7053  -13.0105   20.9919 C   0  0  0  0  0  0
  -25.2649  -13.8134   20.5748 C   0  0  0  0  0  0
  -24.1859  -13.0423   20.9190 C   0  0  0  0  0  0
  -24.6396  -11.6910   20.8761 C   0  0  0  0  0  0
  -23.9093  -10.4273   21.0419 C   0  0  0  0  0  0
  -24.3626   -9.4188   21.9203 C   0  0  0  0  0  0
  -23.6287   -8.2244   22.0807 C   0  0  0  0  0  0
  -22.4303   -8.0285   21.3537 C   0  0  0  0  0  0
  -21.9992   -9.0242   20.4581 C   0  0  0  0  0  0
  -22.7297  -10.2130   20.3025 C   0  0  0  0  0  0
  -21.6843   -6.0796   22.5307 C   0  0  0  0  0  0
  -21.3999   -6.5690   23.8261 C   0  0  0  0  0  0
  -21.3624   -5.6815   24.9190 C   0  0  0  0  0  0
  -21.6014   -4.3078   24.7208 C   0  0  0  0  0  0
  -21.8841   -3.8207   23.4324 C   0  0  0  0  0  0
  -21.9214   -4.7047   22.3411 C   0  0  0  0  0  0
  -22.7882  -13.5307   21.1821 C   0  0  0  0  0  0
  -22.1679   -4.2246   21.0971 F   0  0  0  0  0  0
  -21.5576   -3.4553   25.7707 F   0  0  0  0  0  0
  -30.0530  -13.1865   20.4305 N   0  0  0  0  0  0
  -26.3048  -12.9296   20.3438 N   0  0  0  0  0  0
  -25.9325  -11.6461   20.5857 N   0  0  0  0  0  0
  -22.0451  -12.8338   22.0355 N   0  0  0  0  0  0
  -25.4464  -15.1799   20.4225 N   0  0  0  0  0  0
  -31.7104  -14.7281   20.1435 O   0  0  0  0  0  0
  -21.6600   -6.8934   21.4277 O   0  0  0  0  0  0
  -22.3608  -14.5587   20.6636 O   0  0  0  0  0  0
  -24.6097  -31.8660   23.2170 C   0  0  0  0  0  0
  -25.8980  -32.4823   23.8442 C   0  0  1  0  0  0
  -27.2331  -27.4640   20.0326 C   0  0  0  0  0  0
  -25.5823  -33.8630   24.2329 N   0  0  0  0  0  0
  -23.3961  -30.4958   21.5541 C   0  0  2  0  0  0
  -24.8376  -28.9697   20.1112 C   0  0  0  0  0  0
  -22.7357  -29.4647   22.4982 C   0  0  0  0  0  0
  -18.0238  -28.1350   22.8489 C   0  0  0  0  0  0
  -24.1453  -36.7351   23.2661 C   0  0  0  0  0  0
  -25.9255  -30.8297   21.3742 C   0  0  0  0  0  0
  -25.9958  -29.4666   20.7199 C   0  0  0  0  0  0
  -27.1894  -28.7107   20.6964 C   0  0  0  0  0  0
  -26.0478  -26.9777   19.4291 C   0  0  0  0  0  0
  -24.8564  -27.7228   19.4694 C   0  0  0  0  0  0
  -23.6030  -29.8372   20.1647 C   0  0  0  0  0  0
  -25.4081  -36.3121   24.0334 C   0  0  1  0  0  0
  -20.5831  -28.3608   23.1320 C   0  0  2  0  0  0
  -20.6684  -26.9351   22.5387 C   0  0  0  0  0  0
  -19.5694  -26.6370   21.5144 C   0  0  0  0  0  0
  -18.1887  -26.7901   22.1604 C   0  0  0  0  0  0
  -19.1498  -28.8795   23.2914 C   0  0  0  0  0  0
  -18.9443  -30.1397   23.8933 C   0  0  0  0  0  0
  -17.6462  -30.6580   24.0549 C   0  0  0  0  0  0
  -25.9005  -34.9481   23.5136 C   0  0  0  0  0  0
  -16.5339  -29.9079   23.6329 C   0  0  0  0  0  0
  -16.7238  -28.6480   23.0374 C   0  0  0  0  0  0
  -26.4471  -31.6621   25.0766 C   0  0  0  0  0  0
  -25.3811  -31.3601   26.1554 C   0  0  0  0  0  0
  -27.0335  -30.3102   24.6110 C   0  0  0  0  0  0
  -27.6061  -32.4350   25.7487 C   0  0  0  0  0  0
  -27.5551  -37.1825   24.8463 C   0  0  0  0  0  0
  -21.4092  -29.3002   22.3738 N   0  0  0  0  0  0
  -26.4253  -37.3818   23.9431 N   0  0  0  0  0  0
  -24.6623  -31.0777   22.1079 N   0  0  0  0  0  0
  -23.4150  -28.8139   23.2970 O   0  0  0  0  0  0
  -28.4398  -26.7937   19.9725 O   0  0  0  0  0  0
  -26.5616  -34.8924   22.4727 O   0  0  0  0  0  0
  -23.5286  -32.1409   23.7564 O   0  0  0  0  0  0
  -27.7830  -20.8353   15.6955 C   0  0  0  0  0  0
  -25.8648  -21.0015   17.1568 C   0  0  0  0  0  0
  -27.9811  -22.2311   15.8123 C   0  0  0  0  0  0
  -26.0565  -22.3878   17.2701 C   0  0  0  0  0  0
  -26.7235  -20.1783   16.3799 C   0  0  0  0  0  0
  -27.1226  -23.0205   16.6131 C   0  0  0  0  0  0
  -29.4306   -9.3020   15.9026 C   0  0  0  0  0  0
  -27.4328  -17.8074   16.0257 C   0  0  0  0  0  0
  -21.7271  -18.2876   20.3714 C   0  0  0  0  0  0
  -29.4649  -10.4127   14.8344 C   0  0  0  0  0  0
  -27.0076  -16.3459   15.7268 C   0  0  0  0  0  0
  -23.1986  -18.1509   19.9772 C   0  0  0  0  0  0
  -28.3105  -11.4489   14.9268 C   0  0  0  0  0  0
  -28.1447  -15.3729   15.3292 C   0  0  0  0  0  0
  -23.4037  -18.1556   18.4587 C   0  0  0  0  0  0
  -28.7355  -12.9206   14.6769 C   0  0  0  0  0  0
  -27.6251  -13.9528   14.9921 C   0  0  0  0  0  0
  -31.5346   -9.0377   21.2431 C   0  0  0  0  0  0
  -31.8313   -8.3182   19.9031 C   0  0  0  0  0  0
  -32.2871  -10.3746   21.4595 C   0  0  0  0  0  0
  -24.8814  -18.0440   18.0647 C   0  0  0  0  0  0
  -31.0307   -8.9070   18.7194 C   0  0  0  0  0  0
  -31.5963  -11.3088   22.4868 C   0  0  0  0  0  0
  -28.6525  -26.1632   17.5736 C   0  0  0  0  0  0
  -30.9191   -8.0060   17.4664 C   0  0  0  0  0  0
  -32.1701  -12.7562   22.5673 C   0  0  0  0  0  0
  -25.0855  -18.3095   16.5581 C   0  0  0  0  0  0
  -28.5254  -24.9808   16.5994 C   0  0  0  0  0  0
  -28.5802  -25.7068   19.0509 C   0  0  0  0  0  0
  -30.6211   -8.8221   16.2891 N   0  0  0  0  0  0
  -31.2561  -13.8424   22.1593 N   0  0  0  0  0  0
  -26.4669  -18.7491   16.2674 N   0  0  0  0  0  0
  -28.3660   -8.9153   16.3887 O   0  0  0  0  0  0
  -28.6442  -18.0554   16.0581 O   0  0  0  0  0  0
  -27.2436  -24.3824   16.7842 O   0  0  0  0  0  0
  -31.4228  -12.3817   19.0070 H   0  0  0  0  0  0
  -30.2523  -11.2788   19.6944 H   0  0  0  0  0  0
  -29.6807  -11.8399   17.3669 H   0  0  0  0  0  0
  -29.5489  -13.5433   17.7677 H   0  0  0  0  0  0
  -27.9120  -11.2623   18.9190 H   0  0  0  0  0  0
  -27.2867  -12.4983   17.8480 H   0  0  0  0  0  0
  -27.7086  -14.2349   19.5439 H   0  0  0  0  0  0
  -28.6194  -12.0154   21.4243 H   0  0  0  0  0  0
  -28.5108  -13.7266   21.7918 H   0  0  0  0  0  0
  -25.2748   -9.5662   22.4805 H   0  0  0  0  0  0
  -23.9936   -7.4689   22.7626 H   0  0  0  0  0  0
  -21.0977   -8.8753   19.8806 H   0  0  0  0  0  0
  -22.3795  -10.9701   19.6138 H   0  0  0  0  0  0
  -21.1974   -7.6187   23.9813 H   0  0  0  0  0  0
  -21.1397   -6.0493   25.9106 H   0  0  0  0  0  0
  -22.0644   -2.7683   23.2794 H   0  0  0  0  0  0
  -22.4046  -12.0092   22.4869 H   0  0  0  0  0  0
  -21.1071  -13.1464   22.2480 H   0  0  0  0  0  0
  -24.6847  -15.8402   20.5121 H   0  0  0  0  0  0
  -26.3198  -15.6095   20.1531 H   0  0  0  0  0  0
  -26.7034  -32.5547   23.1187 H   0  0  0  0  0  0
  -24.9811  -33.9793   25.0349 H   0  0  0  0  0  0
  -22.6862  -31.3158   21.4197 H   0  0  0  0  0  0
  -23.3683  -35.9715   23.3324 H   0  0  0  0  0  0
  -24.3534  -36.8999   22.2077 H   0  0  0  0  0  0
  -23.7228  -37.6558   23.6705 H   0  0  0  0  0  0
  -26.0353  -31.5956   20.6032 H   0  0  0  0  0  0
  -26.8131  -30.8837   21.9890 H   0  0  0  0  0  0
  -28.0888  -29.0948   21.1577 H   0  0  0  0  0  0
  -26.0148  -26.0490   18.8804 H   0  0  0  0  0  0
  -23.9706  -27.3515   18.9729 H   0  0  0  0  0  0
  -23.7164  -30.6172   19.4103 H   0  0  0  0  0  0
  -22.7259  -29.2629   19.8624 H   0  0  0  0  0  0
  -25.1258  -36.1981   25.0823 H   0  0  0  0  0  0
  -20.9941  -28.3118   24.1427 H   0  0  0  0  0  0
  -20.5428  -26.2226   23.3569 H   0  0  0  0  0  0
  -21.6571  -26.7271   22.1288 H   0  0  0  0  0  0
  -19.6833  -25.6269   21.1187 H   0  0  0  0  0  0
  -19.6645  -27.3158   20.6662 H   0  0  0  0  0  0
  -17.4111  -26.6597   21.4047 H   0  0  0  0  0  0
  -18.0361  -26.0037   22.9003 H   0  0  0  0  0  0
  -19.7918  -30.7184   24.2346 H   0  0  0  0  0  0
  -17.5019  -31.6293   24.5088 H   0  0  0  0  0  0
  -15.5339  -30.3009   23.7645 H   0  0  0  0  0  0
  -15.8621  -28.0811   22.7127 H   0  0  0  0  0  0
  -24.5937  -30.7024   25.7851 H   0  0  0  0  0  0
  -24.9064  -32.2693   26.5261 H   0  0  0  0  0  0
  -25.8243  -30.8570   27.0159 H   0  0  0  0  0  0
  -26.2842  -29.6795   24.1317 H   0  0  0  0  0  0
  -27.4296  -29.7416   25.4530 H   0  0  0  0  0  0
  -27.8590  -30.4470   23.9125 H   0  0  0  0  0  0
  -27.2689  -33.3577   26.2221 H   0  0  0  0  0  0
  -28.3772  -32.7041   25.0251 H   0  0  0  0  0  0
  -28.0874  -31.8411   26.5273 H   0  0  0  0  0  0
  -28.2573  -38.0117   24.7514 H   0  0  0  0  0  0
  -28.1039  -36.2652   24.6265 H   0  0  0  0  0  0
  -27.2294  -37.1459   25.8875 H   0  0  0  0  0  0
  -20.9184  -29.8881   21.7143 H   0  0  0  0  0  0
  -26.0130  -38.2874   24.1495 H   0  0  0  0  0  0
  -28.4578  -20.2899   15.0519 H   0  0  0  0  0  0
  -25.0175  -20.6078   17.6935 H   0  0  0  0  0  0
  -28.7926  -22.6857   15.2611 H   0  0  0  0  0  0
  -25.3744  -22.9646   17.8792 H   0  0  0  0  0  0
  -21.6141  -18.2315   21.4546 H   0  0  0  0  0  0
  -21.1245  -17.4905   19.9335 H   0  0  0  0  0  0
  -21.3169  -19.2432   20.0426 H   0  0  0  0  0  0
  -29.4857   -9.9622   13.8408 H   0  0  0  0  0  0
  -30.4168  -10.9330   14.9468 H   0  0  0  0  0  0
  -26.2891  -16.3626   14.9081 H   0  0  0  0  0  0
  -26.4964  -15.9457   16.6038 H   0  0  0  0  0  0
  -23.5982  -17.2308   20.3991 H   0  0  0  0  0  0
  -23.7625  -18.9697   20.4255 H   0  0  0  0  0  0
  -27.8559  -11.3878   15.9151 H   0  0  0  0  0  0
  -27.5215  -11.1647   14.2324 H   0  0  0  0  0  0
  -28.8585  -15.3099   16.1533 H   0  0  0  0  0  0
  -28.6906  -15.7751   14.4756 H   0  0  0  0  0  0
  -22.9910  -19.0814   18.0543 H   0  0  0  0  0  0
  -22.8469  -17.3394   17.9967 H   0  0  0  0  0  0
  -29.0702  -13.0456   13.6445 H   0  0  0  0  0  0
  -29.6024  -13.1466   15.2974 H   0  0  0  0  0  0
  -26.9314  -14.0079   14.1495 H   0  0  0  0  0  0
  -27.0336  -13.5975   15.8343 H   0  0  0  0  0  0
  -31.7684   -8.3682   22.0738 H   0  0  0  0  0  0
  -30.4591   -9.1994   21.3127 H   0  0  0  0  0  0
  -31.5961   -7.2577   20.0142 H   0  0  0  0  0  0
  -32.9006   -8.3600   19.6831 H   0  0  0  0  0  0
  -32.3975  -10.8903   20.5074 H   0  0  0  0  0  0
  -33.3093  -10.1668   21.7811 H   0  0  0  0  0  0
  -25.2737  -17.0631   18.3311 H   0  0  0  0  0  0
  -25.4644  -18.7463   18.6612 H   0  0  0  0  0  0
  -31.5093   -9.8463   18.4425 H   0  0  0  0  0  0
  -30.0171   -9.1693   19.0349 H   0  0  0  0  0  0
  -31.6752  -10.8385   23.4703 H   0  0  0  0  0  0
  -30.5262  -11.3367   22.2993 H   0  0  0  0  0  0
  -27.8794  -26.8977   17.3489 H   0  0  0  0  0  0
  -29.6033  -26.6662   17.3983 H   0  0  0  0  0  0
  -30.1782   -7.2118   17.5965 H   0  0  0  0  0  0
  -31.8705   -7.5079   17.2775 H   0  0  0  0  0  0
  -33.1013  -12.8371   22.0036 H   0  0  0  0  0  0
  -32.4407  -12.9574   23.6055 H   0  0  0  0  0  0
  -24.3969  -19.0772   16.2016 H   0  0  0  0  0  0
  -24.7611  -17.4392   15.9928 H   0  0  0  0  0  0
  -29.3391  -24.2796   16.7894 H   0  0  0  0  0  0
  -28.6161  -25.3234   15.5686 H   0  0  0  0  0  0
  -29.5012  -25.1748   19.2900 H   0  0  0  0  0  0
  -27.7965  -24.9663   19.2030 H   0  0  0  0  0  0
  -31.4303   -9.1535   15.7789 H   0  0  0  0  0  0
  -31.5156  -14.6988   22.6267 H   0  0  0  0  0  0
  1 25  1  0  0  0
  1 30  2  0  0  0
  1101  1  0  0  0
  2  3  1  0  0  0
  2 25  1  0  0  0
  2106  1  0  0  0
  2107  1  0  0  0
  3  4  1  0  0  0
  3108  1  0  0  0
  3109  1  0  0  0
  4  5  1  0  0  0
  4110  1  0  0  0
  4111  1  0  0  0
  5  6  1  0  0  0
  5 26  1  0  0  0
  5112  1  0  0  0
  6 25  1  0  0  0
  6113  1  0  0  0
  6114  1  0  0  0
  7  8  2  0  0  0
  7 26  1  0  0  0
  7 29  1  0  0  0
  8  9  1  0  0  0
  8 22  1  0  0  0
  9 10  1  0  0  0
  9 27  2  0  0  0
 10 11  2  0  0  0
 10 15  1  0  0  0
 11 12  1  0  0  0
 11115  1  0  0  0
 12 13  2  0  0  0
 12116  1  0  0  0
 13 14  1  0  0  0
 13 31  1  0  0  0
 14 15  2  0  0  0
 14117  1  0  0  0
 15118  1  0  0  0
 16 17  2  0  0  0
 16 21  1  0  0  0
 16 31  1  0  0  0
 17 18  1  0  0  0
 17119  1  0  0  0
 18 19  2  0  0  0
 18120  1  0  0  0
 19 20  1  0  0  0
 19 24  1  0  0  0
 20 21  2  0  0  0
 20121  1  0  0  0
 21 23  1  0  0  0
 22 28  1  0  0  0
 22 32  2  0  0  0
 26 27  1  0  0  0
 28122  1  0  0  0
 28123  1  0  0  0
 29124  1  0  0  0
 29125  1  0  0  0
 33 34  1  0  0  0
 33 66  1  0  0  0
 33 70  2  0  0  0
 34 36  1  0  0  0
 34 59  1  0  0  0
 34126  1  0  0  0
 35 44  2  0  0  0
 35 45  1  0  0  0
 35 68  1  0  0  0
 36 56  1  0  0  0
 36127  1  0  0  0
 37 39  1  0  0  0
 37 47  1  0  0  0
 37 66  1  0  0  0
 37128  1  0  0  0
 38 43  2  0  0  0
 38 46  1  0  0  0
 38 47  1  0  0  0
 39 64  1  0  0  0
 39 67  2  0  0  0
 40 52  1  0  0  0
 40 53  2  0  0  0
 40 58  1  0  0  0
 41129  1  0  0  0
 41130  1  0  0  0
 41131  1  0  0  0
 41 48  1  0  0  0
 42 43  1  0  0  0
 42 66  1  0  0  0
 42132  1  0  0  0
 42133  1  0  0  0
 43 44  1  0  0  0
 44134  1  0  0  0
 45 46  2  0  0  0
 45135  1  0  0  0
 46136  1  0  0  0
 47137  1  0  0  0
 47138  1  0  0  0
 48 56  1  0  0  0
 48 65  1  0  0  0
 48139  1  0  0  0
 49 50  1  0  0  0
 49 53  1  0  0  0
 49 64  1  0  0  0
 49140  1  0  0  0
 50 51  1  0  0  0
 50141  1  0  0  0
 50142  1  0  0  0
 51 52  1  0  0  0
 51143  1  0  0  0
 51144  1  0  0  0
 52145  1  0  0  0
 52146  1  0  0  0
 53 54  1  0  0  0
 54 55  2  0  0  0
 54147  1  0  0  0
 55 57  1  0  0  0
 55148  1  0  0  0
 56 69  2  0  0  0
 57 58  2  0  0  0
 57149  1  0  0  0
 58150  1  0  0  0
 59 60  1  0  0  0
 59 61  1  0  0  0
 59 62  1  0  0  0
 60151  1  0  0  0
 60152  1  0  0  0
 60153  1  0  0  0
 61154  1  0  0  0
 61155  1  0  0  0
 61156  1  0  0  0
 62157  1  0  0  0
 62158  1  0  0  0
 62159  1  0  0  0
 63 65  1  0  0  0
 63160  1  0  0  0
 63161  1  0  0  0
 63162  1  0  0  0
 64163  1  0  0  0
 65164  1  0  0  0
 68 99  1  0  0  0
 71 73  2  0  0  0
 71 75  1  0  0  0
 71165  1  0  0  0
 72 74  1  0  0  0
 72 75  2  0  0  0
 72166  1  0  0  0
 73 76  1  0  0  0
 73167  1  0  0  0
 74 76  2  0  0  0
 74168  1  0  0  0
 75102  1  0  0  0
 76105  1  0  0  0
 77 80  1  0  0  0
 77100  1  0  0  0
 77103  2  0  0  0
 78 81  1  0  0  0
 78102  1  0  0  0
 78104  2  0  0  0
 79 82  1  0  0  0
 79169  1  0  0  0
 79170  1  0  0  0
 79171  1  0  0  0
 80 83  1  0  0  0
 80172  1  0  0  0
 80173  1  0  0  0
 81 84  1  0  0  0
 81174  1  0  0  0
 81175  1  0  0  0
 82 85  1  0  0  0
 82176  1  0  0  0
 82177  1  0  0  0
 83 86  1  0  0  0
 83178  1  0  0  0
 83179  1  0  0  0
 84 87  1  0  0  0
 84180  1  0  0  0
 84181  1  0  0  0
 85 91  1  0  0  0
 85182  1  0  0  0
 85183  1  0  0  0
 86 87  1  0  0  0
 86184  1  0  0  0
 86185  1  0  0  0
 87186  1  0  0  0
 87187  1  0  0  0
 88 89  1  0  0  0
 88 90  1  0  0  0
 88188  1  0  0  0
 88189  1  0  0  0
 89 92  1  0  0  0
 89190  1  0  0  0
 89191  1  0  0  0
 90 93  1  0  0  0
 90192  1  0  0  0
 90193  1  0  0  0
 91 97  1  0  0  0
 91194  1  0  0  0
 91195  1  0  0  0
 92 95  1  0  0  0
 92196  1  0  0  0
 92197  1  0  0  0
 93 96  1  0  0  0
 93198  1  0  0  0
 93199  1  0  0  0
 94 98  1  0  0  0
 94 99  1  0  0  0
 94200  1  0  0  0
 94201  1  0  0  0
 95100  1  0  0  0
 95202  1  0  0  0
 95203  1  0  0  0
 96101  1  0  0  0
 96204  1  0  0  0
 96205  1  0  0  0
 97102  1  0  0  0
 97206  1  0  0  0
 97207  1  0  0  0
 98105  1  0  0  0
 98208  1  0  0  0
 98209  1  0  0  0
 99210  1  0  0  0
 99211  1  0  0  0
100212  1  0  0  0
101213  1  0  0  0
M  ISO  4   1 100  68 101  99 101 101 100
M  END
> <chiral flag>
0

> <version>
0

> <s_m_source_file>
/data/baiqing/PycharmProjects/Reinvent-master-3.2/result/LINK_invent/BTK/process_docking_weight1_custom_sum_contain_oxygen_bond_distance_aromatic_linkinvent_7_9_3/rearranged_h_0004.sdf

> <i_m_source_file_index>
38

> <r_mmod_Potential_Energy-OPLS-2005>
106.244583129883

> <r_mmod_Stretch_Energy-OPLS-2005>
48.6728363037109

> <r_mmod_Bend_Energy-OPLS-2005>
135.455810546875

> <r_mmod_Torsional_Energy-OPLS-2005>
367.514953613281

> <r_mmod_Improper_Torsional_Energy-OPLS-2005>
16.1095943450928

> <r_mmod_Van_der_Waal_Energy-OPLS-2005>
150.032485961914

> <r_mmod_Electrostatic_Energy-OPLS-2005>
-398.849304199219

> <r_mmod_Solvation_Energy-OPLS-2005>
-241.873107910156

> <b_mmod_Minimization_Converged-OPLS-2005>
0

> <r_mmod_RMS_Derivative-OPLS-2005>
5.55773067474365

$$$$
38
                    3D
 Structure written by MMmdl.
156163  0  0  1  0            999 V2000
  -30.7225  -14.4100   20.6812 C   0  0  0  0  0  0
  -30.4288  -12.3306   19.3832 C   0  0  0  0  0  0
  -29.4794  -12.5268   18.1872 C   0  0  0  0  0  0
  -28.0133  -12.3218   18.6135 C   0  0  0  0  0  0
  -27.6567  -13.1707   19.8599 C   0  0  2  0  0  0
  -28.6980  -12.9125   20.9758 C   0  0  0  0  0  0
  -25.2610  -13.8084   20.5651 C   0  0  0  0  0  0
  -24.1838  -13.0409   20.9199 C   0  0  0  0  0  0
  -24.6342  -11.6870   20.8767 C   0  0  0  0  0  0
  -23.9017  -10.4265   21.0437 C   0  0  0  0  0  0
  -24.3578   -9.4180   21.9205 C   0  0  0  0  0  0
  -23.6266   -8.2210   22.0759 C   0  0  0  0  0  0
  -22.4252   -8.0249   21.3533 C   0  0  0  0  0  0
  -21.9876   -9.0231   20.4642 C   0  0  0  0  0  0
  -22.7213  -10.2109   20.3059 C   0  0  0  0  0  0
  -21.6825   -6.0729   22.5299 C   0  0  0  0  0  0
  -21.3999   -6.5638   23.8237 C   0  0  0  0  0  0
  -21.3651   -5.6784   24.9197 C   0  0  0  0  0  0
  -21.6056   -4.3048   24.7244 C   0  0  0  0  0  0
  -21.8824   -3.8147   23.4358 C   0  0  0  0  0  0
  -21.9191   -4.6965   22.3419 C   0  0  0  0  0  0
  -22.7878  -13.5235   21.1886 C   0  0  0  0  0  0
  -22.1647   -4.2154   21.0992 F   0  0  0  0  0  0
  -21.5636   -3.4536   25.7751 F   0  0  0  0  0  0
  -30.0286  -13.2632   20.4485 N   0  0  0  0  0  0
  -26.2977  -12.9164   20.3267 N   0  0  0  0  0  0
  -25.9224  -11.6361   20.5717 N   0  0  0  0  0  0
  -22.0471  -12.8230   22.0406 N   0  0  0  0  0  0
  -25.4340  -15.1791   20.4057 N   0  0  0  0  0  0
  -31.7826  -14.6802   20.1139 O   0  0  0  0  0  0
  -21.6600   -6.8863   21.4247 O   0  0  0  0  0  0
  -22.3587  -14.5556   20.6753 O   0  0  0  0  0  0
  -24.6102  -31.8679   23.2088 C   0  0  0  0  0  0
  -25.8983  -32.4847   23.8390 C   0  0  1  0  0  0
  -27.2425  -27.4501   20.0906 C   0  0  0  0  0  0
  -25.5831  -33.8639   24.2326 N   0  0  0  0  0  0
  -23.4003  -30.4859   21.5489 C   0  0  2  0  0  0
  -24.8490  -28.9468   20.1234 C   0  0  0  0  0  0
  -22.7393  -29.4657   22.5021 C   0  0  0  0  0  0
  -18.0261  -28.1330   22.8487 C   0  0  0  0  0  0
  -24.1483  -36.7350   23.2648 C   0  0  0  0  0  0
  -25.9222  -30.8346   21.3578 C   0  0  0  0  0  0
  -26.0048  -29.4626   20.7249 C   0  0  0  0  0  0
  -27.2038  -28.7174   20.7105 C   0  0  0  0  0  0
  -26.0750  -26.9452   19.4814 C   0  0  0  0  0  0
  -24.8776  -27.6848   19.5011 C   0  0  0  0  0  0
  -23.6080  -29.8095   20.1685 C   0  0  0  0  0  0
  -25.4111  -36.3146   24.0351 C   0  0  1  0  0  0
  -20.5852  -28.3641   23.1316 C   0  0  2  0  0  0
  -20.6753  -26.9422   22.5321 C   0  0  0  0  0  0
  -19.5721  -26.6448   21.5117 C   0  0  0  0  0  0
  -18.1925  -26.7910   22.1571 C   0  0  0  0  0  0
  -19.1505  -28.8801   23.2894 C   0  0  0  0  0  0
  -18.9419  -30.1404   23.8926 C   0  0  0  0  0  0
  -17.6416  -30.6531   24.0581 C   0  0  0  0  0  0
  -25.9019  -34.9500   23.5146 C   0  0  0  0  0  0
  -16.5308  -29.9046   23.6295 C   0  0  0  0  0  0
  -16.7251  -28.6470   23.0321 C   0  0  0  0  0  0
  -26.4443  -31.6610   25.0685 C   0  0  0  0  0  0
  -25.3728  -31.3666   26.1443 C   0  0  0  0  0  0
  -27.0278  -30.3079   24.5983 C   0  0  0  0  0  0
  -27.6029  -32.4324   25.7447 C   0  0  0  0  0  0
  -27.5589  -37.1840   24.8466 C   0  0  0  0  0  0
  -21.4111  -29.3068   22.3794 N   0  0  0  0  0  0
  -26.4314  -37.3809   23.9401 N   0  0  0  0  0  0
  -24.6634  -31.0775   22.0996 N   0  0  0  0  0  0
  -23.4174  -28.8207   23.3066 O   0  0  0  0  0  0
  -28.4289  -26.7549   20.0274 O   0  0  0  0  0  0
  -26.5597  -34.8935   22.4717 O   0  0  0  0  0  0
  -23.5289  -32.1421   23.7471 O   0  0  0  0  0  0
  -28.1801  -24.2950   19.9715 C   0  0  0  0  0  0
  -28.4967  -25.5493   20.8015 C   0  0  0  0  0  0
  -28.1622  -18.4039   21.5804 C   0  0  0  0  0  0
  -29.3885  -17.5121   21.3203 C   0  0  0  0  0  0
  -28.1491  -19.7690   20.8651 C   0  0  0  0  0  0
  -29.0835  -16.0287   21.6301 C   0  0  0  0  0  0
  -26.9785  -20.6146   21.4050 C   0  0  0  0  0  0
  -27.8993  -23.1531   20.7181 N   0  0  0  0  0  0
  -30.2903  -15.1931   21.6829 N   0  0  0  0  0  0
  -28.1597  -24.3074   18.7356 O   0  0  0  0  0  0
  -25.3812  -22.7179   20.9390 O   0  0  0  0  0  0
  -26.6446  -21.6994   18.9738 O   0  0  0  0  0  0
  -26.5939  -22.0924   20.3925 S   0  0  0  0  0  0
  -31.4627  -12.4828   19.0698 H   0  0  0  0  0  0
  -30.3809  -11.3040   19.7436 H   0  0  0  0  0  0
  -29.7425  -11.8396   17.3848 H   0  0  0  0  0  0
  -29.5973  -13.5337   17.7829 H   0  0  0  0  0  0
  -27.8767  -11.2638   18.8407 H   0  0  0  0  0  0
  -27.3370  -12.5403   17.7851 H   0  0  0  0  0  0
  -27.7002  -14.2049   19.5268 H   0  0  0  0  0  0
  -28.6904  -11.8506   21.2364 H   0  0  0  0  0  0
  -28.4407  -13.4287   21.9000 H   0  0  0  0  0  0
  -25.2710   -9.5674   22.4785 H   0  0  0  0  0  0
  -23.9989   -7.4596   22.7467 H   0  0  0  0  0  0
  -21.0820   -8.8770   19.8920 H   0  0  0  0  0  0
  -22.3705  -10.9659   19.6160 H   0  0  0  0  0  0
  -21.1958   -7.6142   23.9757 H   0  0  0  0  0  0
  -21.1466   -6.0498   25.9108 H   0  0  0  0  0  0
  -22.0603   -2.7607   23.2870 H   0  0  0  0  0  0
  -22.3988  -11.9847   22.4810 H   0  0  0  0  0  0
  -21.1084  -13.1305   22.2550 H   0  0  0  0  0  0
  -24.6652  -15.8308   20.5224 H   0  0  0  0  0  0
  -26.2809  -15.6203   20.0743 H   0  0  0  0  0  0
  -26.7056  -32.5567   23.1166 H   0  0  0  0  0  0
  -25.0019  -33.9833   25.0493 H   0  0  0  0  0  0
  -22.6864  -31.2986   21.4051 H   0  0  0  0  0  0
  -23.3733  -35.9691   23.3337 H   0  0  0  0  0  0
  -24.3574  -36.8935   22.2055 H   0  0  0  0  0  0
  -23.7250  -37.6570   23.6645 H   0  0  0  0  0  0
  -26.0091  -31.5838   20.5690 H   0  0  0  0  0  0
  -26.8232  -30.9148   21.9558 H   0  0  0  0  0  0
  -28.0994  -29.1098   21.1711 H   0  0  0  0  0  0
  -26.0884  -25.9977   18.9630 H   0  0  0  0  0  0
  -23.9933  -27.2904   19.0206 H   0  0  0  0  0  0
  -23.7098  -30.5724   19.3982 H   0  0  0  0  0  0
  -22.7369  -29.2177   19.8834 H   0  0  0  0  0  0
  -25.1284  -36.2060   25.0848 H   0  0  0  0  0  0
  -20.9906  -28.3159   24.1460 H   0  0  0  0  0  0
  -20.5728  -26.2231   23.3472 H   0  0  0  0  0  0
  -21.6615  -26.7526   22.1062 H   0  0  0  0  0  0
  -19.6890  -25.6391   21.1074 H   0  0  0  0  0  0
  -19.6645  -27.3346   20.6701 H   0  0  0  0  0  0
  -17.4186  -26.6693   21.3971 H   0  0  0  0  0  0
  -18.0364  -26.0000   22.8928 H   0  0  0  0  0  0
  -19.7913  -30.7212   24.2281 H   0  0  0  0  0  0
  -17.4959  -31.6203   24.5172 H   0  0  0  0  0  0
  -15.5297  -30.2949   23.7566 H   0  0  0  0  0  0
  -15.8660  -28.0797   22.7011 H   0  0  0  0  0  0
  -24.5882  -30.7048   25.7757 H   0  0  0  0  0  0
  -24.8929  -32.2789   26.4981 H   0  0  0  0  0  0
  -25.8085  -30.8753   27.0152 H   0  0  0  0  0  0
  -26.2778  -29.6835   24.1100 H   0  0  0  0  0  0
  -27.4177  -29.7314   25.4384 H   0  0  0  0  0  0
  -27.8554  -30.4464   23.9023 H   0  0  0  0  0  0
  -27.2663  -33.3612   26.2082 H   0  0  0  0  0  0
  -28.3808  -32.6917   25.0249 H   0  0  0  0  0  0
  -28.0742  -31.8410   26.5314 H   0  0  0  0  0  0
  -28.2626  -38.0114   24.7486 H   0  0  0  0  0  0
  -28.1064  -36.2646   24.6335 H   0  0  0  0  0  0
  -27.2295  -37.1545   25.8862 H   0  0  0  0  0  0
  -20.9254  -29.8868   21.7085 H   0  0  0  0  0  0
  -26.0222  -38.2905   24.1340 H   0  0  0  0  0  0
  -29.5169  -25.4441   21.1724 H   0  0  0  0  0  0
  -27.8436  -25.5967   21.6716 H   0  0  0  0  0  0
  -28.1002  -18.5665   22.6583 H   0  0  0  0  0  0
  -27.2517  -17.8734   21.2985 H   0  0  0  0  0  0
  -30.2134  -17.8661   21.9378 H   0  0  0  0  0  0
  -29.7180  -17.6072   20.2840 H   0  0  0  0  0  0
  -28.0379  -19.6138   19.7878 H   0  0  0  0  0  0
  -29.0942  -20.2958   21.0010 H   0  0  0  0  0  0
  -28.5507  -15.9306   22.5777 H   0  0  0  0  0  0
  -28.3935  -15.6741   20.8707 H   0  0  0  0  0  0
  -26.0637  -20.0203   21.4026 H   0  0  0  0  0  0
  -27.1342  -20.9266   22.4368 H   0  0  0  0  0  0
  -27.9921  -23.2476   21.7267 H   0  0  0  0  0  0
  -31.0534  -15.6677   22.1427 H   0  0  0  0  0  0
  1 25  1  0  0  0
  1 30  2  0  0  0
  1 79  1  0  0  0
  2  3  1  0  0  0
  2 25  1  0  0  0
  2 84  1  0  0  0
  2 85  1  0  0  0
  3  4  1  0  0  0
  3 86  1  0  0  0
  3 87  1  0  0  0
  4  5  1  0  0  0
  4 88  1  0  0  0
  4 89  1  0  0  0
  5  6  1  0  0  0
  5 26  1  0  0  0
  5 90  1  0  0  0
  6 25  1  0  0  0
  6 91  1  0  0  0
  6 92  1  0  0  0
  7  8  2  0  0  0
  7 26  1  0  0  0
  7 29  1  0  0  0
  8  9  1  0  0  0
  8 22  1  0  0  0
  9 10  1  0  0  0
  9 27  2  0  0  0
 10 11  2  0  0  0
 10 15  1  0  0  0
 11 12  1  0  0  0
 11 93  1  0  0  0
 12 13  2  0  0  0
 12 94  1  0  0  0
 13 14  1  0  0  0
 13 31  1  0  0  0
 14 15  2  0  0  0
 14 95  1  0  0  0
 15 96  1  0  0  0
 16 17  2  0  0  0
 16 21  1  0  0  0
 16 31  1  0  0  0
 17 18  1  0  0  0
 17 97  1  0  0  0
 18 19  2  0  0  0
 18 98  1  0  0  0
 19 20  1  0  0  0
 19 24  1  0  0  0
 20 21  2  0  0  0
 20 99  1  0  0  0
 21 23  1  0  0  0
 22 28  1  0  0  0
 22 32  2  0  0  0
 26 27  1  0  0  0
 28100  1  0  0  0
 28101  1  0  0  0
 29102  1  0  0  0
 29103  1  0  0  0
 33 34  1  0  0  0
 33 66  1  0  0  0
 33 70  2  0  0  0
 34 36  1  0  0  0
 34 59  1  0  0  0
 34104  1  0  0  0
 35 44  2  0  0  0
 35 45  1  0  0  0
 35 68  1  0  0  0
 36 56  1  0  0  0
 36105  1  0  0  0
 37 39  1  0  0  0
 37 47  1  0  0  0
 37 66  1  0  0  0
 37106  1  0  0  0
 38 43  2  0  0  0
 38 46  1  0  0  0
 38 47  1  0  0  0
 39 64  1  0  0  0
 39 67  2  0  0  0
 40 52  1  0  0  0
 40 53  2  0  0  0
 40 58  1  0  0  0
 41107  1  0  0  0
 41108  1  0  0  0
 41109  1  0  0  0
 41 48  1  0  0  0
 42 43  1  0  0  0
 42 66  1  0  0  0
 42110  1  0  0  0
 42111  1  0  0  0
 43 44  1  0  0  0
 44112  1  0  0  0
 45 46  2  0  0  0
 45113  1  0  0  0
 46114  1  0  0  0
 47115  1  0  0  0
 47116  1  0  0  0
 48 56  1  0  0  0
 48 65  1  0  0  0
 48117  1  0  0  0
 49 50  1  0  0  0
 49 53  1  0  0  0
 49 64  1  0  0  0
 49118  1  0  0  0
 50 51  1  0  0  0
 50119  1  0  0  0
 50120  1  0  0  0
 51 52  1  0  0  0
 51121  1  0  0  0
 51122  1  0  0  0
 52123  1  0  0  0
 52124  1  0  0  0
 53 54  1  0  0  0
 54 55  2  0  0  0
 54125  1  0  0  0
 55 57  1  0  0  0
 55126  1  0  0  0
 56 69  2  0  0  0
 57 58  2  0  0  0
 57127  1  0  0  0
 58128  1  0  0  0
 59 60  1  0  0  0
 59 61  1  0  0  0
 59 62  1  0  0  0
 60129  1  0  0  0
 60130  1  0  0  0
 60131  1  0  0  0
 61132  1  0  0  0
 61133  1  0  0  0
 61134  1  0  0  0
 62135  1  0  0  0
 62136  1  0  0  0
 62137  1  0  0  0
 63 65  1  0  0  0
 63138  1  0  0  0
 63139  1  0  0  0
 63140  1  0  0  0
 64141  1  0  0  0
 65142  1  0  0  0
 68 72  1  0  0  0
 71 72  1  0  0  0
 71 78  1  0  0  0
 71 80  2  0  0  0
 72143  1  0  0  0
 72144  1  0  0  0
 73 74  1  0  0  0
 73 75  1  0  0  0
 73145  1  0  0  0
 73146  1  0  0  0
 74 76  1  0  0  0
 74147  1  0  0  0
 74148  1  0  0  0
 75 77  1  0  0  0
 75149  1  0  0  0
 75150  1  0  0  0
 76 79  1  0  0  0
 76151  1  0  0  0
 76152  1  0  0  0
 77153  1  0  0  0
 77154  1  0  0  0
 77 83  1  0  0  0
 78 83  1  0  0  0
 78155  1  0  0  0
 79156  1  0  0  0
 81 83  2  0  0  0
 82 83  2  0  0  0
M  ISO  4   1 100  68 101  72 101  79 100
M  END
> <chiral flag>
0

> <version>
0

> <s_m_source_file>
/data/baiqing/PycharmProjects/Reinvent-master-3.2/result/LINK_invent/BTK/process_docking_weight1_custom_sum_contain_oxygen_bond_distance_aromatic_linkinvent_7_9_3/rearranged_h_0004.sdf

> <i_m_source_file_index>
39

> <r_mmod_Potential_Energy-OPLS-2005>
-287.042266845703

> <r_mmod_Stretch_Energy-OPLS-2005>
31.4075317382812

> <r_mmod_Bend_Energy-OPLS-2005>
102.431793212891

> <r_mmod_Torsional_Energy-OPLS-2005>
300.280212402344

> <r_mmod_Improper_Torsional_Energy-OPLS-2005>
9.96424293518066

> <r_mmod_Van_der_Waal_Energy-OPLS-2005>
119.93286895752

> <r_mmod_Electrostatic_Energy-OPLS-2005>
-584.104187011719

> <r_mmod_Solvation_Energy-OPLS-2005>
-276.340545654297

> <b_mmod_Minimization_Converged-OPLS-2005>
0

> <r_mmod_RMS_Derivative-OPLS-2005>
5.07462549209595

$$$$
39
                    3D
 Structure written by MMmdl.
154162  0  0  1  0            999 V2000
  -30.6755  -14.4856   20.5768 C   0  0  0  0  0  0
  -30.4342  -12.3171   19.4176 C   0  0  0  0  0  0
  -29.4979  -12.5126   18.2056 C   0  0  0  0  0  0
  -28.0186  -12.3671   18.6170 C   0  0  0  0  0  0
  -27.6648  -13.1978   19.8787 C   0  0  2  0  0  0
  -28.7076  -12.9625   20.9954 C   0  0  0  0  0  0
  -25.2602  -13.8130   20.5673 C   0  0  0  0  0  0
  -24.1842  -13.0423   20.9167 C   0  0  0  0  0  0
  -24.6385  -11.6887   20.8730 C   0  0  0  0  0  0
  -23.9043  -10.4283   21.0398 C   0  0  0  0  0  0
  -24.3599   -9.4204   21.9179 C   0  0  0  0  0  0
  -23.6282   -8.2238   22.0750 C   0  0  0  0  0  0
  -22.4265   -8.0274   21.3540 C   0  0  0  0  0  0
  -21.9891   -9.0244   20.4642 C   0  0  0  0  0  0
  -22.7215  -10.2127   20.3049 C   0  0  0  0  0  0
  -21.6847   -6.0734   22.5281 C   0  0  0  0  0  0
  -21.4010   -6.5638   23.8215 C   0  0  0  0  0  0
  -21.3657   -5.6790   24.9177 C   0  0  0  0  0  0
  -21.6046   -4.3054   24.7227 C   0  0  0  0  0  0
  -21.8819   -3.8146   23.4348 C   0  0  0  0  0  0
  -21.9189   -4.6963   22.3404 C   0  0  0  0  0  0
  -22.7867  -13.5235   21.1838 C   0  0  0  0  0  0
  -22.1658   -4.2149   21.0981 F   0  0  0  0  0  0
  -21.5629   -3.4536   25.7739 F   0  0  0  0  0  0
  -30.0402  -13.2864   20.4518 N   0  0  0  0  0  0
  -26.3039  -12.9284   20.3378 N   0  0  0  0  0  0
  -25.9314  -11.6454   20.5768 N   0  0  0  0  0  0
  -22.0499  -12.8240   22.0398 N   0  0  0  0  0  0
  -25.4309  -15.1846   20.4077 N   0  0  0  0  0  0
  -31.7868  -14.7150   20.0889 O   0  0  0  0  0  0
  -21.6629   -6.8873   21.4241 O   0  0  0  0  0  0
  -22.3561  -14.5548   20.6692 O   0  0  0  0  0  0
  -24.6151  -31.8672   23.2098 C   0  0  0  0  0  0
  -25.9041  -32.4819   23.8398 C   0  0  1  0  0  0
  -27.2388  -27.4345   20.0997 C   0  0  0  0  0  0
  -25.5895  -33.8618   24.2330 N   0  0  0  0  0  0
  -23.4050  -30.4890   21.5488 C   0  0  2  0  0  0
  -24.8559  -28.9546   20.1136 C   0  0  0  0  0  0
  -22.7418  -29.4648   22.4978 C   0  0  0  0  0  0
  -18.0273  -28.1376   22.8491 C   0  0  0  0  0  0
  -24.1485  -36.7316   23.2637 C   0  0  0  0  0  0
  -25.9338  -30.8323   21.3646 C   0  0  0  0  0  0
  -26.0148  -29.4661   20.7128 C   0  0  0  0  0  0
  -27.2123  -28.7122   20.7056 C   0  0  0  0  0  0
  -26.0685  -26.9379   19.4924 C   0  0  0  0  0  0
  -24.8772  -27.6891   19.5001 C   0  0  0  0  0  0
  -23.6163  -29.8202   20.1638 C   0  0  0  0  0  0
  -25.4103  -36.3112   24.0340 C   0  0  1  0  0  0
  -20.5865  -28.3664   23.1313 C   0  0  2  0  0  0
  -20.6760  -26.9399   22.5417 C   0  0  0  0  0  0
  -19.5740  -26.6384   21.5212 C   0  0  0  0  0  0
  -18.1920  -26.7923   22.1622 C   0  0  0  0  0  0
  -19.1523  -28.8836   23.2899 C   0  0  0  0  0  0
  -18.9451  -30.1442   23.8910 C   0  0  0  0  0  0
  -17.6454  -30.6584   24.0563 C   0  0  0  0  0  0
  -25.9033  -34.9476   23.5134 C   0  0  0  0  0  0
  -16.5344  -29.9087   23.6323 C   0  0  0  0  0  0
  -16.7261  -28.6501   23.0347 C   0  0  0  0  0  0
  -26.4474  -31.6595   25.0723 C   0  0  0  0  0  0
  -25.3747  -31.3694   26.1476 C   0  0  0  0  0  0
  -27.0307  -30.3037   24.6097 C   0  0  0  0  0  0
  -27.6053  -32.4313   25.7484 C   0  0  0  0  0  0
  -27.5587  -37.1801   24.8456 C   0  0  0  0  0  0
  -21.4145  -29.3031   22.3720 N   0  0  0  0  0  0
  -26.4285  -37.3801   23.9423 N   0  0  0  0  0  0
  -24.6693  -31.0768   22.0998 N   0  0  0  0  0  0
  -23.4184  -28.8193   23.3028 O   0  0  0  0  0  0
  -28.3688  -26.6472   20.1027 O   0  0  0  0  0  0
  -26.5596  -34.8928   22.4695 O   0  0  0  0  0  0
  -23.5340  -32.1421   23.7489 O   0  0  0  0  0  0
  -28.8313  -17.2028   19.9449 C   0  0  0  0  0  0
  -30.6632  -17.8086   21.4193 C   0  0  0  0  0  0
  -28.6050  -18.5670   19.6701 C   0  0  0  0  0  0
  -30.4286  -19.1810   21.1450 C   0  0  0  0  0  0
  -29.8580  -16.8071   20.8280 C   0  0  0  0  0  0
  -29.3791  -19.5781   20.2763 C   0  0  0  0  0  0
  -28.8315  -23.2801   20.3855 C   0  0  0  0  0  0
  -29.3915  -24.5523   21.0758 C   0  0  0  0  0  0
  -29.6401  -21.9813   20.6659 C   0  0  0  0  0  0
  -28.4049  -25.7441   21.2175 C   0  0  0  0  0  0
  -29.9575  -15.4355   21.2065 N   0  0  0  0  0  0
  -29.0320  -20.8859   19.9737 O   0  0  0  0  0  0
  -31.4757  -12.4372   19.1133 H   0  0  0  0  0  0
  -30.3545  -11.3010   19.8065 H   0  0  0  0  0  0
  -29.7398  -11.7918   17.4231 H   0  0  0  0  0  0
  -29.6606  -13.5003   17.7710 H   0  0  0  0  0  0
  -27.8282  -11.3100   18.8058 H   0  0  0  0  0  0
  -27.3681  -12.6487   17.7880 H   0  0  0  0  0  0
  -27.7112  -14.2455   19.5883 H   0  0  0  0  0  0
  -28.6895  -11.9185   21.3125 H   0  0  0  0  0  0
  -28.4599  -13.5349   21.8901 H   0  0  0  0  0  0
  -25.2743   -9.5684   22.4755 H   0  0  0  0  0  0
  -23.9992   -7.4627   22.7466 H   0  0  0  0  0  0
  -21.0821   -8.8758   19.8950 H   0  0  0  0  0  0
  -22.3669  -10.9663   19.6158 H   0  0  0  0  0  0
  -21.2003   -7.6145   23.9723 H   0  0  0  0  0  0
  -21.1479   -6.0517   25.9082 H   0  0  0  0  0  0
  -22.0603   -2.7608   23.2846 H   0  0  0  0  0  0
  -22.4096  -11.9892   22.4784 H   0  0  0  0  0  0
  -21.1127  -13.1289   22.2612 H   0  0  0  0  0  0
  -24.6616  -15.8368   20.5163 H   0  0  0  0  0  0
  -26.2840  -15.6286   20.0960 H   0  0  0  0  0  0
  -26.7115  -32.5537   23.1169 H   0  0  0  0  0  0
  -25.0047  -33.9783   25.0475 H   0  0  0  0  0  0
  -22.6937  -31.3056   21.4079 H   0  0  0  0  0  0
  -23.3751  -35.9643   23.3285 H   0  0  0  0  0  0
  -24.3588  -36.8946   22.2055 H   0  0  0  0  0  0
  -23.7226  -37.6513   23.6658 H   0  0  0  0  0  0
  -26.0464  -31.5983   20.5961 H   0  0  0  0  0  0
  -26.8208  -30.8871   21.9834 H   0  0  0  0  0  0
  -28.1067  -29.0996   21.1735 H   0  0  0  0  0  0
  -26.0792  -25.9628   19.0255 H   0  0  0  0  0  0
  -23.9870  -27.2886   19.0350 H   0  0  0  0  0  0
  -23.7247  -30.5947   19.4035 H   0  0  0  0  0  0
  -22.7412  -29.2391   19.8674 H   0  0  0  0  0  0
  -25.1275  -36.1974   25.0832 H   0  0  0  0  0  0
  -20.9956  -28.3229   24.1433 H   0  0  0  0  0  0
  -20.5657  -26.2274   23.3606 H   0  0  0  0  0  0
  -21.6632  -26.7437   22.1211 H   0  0  0  0  0  0
  -19.6901  -25.6298   21.1232 H   0  0  0  0  0  0
  -19.6681  -27.3200   20.6748 H   0  0  0  0  0  0
  -17.4190  -26.6672   21.4024 H   0  0  0  0  0  0
  -18.0320  -26.0061   22.9015 H   0  0  0  0  0  0
  -19.7929  -30.7252   24.2285 H   0  0  0  0  0  0
  -17.5012  -31.6266   24.5161 H   0  0  0  0  0  0
  -15.5346  -30.2994   23.7641 H   0  0  0  0  0  0
  -15.8659  -28.0827   22.7054 H   0  0  0  0  0  0
  -24.5910  -30.7058   25.7810 H   0  0  0  0  0  0
  -24.8955  -32.2848   26.4957 H   0  0  0  0  0  0
  -25.8108  -30.8834   27.0214 H   0  0  0  0  0  0
  -26.2851  -29.6793   24.1161 H   0  0  0  0  0  0
  -27.4090  -29.7277   25.4554 H   0  0  0  0  0  0
  -27.8680  -30.4358   23.9241 H   0  0  0  0  0  0
  -27.2673  -33.3596   26.2100 H   0  0  0  0  0  0
  -28.3841  -32.6899   25.0298 H   0  0  0  0  0  0
  -28.0745  -31.8413   26.5367 H   0  0  0  0  0  0
  -28.2574  -38.0131   24.7559 H   0  0  0  0  0  0
  -28.1116  -36.2668   24.6205 H   0  0  0  0  0  0
  -27.2318  -37.1356   25.8860 H   0  0  0  0  0  0
  -20.9305  -29.8761   21.6948 H   0  0  0  0  0  0
  -26.0173  -38.2872   24.1458 H   0  0  0  0  0  0
  -28.1911  -16.4684   19.4806 H   0  0  0  0  0  0
  -31.4452  -17.5332   22.1133 H   0  0  0  0  0  0
  -27.8028  -18.8432   19.0003 H   0  0  0  0  0  0
  -31.0561  -19.9164   21.6268 H   0  0  0  0  0  0
  -28.7664  -23.4536   19.3107 H   0  0  0  0  0  0
  -27.8085  -23.1144   20.7249 H   0  0  0  0  0  0
  -30.3134  -24.8783   20.5932 H   0  0  0  0  0  0
  -29.6789  -24.2650   22.0882 H   0  0  0  0  0  0
  -29.6517  -21.7891   21.7399 H   0  0  0  0  0  0
  -30.6738  -22.0941   20.3368 H   0  0  0  0  0  0
  -28.7055  -26.3349   22.0844 H   0  0  0  0  0  0
  -27.4089  -25.3630   21.4531 H   0  0  0  0  0  0
  -29.1125  -15.0532   21.6036 H   0  0  0  0  0  0
  1 25  1  0  0  0
  1 30  2  0  0  0
  1 81  1  0  0  0
  2  3  1  0  0  0
  2 25  1  0  0  0
  2 83  1  0  0  0
  2 84  1  0  0  0
  3  4  1  0  0  0
  3 85  1  0  0  0
  3 86  1  0  0  0
  4  5  1  0  0  0
  4 87  1  0  0  0
  4 88  1  0  0  0
  5  6  1  0  0  0
  5 26  1  0  0  0
  5 89  1  0  0  0
  6 25  1  0  0  0
  6 90  1  0  0  0
  6 91  1  0  0  0
  7  8  2  0  0  0
  7 26  1  0  0  0
  7 29  1  0  0  0
  8  9  1  0  0  0
  8 22  1  0  0  0
  9 10  1  0  0  0
  9 27  2  0  0  0
 10 11  2  0  0  0
 10 15  1  0  0  0
 11 12  1  0  0  0
 11 92  1  0  0  0
 12 13  2  0  0  0
 12 93  1  0  0  0
 13 14  1  0  0  0
 13 31  1  0  0  0
 14 15  2  0  0  0
 14 94  1  0  0  0
 15 95  1  0  0  0
 16 17  2  0  0  0
 16 21  1  0  0  0
 16 31  1  0  0  0
 17 18  1  0  0  0
 17 96  1  0  0  0
 18 19  2  0  0  0
 18 97  1  0  0  0
 19 20  1  0  0  0
 19 24  1  0  0  0
 20 21  2  0  0  0
 20 98  1  0  0  0
 21 23  1  0  0  0
 22 28  1  0  0  0
 22 32  2  0  0  0
 26 27  1  0  0  0
 28 99  1  0  0  0
 28100  1  0  0  0
 29101  1  0  0  0
 29102  1  0  0  0
 33 34  1  0  0  0
 33 66  1  0  0  0
 33 70  2  0  0  0
 34 36  1  0  0  0
 34 59  1  0  0  0
 34103  1  0  0  0
 35 44  2  0  0  0
 35 45  1  0  0  0
 35 68  1  0  0  0
 36 56  1  0  0  0
 36104  1  0  0  0
 37 39  1  0  0  0
 37 47  1  0  0  0
 37 66  1  0  0  0
 37105  1  0  0  0
 38 43  2  0  0  0
 38 46  1  0  0  0
 38 47  1  0  0  0
 39 64  1  0  0  0
 39 67  2  0  0  0
 40 52  1  0  0  0
 40 53  2  0  0  0
 40 58  1  0  0  0
 41106  1  0  0  0
 41107  1  0  0  0
 41108  1  0  0  0
 41 48  1  0  0  0
 42 43  1  0  0  0
 42 66  1  0  0  0
 42109  1  0  0  0
 42110  1  0  0  0
 43 44  1  0  0  0
 44111  1  0  0  0
 45 46  2  0  0  0
 45112  1  0  0  0
 46113  1  0  0  0
 47114  1  0  0  0
 47115  1  0  0  0
 48 56  1  0  0  0
 48 65  1  0  0  0
 48116  1  0  0  0
 49 50  1  0  0  0
 49 53  1  0  0  0
 49 64  1  0  0  0
 49117  1  0  0  0
 50 51  1  0  0  0
 50118  1  0  0  0
 50119  1  0  0  0
 51 52  1  0  0  0
 51120  1  0  0  0
 51121  1  0  0  0
 52122  1  0  0  0
 52123  1  0  0  0
 53 54  1  0  0  0
 54 55  2  0  0  0
 54124  1  0  0  0
 55 57  1  0  0  0
 55125  1  0  0  0
 56 69  2  0  0  0
 57 58  2  0  0  0
 57126  1  0  0  0
 58127  1  0  0  0
 59 60  1  0  0  0
 59 61  1  0  0  0
 59 62  1  0  0  0
 60128  1  0  0  0
 60129  1  0  0  0
 60130  1  0  0  0
 61131  1  0  0  0
 61132  1  0  0  0
 61133  1  0  0  0
 62134  1  0  0  0
 62135  1  0  0  0
 62136  1  0  0  0
 63 65  1  0  0  0
 63137  1  0  0  0
 63138  1  0  0  0
 63139  1  0  0  0
 64140  1  0  0  0
 65141  1  0  0  0
 68 80  1  0  0  0
 71 73  2  0  0  0
 71 75  1  0  0  0
 71142  1  0  0  0
 72 74  1  0  0  0
 72 75  2  0  0  0
 72143  1  0  0  0
 73 76  1  0  0  0
 73144  1  0  0  0
 74 76  2  0  0  0
 74145  1  0  0  0
 75 81  1  0  0  0
 76 82  1  0  0  0
 77 78  1  0  0  0
 77 79  1  0  0  0
 77146  1  0  0  0
 77147  1  0  0  0
 78 80  1  0  0  0
 78148  1  0  0  0
 78149  1  0  0  0
 79 82  1  0  0  0
 79150  1  0  0  0
 79151  1  0  0  0
 80152  1  0  0  0
 80153  1  0  0  0
 81154  1  0  0  0
M  ISO  4   1 100  68 101  80 101  81 100
M  END
> <chiral flag>
0

> <version>
0

> <s_m_source_file>
/data/baiqing/PycharmProjects/Reinvent-master-3.2/result/LINK_invent/BTK/process_docking_weight1_custom_sum_contain_oxygen_bond_distance_aromatic_linkinvent_7_9_3/rearranged_h_0004.sdf

> <i_m_source_file_index>
40

> <r_mmod_Potential_Energy-OPLS-2005>
-26.1432418823242

> <r_mmod_Stretch_Energy-OPLS-2005>
38.0520858764648

> <r_mmod_Bend_Energy-OPLS-2005>
103.493583679199

> <r_mmod_Torsional_Energy-OPLS-2005>
269.066009521484

> <r_mmod_Improper_Torsional_Energy-OPLS-2005>
5.56116437911987

> <r_mmod_Van_der_Waal_Energy-OPLS-2005>
142.235061645508

> <r_mmod_Electrostatic_Energy-OPLS-2005>
-386.073486328125

> <r_mmod_Solvation_Energy-OPLS-2005>
-212.002868652344

> <b_mmod_Minimization_Converged-OPLS-2005>
0

> <r_mmod_RMS_Derivative-OPLS-2005>
0.609314560890198

$$$$
40
                    3D
 Structure written by MMmdl.
154162  0  0  1  0            999 V2000
  -30.6094  -14.7063   20.3582 C   0  0  0  0  0  0
  -30.4390  -12.3871   19.4741 C   0  0  0  0  0  0
  -29.5129  -12.3595   18.2392 C   0  0  0  0  0  0
  -28.0254  -12.2915   18.6532 C   0  0  0  0  0  0
  -27.6413  -13.2119   19.8466 C   0  0  2  0  0  0
  -28.6972  -13.1704   20.9702 C   0  0  0  0  0  0
  -25.2544  -13.8175   20.5714 C   0  0  0  0  0  0
  -24.1807  -13.0447   20.9232 C   0  0  0  0  0  0
  -24.6371  -11.6914   20.8814 C   0  0  0  0  0  0
  -23.9038  -10.4303   21.0461 C   0  0  0  0  0  0
  -24.3591   -9.4220   21.9244 C   0  0  0  0  0  0
  -23.6274   -8.2247   22.0782 C   0  0  0  0  0  0
  -22.4265   -8.0295   21.3557 C   0  0  0  0  0  0
  -21.9893   -9.0269   20.4664 C   0  0  0  0  0  0
  -22.7213  -10.2159   20.3103 C   0  0  0  0  0  0
  -21.6849   -6.0744   22.5281 C   0  0  0  0  0  0
  -21.4022   -6.5655   23.8218 C   0  0  0  0  0  0
  -21.3663   -5.6816   24.9185 C   0  0  0  0  0  0
  -21.6034   -4.3072   24.7235 C   0  0  0  0  0  0
  -21.8805   -3.8160   23.4358 C   0  0  0  0  0  0
  -21.9178   -4.6970   22.3414 C   0  0  0  0  0  0
  -22.7839  -13.5271   21.1875 C   0  0  0  0  0  0
  -22.1646   -4.2153   21.0987 F   0  0  0  0  0  0
  -21.5611   -3.4555   25.7747 F   0  0  0  0  0  0
  -29.9892  -13.4825   20.3528 N   0  0  0  0  0  0
  -26.2952  -12.9329   20.3353 N   0  0  0  0  0  0
  -25.9304  -11.6494   20.5865 N   0  0  0  0  0  0
  -22.0436  -12.8293   22.0420 N   0  0  0  0  0  0
  -25.4257  -15.1884   20.4045 N   0  0  0  0  0  0
  -31.8368  -14.7804   20.2368 O   0  0  0  0  0  0
  -21.6639   -6.8885   21.4243 O   0  0  0  0  0  0
  -22.3559  -14.5587   20.6723 O   0  0  0  0  0  0
  -24.6301  -31.8575   23.2049 C   0  0  0  0  0  0
  -25.9144  -32.4758   23.8389 C   0  0  1  0  0  0
  -27.2185  -27.2964   20.1397 C   0  0  0  0  0  0
  -25.5967  -33.8563   24.2332 N   0  0  0  0  0  0
  -23.4234  -30.4855   21.5462 C   0  0  2  0  0  0
  -24.8659  -28.9337   20.1154 C   0  0  0  0  0  0
  -22.7481  -29.4625   22.4915 C   0  0  0  0  0  0
  -18.0281  -28.1390   22.8474 C   0  0  0  0  0  0
  -24.1476  -36.7271   23.2644 C   0  0  0  0  0  0
  -25.9639  -30.7882   21.3715 C   0  0  0  0  0  0
  -26.0349  -29.4130   20.7165 C   0  0  0  0  0  0
  -27.2116  -28.6072   20.7135 C   0  0  0  0  0  0
  -26.0186  -26.8633   19.5310 C   0  0  0  0  0  0
  -24.8592  -27.6642   19.5172 C   0  0  0  0  0  0
  -23.6419  -29.8270   20.1580 C   0  0  0  0  0  0
  -25.4094  -36.3066   24.0354 C   0  0  1  0  0  0
  -20.5881  -28.3709   23.1261 C   0  0  2  0  0  0
  -20.6764  -26.9420   22.5408 C   0  0  0  0  0  0
  -19.5750  -26.6386   21.5197 C   0  0  0  0  0  0
  -18.1929  -26.7933   22.1608 C   0  0  0  0  0  0
  -19.1528  -28.8857   23.2868 C   0  0  0  0  0  0
  -18.9452  -30.1449   23.8908 C   0  0  0  0  0  0
  -17.6448  -30.6579   24.0573 C   0  0  0  0  0  0
  -25.9044  -34.9433   23.5131 C   0  0  0  0  0  0
  -16.5344  -29.9091   23.6318 C   0  0  0  0  0  0
  -16.7262  -28.6508   23.0335 C   0  0  0  0  0  0
  -26.4525  -31.6567   25.0766 C   0  0  0  0  0  0
  -25.3795  -31.3681   26.1529 C   0  0  0  0  0  0
  -27.0386  -30.3006   24.6213 C   0  0  0  0  0  0
  -27.6084  -32.4313   25.7529 C   0  0  0  0  0  0
  -27.5560  -37.1807   24.8481 C   0  0  0  0  0  0
  -21.4183  -29.3074   22.3658 N   0  0  0  0  0  0
  -26.4268  -37.3774   23.9426 N   0  0  0  0  0  0
  -24.6922  -31.0607   22.0982 N   0  0  0  0  0  0
  -23.4188  -28.8137   23.2985 O   0  0  0  0  0  0
  -28.3596  -26.4787   20.2172 O   0  0  0  0  0  0
  -26.5565  -34.8905   22.4676 O   0  0  0  0  0  0
  -23.5463  -32.1355   23.7385 O   0  0  0  0  0  0
  -30.5270  -18.1896   20.0148 C   0  0  0  0  0  0
  -28.5391  -17.4975   21.1753 C   0  0  0  0  0  0
  -30.1843  -19.5632   20.2231 C   0  0  0  0  0  0
  -28.2123  -18.8695   21.4002 C   0  0  0  0  0  0
  -29.7015  -17.1152   20.4614 C   0  0  0  0  0  0
  -29.0013  -19.9459   20.9094 C   0  0  0  0  0  0
  -29.7208  -15.8229   18.4297 C   0  0  0  0  0  0
  -28.4031  -23.8474   20.7857 C   0  0  0  0  0  0
  -28.8017  -22.3883   20.2483 C   0  0  0  0  0  0
  -28.4154  -25.0662   19.7511 C   0  0  0  0  0  0
  -29.8359  -15.7658   19.9007 N   0  0  0  0  0  0
  -28.5976  -21.2736   21.1815 O   0  0  0  0  0  0
  -31.4785  -12.5026   19.1598 H   0  0  0  0  0  0
  -30.3869  -11.4367   20.0077 H   0  0  0  0  0  0
  -29.7480  -11.4775   17.6418 H   0  0  0  0  0  0
  -29.7160  -13.1994   17.5802 H   0  0  0  0  0  0
  -27.8352  -11.2556   18.9359 H   0  0  0  0  0  0
  -27.3801  -12.4872   17.7964 H   0  0  0  0  0  0
  -27.6151  -14.2271   19.4624 H   0  0  0  0  0  0
  -28.7249  -12.1942   21.4562 H   0  0  0  0  0  0
  -28.4615  -13.9018   21.7458 H   0  0  0  0  0  0
  -25.2707   -9.5715   22.4864 H   0  0  0  0  0  0
  -23.9963   -7.4647   22.7526 H   0  0  0  0  0  0
  -21.0810   -8.8813   19.8987 H   0  0  0  0  0  0
  -22.3657  -10.9729   19.6252 H   0  0  0  0  0  0
  -21.2041   -7.6169   23.9726 H   0  0  0  0  0  0
  -21.1491   -6.0553   25.9088 H   0  0  0  0  0  0
  -22.0571   -2.7618   23.2863 H   0  0  0  0  0  0
  -22.3957  -11.9904   22.4791 H   0  0  0  0  0  0
  -21.1112  -13.1453   22.2679 H   0  0  0  0  0  0
  -24.6534  -15.8416   20.4815 H   0  0  0  0  0  0
  -26.2693  -15.6147   20.0428 H   0  0  0  0  0  0
  -26.7225  -32.5428   23.1146 H   0  0  0  0  0  0
  -25.0250  -33.9697   25.0565 H   0  0  0  0  0  0
  -22.7219  -31.3095   21.4060 H   0  0  0  0  0  0
  -23.3733  -35.9610   23.3321 H   0  0  0  0  0  0
  -24.3569  -36.8861   22.2055 H   0  0  0  0  0  0
  -23.7233  -37.6492   23.6631 H   0  0  0  0  0  0
  -26.0958  -31.5488   20.6010 H   0  0  0  0  0  0
  -26.8438  -30.8380   22.0011 H   0  0  0  0  0  0
  -28.1115  -28.9745   21.1861 H   0  0  0  0  0  0
  -25.9256  -25.8879   19.0853 H   0  0  0  0  0  0
  -23.9563  -27.2794   19.0638 H   0  0  0  0  0  0
  -23.7912  -30.6132   19.4168 H   0  0  0  0  0  0
  -22.7545  -29.2829   19.8300 H   0  0  0  0  0  0
  -25.1264  -36.1935   25.0848 H   0  0  0  0  0  0
  -20.9969  -28.3300   24.1381 H   0  0  0  0  0  0
  -20.5626  -26.2328   23.3623 H   0  0  0  0  0  0
  -21.6642  -26.7435   22.1227 H   0  0  0  0  0  0
  -19.6912  -25.6292   21.1242 H   0  0  0  0  0  0
  -19.6684  -27.3181   20.6715 H   0  0  0  0  0  0
  -17.4194  -26.6652   21.4020 H   0  0  0  0  0  0
  -18.0345  -26.0085   22.9014 H   0  0  0  0  0  0
  -19.7923  -30.7243   24.2312 H   0  0  0  0  0  0
  -17.5005  -31.6253   24.5185 H   0  0  0  0  0  0
  -15.5349  -30.2993   23.7634 H   0  0  0  0  0  0
  -15.8661  -28.0829   22.7050 H   0  0  0  0  0  0
  -24.5956  -30.7025   25.7896 H   0  0  0  0  0  0
  -24.9020  -32.2840   26.5029 H   0  0  0  0  0  0
  -25.8181  -30.8853   27.0276 H   0  0  0  0  0  0
  -26.2960  -29.6739   24.1277 H   0  0  0  0  0  0
  -27.4122  -29.7288   25.4714 H   0  0  0  0  0  0
  -27.8816  -30.4298   23.9427 H   0  0  0  0  0  0
  -27.2695  -33.3603   26.2126 H   0  0  0  0  0  0
  -28.3883  -32.6902   25.0354 H   0  0  0  0  0  0
  -28.0784  -31.8450   26.5438 H   0  0  0  0  0  0
  -28.2608  -38.0072   24.7473 H   0  0  0  0  0  0
  -28.1019  -36.2606   24.6356 H   0  0  0  0  0  0
  -27.2285  -37.1531   25.8888 H   0  0  0  0  0  0
  -20.9354  -29.8881   21.6939 H   0  0  0  0  0  0
  -26.0147  -38.2845   24.1443 H   0  0  0  0  0  0
  -31.4073  -17.9620   19.4295 H   0  0  0  0  0  0
  -27.8366  -16.7389   21.4920 H   0  0  0  0  0  0
  -30.8481  -20.3233   19.8388 H   0  0  0  0  0  0
  -27.2929  -19.0942   21.9224 H   0  0  0  0  0  0
  -30.6717  -15.6244   17.9304 H   0  0  0  0  0  0
  -29.3770  -16.7958   18.0744 H   0  0  0  0  0  0
  -28.9821  -15.1213   18.0573 H   0  0  0  0  0  0
  -29.0812  -24.0940   21.6043 H   0  0  0  0  0  0
  -27.4120  -23.7888   21.2376 H   0  0  0  0  0  0
  -29.8385  -22.4039   19.9138 H   0  0  0  0  0  0
  -28.1943  -22.1649   19.3705 H   0  0  0  0  0  0
  -27.6990  -24.8619   18.9597 H   0  0  0  0  0  0
  -29.3736  -25.0009   19.2357 H   0  0  0  0  0  0
  1 25  1  0  0  0
  1 30  2  0  0  0
  1 81  1  0  0  0
  2  3  1  0  0  0
  2 25  1  0  0  0
  2 83  1  0  0  0
  2 84  1  0  0  0
  3  4  1  0  0  0
  3 85  1  0  0  0
  3 86  1  0  0  0
  4  5  1  0  0  0
  4 87  1  0  0  0
  4 88  1  0  0  0
  5  6  1  0  0  0
  5 26  1  0  0  0
  5 89  1  0  0  0
  6 25  1  0  0  0
  6 90  1  0  0  0
  6 91  1  0  0  0
  7  8  2  0  0  0
  7 26  1  0  0  0
  7 29  1  0  0  0
  8  9  1  0  0  0
  8 22  1  0  0  0
  9 10  1  0  0  0
  9 27  2  0  0  0
 10 11  2  0  0  0
 10 15  1  0  0  0
 11 12  1  0  0  0
 11 92  1  0  0  0
 12 13  2  0  0  0
 12 93  1  0  0  0
 13 14  1  0  0  0
 13 31  1  0  0  0
 14 15  2  0  0  0
 14 94  1  0  0  0
 15 95  1  0  0  0
 16 17  2  0  0  0
 16 21  1  0  0  0
 16 31  1  0  0  0
 17 18  1  0  0  0
 17 96  1  0  0  0
 18 19  2  0  0  0
 18 97  1  0  0  0
 19 20  1  0  0  0
 19 24  1  0  0  0
 20 21  2  0  0  0
 20 98  1  0  0  0
 21 23  1  0  0  0
 22 28  1  0  0  0
 22 32  2  0  0  0
 26 27  1  0  0  0
 28 99  1  0  0  0
 28100  1  0  0  0
 29101  1  0  0  0
 29102  1  0  0  0
 33 34  1  0  0  0
 33 66  1  0  0  0
 33 70  2  0  0  0
 34 36  1  0  0  0
 34 59  1  0  0  0
 34103  1  0  0  0
 35 44  2  0  0  0
 35 45  1  0  0  0
 35 68  1  0  0  0
 36 56  1  0  0  0
 36104  1  0  0  0
 37 39  1  0  0  0
 37 47  1  0  0  0
 37 66  1  0  0  0
 37105  1  0  0  0
 38 43  2  0  0  0
 38 46  1  0  0  0
 38 47  1  0  0  0
 39 64  1  0  0  0
 39 67  2  0  0  0
 40 52  1  0  0  0
 40 53  2  0  0  0
 40 58  1  0  0  0
 41106  1  0  0  0
 41107  1  0  0  0
 41108  1  0  0  0
 41 48  1  0  0  0
 42 43  1  0  0  0
 42 66  1  0  0  0
 42109  1  0  0  0
 42110  1  0  0  0
 43 44  1  0  0  0
 44111  1  0  0  0
 45 46  2  0  0  0
 45112  1  0  0  0
 46113  1  0  0  0
 47114  1  0  0  0
 47115  1  0  0  0
 48 56  1  0  0  0
 48 65  1  0  0  0
 48116  1  0  0  0
 49 50  1  0  0  0
 49 53  1  0  0  0
 49 64  1  0  0  0
 49117  1  0  0  0
 50 51  1  0  0  0
 50118  1  0  0  0
 50119  1  0  0  0
 51 52  1  0  0  0
 51120  1  0  0  0
 51121  1  0  0  0
 52122  1  0  0  0
 52123  1  0  0  0
 53 54  1  0  0  0
 54 55  2  0  0  0
 54124  1  0  0  0
 55 57  1  0  0  0
 55125  1  0  0  0
 56 69  2  0  0  0
 57 58  2  0  0  0
 57126  1  0  0  0
 58127  1  0  0  0
 59 60  1  0  0  0
 59 61  1  0  0  0
 59 62  1  0  0  0
 60128  1  0  0  0
 60129  1  0  0  0
 60130  1  0  0  0
 61131  1  0  0  0
 61132  1  0  0  0
 61133  1  0  0  0
 62134  1  0  0  0
 62135  1  0  0  0
 62136  1  0  0  0
 63 65  1  0  0  0
 63137  1  0  0  0
 63138  1  0  0  0
 63139  1  0  0  0
 64140  1  0  0  0
 65141  1  0  0  0
 68 80  1  0  0  0
 71 73  2  0  0  0
 71 75  1  0  0  0
 71142  1  0  0  0
 72 74  1  0  0  0
 72 75  2  0  0  0
 72143  1  0  0  0
 73 76  1  0  0  0
 73144  1  0  0  0
 74 76  2  0  0  0
 74145  1  0  0  0
 75 81  1  0  0  0
 76 82  1  0  0  0
 77 81  1  0  0  0
 77146  1  0  0  0
 77147  1  0  0  0
 77148  1  0  0  0
 78 79  1  0  0  0
 78 80  1  0  0  0
 78149  1  0  0  0
 78150  1  0  0  0
 79 82  1  0  0  0
 79151  1  0  0  0
 79152  1  0  0  0
 80153  1  0  0  0
 80154  1  0  0  0
M  ISO  4   1 100  68 101  80 101  81 100
M  END
> <chiral flag>
0

> <version>
0

> <s_m_source_file>
/data/baiqing/PycharmProjects/Reinvent-master-3.2/result/LINK_invent/BTK/process_docking_weight1_custom_sum_contain_oxygen_bond_distance_aromatic_linkinvent_7_9_3/rearranged_h_0004.sdf

> <i_m_source_file_index>
41

> <r_mmod_Potential_Energy-OPLS-2005>
326.434143066406

> <r_mmod_Stretch_Energy-OPLS-2005>
87.9355850219727

> <r_mmod_Bend_Energy-OPLS-2005>
167.475799560547

> <r_mmod_Torsional_Energy-OPLS-2005>
334.097442626953

> <r_mmod_Improper_Torsional_Energy-OPLS-2005>
26.7105770111084

> <r_mmod_Van_der_Waal_Energy-OPLS-2005>
141.255142211914

> <r_mmod_Electrostatic_Energy-OPLS-2005>
-312.797546386719

> <r_mmod_Solvation_Energy-OPLS-2005>
-196.871047973633

> <b_mmod_Minimization_Converged-OPLS-2005>
0

> <r_mmod_RMS_Derivative-OPLS-2005>
2.83015894889832

$$$$
41
                    3D
 Structure written by MMmdl.
144152  0  0  1  0            999 V2000
  -30.2491  -15.7690   20.3185 C   0  0  0  0  0  0
  -30.4165  -13.1824   19.5389 C   0  0  0  0  0  0
  -29.5561  -12.6883   18.3366 C   0  0  0  0  0  0
  -28.1400  -12.3025   18.7870 C   0  0  0  0  0  0
  -27.5914  -13.3204   19.8100 C   0  0  2  0  0  0
  -28.5996  -13.7101   20.9197 C   0  0  0  0  0  0
  -25.2302  -13.8299   20.5812 C   0  0  0  0  0  0
  -24.1705  -13.0432   20.9298 C   0  0  0  0  0  0
  -24.6425  -11.6949   20.8764 C   0  0  0  0  0  0
  -23.9129  -10.4292   21.0393 C   0  0  0  0  0  0
  -24.3660   -9.4205   21.9178 C   0  0  0  0  0  0
  -23.6316   -8.2248   22.0754 C   0  0  0  0  0  0
  -22.4296   -8.0290   21.3545 C   0  0  0  0  0  0
  -21.9945   -9.0266   20.4644 C   0  0  0  0  0  0
  -22.7293  -10.2135   20.3047 C   0  0  0  0  0  0
  -21.6860   -6.0742   22.5279 C   0  0  0  0  0  0
  -21.4020   -6.5644   23.8213 C   0  0  0  0  0  0
  -21.3660   -5.6795   24.9174 C   0  0  0  0  0  0
  -21.6043   -4.3057   24.7223 C   0  0  0  0  0  0
  -21.8818   -3.8151   23.4344 C   0  0  0  0  0  0
  -21.9195   -4.6969   22.3401 C   0  0  0  0  0  0
  -22.7713  -13.5153   21.1928 C   0  0  0  0  0  0
  -22.1662   -4.2154   21.0979 F   0  0  0  0  0  0
  -21.5627   -3.4540   25.7735 F   0  0  0  0  0  0
  -29.7500  -14.3765   20.2532 N   0  0  0  0  0  0
  -26.2766  -12.9654   20.3247 N   0  0  0  0  0  0
  -25.9376  -11.6711   20.5692 N   0  0  0  0  0  0
  -22.0381  -12.8128   22.0480 N   0  0  0  0  0  0
  -25.3868  -15.2043   20.4253 N   0  0  0  0  0  0
  -31.4896  -15.6885   20.1870 O   0  0  0  0  0  0
  -21.6650   -6.8891   21.4243 O   0  0  0  0  0  0
  -22.3385  -14.5450   20.6762 O   0  0  0  0  0  0
  -24.6936  -31.7881   23.1428 C   0  0  0  0  0  0
  -25.9467  -32.4408   23.8014 C   0  0  1  0  0  0
  -27.2314  -26.6000   20.2259 C   0  0  0  0  0  0
  -25.6003  -33.8239   24.1889 N   0  0  0  0  0  0
  -23.5248  -30.3852   21.4992 C   0  0  2  0  0  0
  -24.9837  -28.7043   20.1217 C   0  0  0  0  0  0
  -22.7812  -29.4252   22.4682 C   0  0  0  0  0  0
  -18.0345  -28.1427   22.8448 C   0  0  0  0  0  0
  -24.1496  -36.7128   23.2656 C   0  0  0  0  0  0
  -26.1099  -30.4873   21.4229 C   0  0  0  0  0  0
  -26.1749  -29.0406   20.7752 C   0  0  0  0  0  0
  -27.2793  -28.0201   20.7903 C   0  0  0  0  0  0
  -26.0052  -26.4991   19.5134 C   0  0  0  0  0  0
  -24.9440  -27.4606   19.4663 C   0  0  0  0  0  0
  -23.7849  -29.6724   20.1393 C   0  0  0  0  0  0
  -25.4150  -36.2860   24.0273 C   0  0  1  0  0  0
  -20.5986  -28.3792   23.1121 C   0  0  2  0  0  0
  -20.6806  -26.9441   22.5405 C   0  0  0  0  0  0
  -19.5784  -26.6367   21.5217 C   0  0  0  0  0  0
  -18.1967  -26.7952   22.1618 C   0  0  0  0  0  0
  -19.1614  -28.8936   23.2762 C   0  0  0  0  0  0
  -18.9518  -30.1517   23.8813 C   0  0  0  0  0  0
  -17.6507  -30.6607   24.0547 C   0  0  0  0  0  0
  -25.9137  -34.9253   23.4926 C   0  0  0  0  0  0
  -16.5395  -29.9086   23.6353 C   0  0  0  0  0  0
  -16.7324  -28.6509   23.0369 C   0  0  0  0  0  0
  -26.4611  -31.6488   25.0681 C   0  0  0  0  0  0
  -25.3648  -31.3836   26.1276 C   0  0  0  0  0  0
  -27.0562  -30.2813   24.6660 C   0  0  0  0  0  0
  -27.6036  -32.4377   25.7508 C   0  0  0  0  0  0
  -27.5560  -37.1721   24.8466 C   0  0  0  0  0  0
  -21.4449  -29.3019   22.3429 N   0  0  0  0  0  0
  -26.4267  -37.3633   23.9406 N   0  0  0  0  0  0
  -24.8007  -30.9224   22.0738 N   0  0  0  0  0  0
  -23.4206  -28.7870   23.3076 O   0  0  0  0  0  0
  -28.1813  -25.3340   20.2925 O   0  0  0  0  0  0
  -26.5793  -34.8851   22.4554 O   0  0  0  0  0  0
  -23.5932  -32.1003   23.6316 O   0  0  0  0  0  0
  -31.2233  -20.8510   20.4443 C   0  0  0  0  0  0
  -30.3278  -21.9742   20.3863 C   0  0  0  0  0  0
  -30.8973  -19.4510   20.4170 C   0  0  0  0  0  0
  -28.6498  -20.2656   20.2683 C   0  0  0  0  0  0
  -28.9175  -21.8849   20.2883 C   0  0  0  0  0  0
  -29.5860  -18.9200   20.3295 C   0  0  0  0  0  0
  -27.9553  -23.5403   20.1946 C   0  0  0  0  0  0
  -29.4678  -17.1584   20.3338 N   0  0  0  0  0  0
  -31.3972  -13.4683   19.1574 H   0  0  0  0  0  0
  -30.6150  -12.3654   20.2348 H   0  0  0  0  0  0
  -30.0382  -11.8449   17.8404 H   0  0  0  0  0  0
  -29.4933  -13.4857   17.5947 H   0  0  0  0  0  0
  -28.1920  -11.3161   19.2495 H   0  0  0  0  0  0
  -27.4721  -12.2092   17.9298 H   0  0  0  0  0  0
  -27.4353  -14.2232   19.2177 H   0  0  0  0  0  0
  -28.8922  -12.8505   21.5245 H   0  0  0  0  0  0
  -28.1402  -14.4228   21.6061 H   0  0  0  0  0  0
  -25.2799   -9.5677   22.4764 H   0  0  0  0  0  0
  -24.0015   -7.4641   22.7480 H   0  0  0  0  0  0
  -21.0874   -8.8796   19.8951 H   0  0  0  0  0  0
  -22.3752  -10.9677   19.6160 H   0  0  0  0  0  0
  -21.2015   -7.6152   23.9718 H   0  0  0  0  0  0
  -21.1481   -6.0525   25.9077 H   0  0  0  0  0  0
  -22.0595   -2.7612   23.2843 H   0  0  0  0  0  0
  -22.4028  -11.9810   22.4881 H   0  0  0  0  0  0
  -21.0984  -13.1116   22.2673 H   0  0  0  0  0  0
  -24.6121  -15.8494   20.5375 H   0  0  0  0  0  0
  -26.2233  -15.6482   20.0710 H   0  0  0  0  0  0
  -26.7560  -32.4853   23.0732 H   0  0  0  0  0  0
  -25.0040  -33.9259   24.9969 H   0  0  0  0  0  0
  -22.8560  -31.2251   21.3001 H   0  0  0  0  0  0
  -23.3778  -35.9436   23.3259 H   0  0  0  0  0  0
  -24.3559  -36.8857   22.2082 H   0  0  0  0  0  0
  -23.7237  -37.6279   23.6781 H   0  0  0  0  0  0
  -26.3235  -31.2052   20.6299 H   0  0  0  0  0  0
  -26.9566  -30.5591   22.0929 H   0  0  0  0  0  0
  -28.1740  -28.2884   21.3341 H   0  0  0  0  0  0
  -25.8210  -25.5639   19.0038 H   0  0  0  0  0  0
  -24.0480  -27.1923   18.9234 H   0  0  0  0  0  0
  -23.9691  -30.4280   19.3747 H   0  0  0  0  0  0
  -22.8876  -29.1444   19.8122 H   0  0  0  0  0  0
  -25.1366  -36.1607   25.0763 H   0  0  0  0  0  0
  -21.0064  -28.3426   24.1249 H   0  0  0  0  0  0
  -20.5660  -26.2419   23.3677 H   0  0  0  0  0  0
  -21.6666  -26.7367   22.1230 H   0  0  0  0  0  0
  -19.6938  -25.6255   21.1303 H   0  0  0  0  0  0
  -19.6730  -27.3129   20.6710 H   0  0  0  0  0  0
  -17.4236  -26.6693   21.4021 H   0  0  0  0  0  0
  -18.0352  -26.0116   22.9034 H   0  0  0  0  0  0
  -19.7994  -30.7354   24.2146 H   0  0  0  0  0  0
  -17.5057  -31.6278   24.5166 H   0  0  0  0  0  0
  -15.5392  -30.2961   23.7726 H   0  0  0  0  0  0
  -15.8725  -28.0800   22.7132 H   0  0  0  0  0  0
  -24.5864  -30.7155   25.7572 H   0  0  0  0  0  0
  -24.8806  -32.3067   26.4469 H   0  0  0  0  0  0
  -25.7799  -30.9150   27.0207 H   0  0  0  0  0  0
  -26.3300  -29.6394   24.1665 H   0  0  0  0  0  0
  -27.3958  -29.7305   25.5442 H   0  0  0  0  0  0
  -27.9292  -30.3914   24.0226 H   0  0  0  0  0  0
  -27.2557  -33.3759   26.1844 H   0  0  0  0  0  0
  -28.3970  -32.6810   25.0429 H   0  0  0  0  0  0
  -28.0570  -31.8672   26.5625 H   0  0  0  0  0  0
  -28.2540  -38.0050   24.7512 H   0  0  0  0  0  0
  -28.1093  -36.2570   24.6297 H   0  0  0  0  0  0
  -27.2273  -37.1358   25.8868 H   0  0  0  0  0  0
  -20.9779  -29.8658   21.6465 H   0  0  0  0  0  0
  -26.0084  -38.2675   24.1421 H   0  0  0  0  0  0
  -32.2755  -21.0887   20.5173 H   0  0  0  0  0  0
  -30.7626  -22.9641   20.4154 H   0  0  0  0  0  0
  -31.7198  -18.7513   20.4730 H   0  0  0  0  0  0
  -27.5975  -20.0310   20.1940 H   0  0  0  0  0  0
  -27.1705  -23.3778   20.9334 H   0  0  0  0  0  0
  -27.4334  -23.4350   19.2435 H   0  0  0  0  0  0
  -28.4908  -16.9030   20.3508 H   0  0  0  0  0  0
  1 25  1  0  0  0
  1 30  2  0  0  0
  1 78  1  0  0  0
  2  3  1  0  0  0
  2 25  1  0  0  0
  2 79  1  0  0  0
  2 80  1  0  0  0
  3  4  1  0  0  0
  3 81  1  0  0  0
  3 82  1  0  0  0
  4  5  1  0  0  0
  4 83  1  0  0  0
  4 84  1  0  0  0
  5  6  1  0  0  0
  5 26  1  0  0  0
  5 85  1  0  0  0
  6 25  1  0  0  0
  6 86  1  0  0  0
  6 87  1  0  0  0
  7  8  2  0  0  0
  7 26  1  0  0  0
  7 29  1  0  0  0
  8  9  1  0  0  0
  8 22  1  0  0  0
  9 10  1  0  0  0
  9 27  2  0  0  0
 10 11  2  0  0  0
 10 15  1  0  0  0
 11 12  1  0  0  0
 11 88  1  0  0  0
 12 13  2  0  0  0
 12 89  1  0  0  0
 13 14  1  0  0  0
 13 31  1  0  0  0
 14 15  2  0  0  0
 14 90  1  0  0  0
 15 91  1  0  0  0
 16 17  2  0  0  0
 16 21  1  0  0  0
 16 31  1  0  0  0
 17 18  1  0  0  0
 17 92  1  0  0  0
 18 19  2  0  0  0
 18 93  1  0  0  0
 19 20  1  0  0  0
 19 24  1  0  0  0
 20 21  2  0  0  0
 20 94  1  0  0  0
 21 23  1  0  0  0
 22 28  1  0  0  0
 22 32  2  0  0  0
 26 27  1  0  0  0
 28 95  1  0  0  0
 28 96  1  0  0  0
 29 97  1  0  0  0
 29 98  1  0  0  0
 33 34  1  0  0  0
 33 66  1  0  0  0
 33 70  2  0  0  0
 34 36  1  0  0  0
 34 59  1  0  0  0
 34 99  1  0  0  0
 35 44  2  0  0  0
 35 45  1  0  0  0
 35 68  1  0  0  0
 36 56  1  0  0  0
 36100  1  0  0  0
 37 39  1  0  0  0
 37 47  1  0  0  0
 37 66  1  0  0  0
 37101  1  0  0  0
 38 43  2  0  0  0
 38 46  1  0  0  0
 38 47  1  0  0  0
 39 64  1  0  0  0
 39 67  2  0  0  0
 40 52  1  0  0  0
 40 53  2  0  0  0
 40 58  1  0  0  0
 41102  1  0  0  0
 41103  1  0  0  0
 41104  1  0  0  0
 41 48  1  0  0  0
 42 43  1  0  0  0
 42 66  1  0  0  0
 42105  1  0  0  0
 42106  1  0  0  0
 43 44  1  0  0  0
 44107  1  0  0  0
 45 46  2  0  0  0
 45108  1  0  0  0
 46109  1  0  0  0
 47110  1  0  0  0
 47111  1  0  0  0
 48 56  1  0  0  0
 48 65  1  0  0  0
 48112  1  0  0  0
 49 50  1  0  0  0
 49 53  1  0  0  0
 49 64  1  0  0  0
 49113  1  0  0  0
 50 51  1  0  0  0
 50114  1  0  0  0
 50115  1  0  0  0
 51 52  1  0  0  0
 51116  1  0  0  0
 51117  1  0  0  0
 52118  1  0  0  0
 52119  1  0  0  0
 53 54  1  0  0  0
 54 55  2  0  0  0
 54120  1  0  0  0
 55 57  1  0  0  0
 55121  1  0  0  0
 56 69  2  0  0  0
 57 58  2  0  0  0
 57122  1  0  0  0
 58123  1  0  0  0
 59 60  1  0  0  0
 59 61  1  0  0  0
 59 62  1  0  0  0
 60124  1  0  0  0
 60125  1  0  0  0
 60126  1  0  0  0
 61127  1  0  0  0
 61128  1  0  0  0
 61129  1  0  0  0
 62130  1  0  0  0
 62131  1  0  0  0
 62132  1  0  0  0
 63 65  1  0  0  0
 63133  1  0  0  0
 63134  1  0  0  0
 63135  1  0  0  0
 64136  1  0  0  0
 65137  1  0  0  0
 68 77  1  0  0  0
 71 72  2  0  0  0
 71 73  1  0  0  0
 71138  1  0  0  0
 72 75  1  0  0  0
 72139  1  0  0  0
 73 76  2  0  0  0
 73140  1  0  0  0
 74 75  2  0  0  0
 74 76  1  0  0  0
 74141  1  0  0  0
 75 77  1  0  0  0
 76 78  1  0  0  0
 77142  1  0  0  0
 77143  1  0  0  0
 78144  1  0  0  0
M  ISO  4   1 100  68 101  77 101  78 100
M  END
> <chiral flag>
0

> <version>
0

> <s_m_source_file>
/data/baiqing/PycharmProjects/Reinvent-master-3.2/result/LINK_invent/BTK/process_docking_weight1_custom_sum_contain_oxygen_bond_distance_aromatic_linkinvent_7_9_3/rearranged_h_0004.sdf

> <i_m_source_file_index>
42

> <r_mmod_Potential_Energy-OPLS-2005>
2813.380859375

> <r_mmod_Stretch_Energy-OPLS-2005>
1256.92761230469

> <r_mmod_Bend_Energy-OPLS-2005>
641.894226074219

> <r_mmod_Torsional_Energy-OPLS-2005>
222.88850402832

> <r_mmod_Improper_Torsional_Energy-OPLS-2005>
4.12787246704102

> <r_mmod_Van_der_Waal_Energy-OPLS-2005>
126.438247680664

> <r_mmod_Electrostatic_Energy-OPLS-2005>
-346.341064453125

> <r_mmod_Solvation_Energy-OPLS-2005>
-213.760787963867

> <b_mmod_Minimization_Converged-OPLS-2005>
0

> <r_mmod_RMS_Derivative-OPLS-2005>
0.157229289412498

$$$$
42
                    3D
 Structure written by MMmdl.
205212  0  0  1  0            999 V2000
  -30.0316  -13.1453   20.2891 C   0  0  0  0  0  0
  -31.1984  -12.4791   19.3869 C   0  0  0  0  0  0
  -29.8713  -12.4676   18.0246 C   0  0  0  0  0  0
  -28.1835  -12.7836   18.4536 C   0  0  0  0  0  0
  -27.6859  -13.4443   19.9971 C   0  0  2  0  0  0
  -28.9263  -13.5812   21.3961 C   0  0  0  0  0  0
  -25.2400  -13.8540   20.5964 C   0  0  0  0  0  0
  -24.1814  -13.0504   20.9117 C   0  0  0  0  0  0
  -24.6689  -11.7064   20.8554 C   0  0  0  0  0  0
  -23.9355  -10.4336   21.0209 C   0  0  0  0  0  0
  -24.3788   -9.4262   21.9077 C   0  0  0  0  0  0
  -23.6375   -8.2348   22.0748 C   0  0  0  0  0  0
  -22.4375   -8.0336   21.3523 C   0  0  0  0  0  0
  -22.0095   -9.0278   20.4550 C   0  0  0  0  0  0
  -22.7464  -10.2142   20.2929 C   0  0  0  0  0  0
  -21.6919   -6.0759   22.5233 C   0  0  0  0  0  0
  -21.4049   -6.5653   23.8160 C   0  0  0  0  0  0
  -21.3699   -5.6812   24.9124 C   0  0  0  0  0  0
  -21.6066   -4.3064   24.7180 C   0  0  0  0  0  0
  -21.8845   -3.8166   23.4288 C   0  0  0  0  0  0
  -21.9229   -4.6977   22.3352 C   0  0  0  0  0  0
  -22.7777  -13.5087   21.1760 C   0  0  0  0  0  0
  -22.1675   -4.2158   21.0937 F   0  0  0  0  0  0
  -21.5637   -3.4535   25.7689 F   0  0  0  0  0  0
  -30.6109  -13.0313   21.0380 N   0  0  0  0  0  0
  -26.3269  -13.0248   20.3908 N   0  0  0  0  0  0
  -25.9795  -11.7130   20.5742 N   0  0  0  0  0  0
  -22.0528  -12.8047   22.0354 N   0  0  0  0  0  0
  -25.3685  -15.2322   20.4574 N   0  0  0  0  0  0
  -30.2032  -14.3932   19.7074 O   0  0  0  0  0  0
  -21.6711   -6.8935   21.4222 O   0  0  0  0  0  0
  -22.3360  -14.5378   20.6641 O   0  0  0  0  0  0
  -24.6127  -31.8701   23.2130 C   0  0  0  0  0  0
  -25.9027  -32.4836   23.8418 C   0  0  1  0  0  0
  -27.2504  -27.4528   20.0919 C   0  0  0  0  0  0
  -25.5889  -33.8631   24.2344 N   0  0  0  0  0  0
  -23.4019  -30.4917   21.5518 C   0  0  2  0  0  0
  -24.8534  -28.9557   20.1237 C   0  0  0  0  0  0
  -22.7404  -29.4664   22.5002 C   0  0  0  0  0  0
  -18.0268  -28.1375   22.8497 C   0  0  0  0  0  0
  -24.1486  -36.7323   23.2638 C   0  0  0  0  0  0
  -25.9291  -30.8366   21.3684 C   0  0  0  0  0  0
  -26.0102  -29.4671   20.7267 C   0  0  0  0  0  0
  -27.2108  -28.7194   20.7243 C   0  0  0  0  0  0
  -26.0797  -26.9588   19.4835 C   0  0  0  0  0  0
  -24.8800  -27.6945   19.5053 C   0  0  0  0  0  0
  -23.6147  -29.8217   20.1677 C   0  0  0  0  0  0
  -25.4106  -36.3116   24.0336 C   0  0  1  0  0  0
  -20.5857  -28.3659   23.1323 C   0  0  2  0  0  0
  -20.6756  -26.9396   22.5418 C   0  0  0  0  0  0
  -19.5741  -26.6383   21.5212 C   0  0  0  0  0  0
  -18.1918  -26.7921   22.1622 C   0  0  0  0  0  0
  -19.1517  -28.8835   23.2909 C   0  0  0  0  0  0
  -18.9446  -30.1441   23.8920 C   0  0  0  0  0  0
  -17.6452  -30.6585   24.0565 C   0  0  0  0  0  0
  -25.9028  -34.9478   23.5134 C   0  0  0  0  0  0
  -16.5343  -29.9091   23.6324 C   0  0  0  0  0  0
  -16.7257  -28.6505   23.0348 C   0  0  0  0  0  0
  -26.4464  -31.6600   25.0727 C   0  0  0  0  0  0
  -25.3737  -31.3692   26.1476 C   0  0  0  0  0  0
  -27.0308  -30.3054   24.6084 C   0  0  0  0  0  0
  -27.6037  -32.4320   25.7496 C   0  0  0  0  0  0
  -27.5578  -37.1822   24.8468 C   0  0  0  0  0  0
  -21.4135  -29.3033   22.3735 N   0  0  0  0  0  0
  -26.4300  -37.3797   23.9397 N   0  0  0  0  0  0
  -24.6655  -31.0803   22.1036 N   0  0  0  0  0  0
  -23.4174  -28.8199   23.3042 O   0  0  0  0  0  0
  -28.3780  -26.6699   19.9708 O   0  0  0  0  0  0
  -26.5590  -34.8927   22.4696 O   0  0  0  0  0  0
  -23.5319  -32.1444   23.7520 O   0  0  0  0  0  0
  -32.7500  -10.5146   15.9412 C   0  0  0  0  0  0
  -31.1571   -8.1701   17.4286 C   0  0  0  0  0  0
  -27.2838   -8.9979   15.3731 C   0  0  0  0  0  0
  -29.9751   -8.0910   13.7026 C   0  0  0  0  0  0
  -32.8046  -12.0318   15.7114 C   0  0  0  0  0  0
  -28.7501   -9.4376   15.4667 C   0  0  0  0  0  0
  -33.7541  -12.8009   16.6589 C   0  0  0  0  0  0
  -33.4672  -14.3207   16.6936 C   0  0  0  0  0  0
  -34.3787  -15.0928   17.6672 C   0  0  0  0  0  0
  -34.2428  -16.6329   17.6030 C   0  0  0  0  0  0
  -33.0339  -17.2430   18.3501 C   0  0  0  0  0  0
  -33.1065  -18.7874   18.4023 C   0  0  0  0  0  0
  -31.9516  -19.4772   19.1653 C   0  0  0  0  0  0
  -32.1381  -21.0109   19.2480 C   0  0  0  0  0  0
  -30.9677  -21.7855   19.8996 C   0  0  0  0  0  0
  -31.2574  -23.3007   20.0166 C   0  0  0  0  0  0
  -30.0766  -24.1574   20.5321 C   0  0  0  0  0  0
  -30.4540  -25.6528   20.6726 C   0  0  0  0  0  0
  -30.0116   -9.2231   20.2508 C   0  0  0  0  0  0
  -29.7902   -7.8974   19.4985 C   0  0  0  0  0  0
  -29.0280  -10.3565   19.8755 C   0  0  0  0  0  0
  -29.3013  -26.6118   21.0512 C   0  0  0  0  0  0
  -31.1592   -8.5353   15.9189 C   0  0  1  0  0  0
  -29.7804   -8.3021   15.2141 C   0  0  2  0  0  0
  -29.9795   -8.0558   18.0590 N   0  0  0  0  0  0
  -31.5711   -9.9284   15.6964 N   0  0  0  0  0  0
  -29.4899  -11.6179   20.5061 N   0  0  0  0  0  0
  -33.7530   -9.9001   16.3093 O   0  0  0  0  0  0
  -32.2199   -7.9945   18.0258 O   0  0  0  0  0  0
  -32.0649  -13.0744   19.0497 H   0  0  0  0  0  0
  -31.6881  -11.4953   19.4339 H   0  0  0  0  0  0
  -29.9567  -11.5627   17.4310 H   0  0  0  0  0  0
  -30.1488  -13.2451   17.3097 H   0  0  0  0  0  0
  -27.5740  -11.9065   18.2408 H   0  0  0  0  0  0
  -27.8110  -13.4832   17.7034 H   0  0  0  0  0  0
  -27.5902  -14.4922   19.7183 H   0  0  0  0  0  0
  -28.5335  -13.0419   22.2701 H   0  0  0  0  0  0
  -28.9080  -14.6126   21.7937 H   0  0  0  0  0  0
  -25.2923   -9.5716   22.4656 H   0  0  0  0  0  0
  -24.0012   -7.4801   22.7571 H   0  0  0  0  0  0
  -21.1067   -8.8738   19.8802 H   0  0  0  0  0  0
  -22.3896  -10.9641   19.5990 H   0  0  0  0  0  0
  -21.2020   -7.6158   23.9618 H   0  0  0  0  0  0
  -21.1524   -6.0544   25.9015 H   0  0  0  0  0  0
  -22.0594   -2.7617   23.2774 H   0  0  0  0  0  0
  -22.4305  -11.9746   22.4674 H   0  0  0  0  0  0
  -21.1114  -13.0946   22.2597 H   0  0  0  0  0  0
  -24.5843  -15.8669   20.5494 H   0  0  0  0  0  0
  -26.2249  -15.6990   20.1838 H   0  0  0  0  0  0
  -26.7103  -32.5567   23.1193 H   0  0  0  0  0  0
  -25.0042  -33.9805   25.0487 H   0  0  0  0  0  0
  -22.6899  -31.3076   21.4109 H   0  0  0  0  0  0
  -23.3738  -35.9670   23.3327 H   0  0  0  0  0  0
  -24.3576  -36.8912   22.2049 H   0  0  0  0  0  0
  -23.7258  -37.6543   23.6638 H   0  0  0  0  0  0
  -26.0358  -31.5981   20.5940 H   0  0  0  0  0  0
  -26.8192  -30.8989   21.9835 H   0  0  0  0  0  0
  -28.0985  -29.1330   21.1807 H   0  0  0  0  0  0
  -26.1011  -25.9978   18.9890 H   0  0  0  0  0  0
  -23.9931  -27.2928   19.0355 H   0  0  0  0  0  0
  -23.7253  -30.5959   19.4082 H   0  0  0  0  0  0
  -22.7403  -29.2412   19.8700 H   0  0  0  0  0  0
  -25.1287  -36.1992   25.0835 H   0  0  0  0  0  0
  -20.9948  -28.3220   24.1446 H   0  0  0  0  0  0
  -20.5654  -26.2269   23.3604 H   0  0  0  0  0  0
  -21.6628  -26.7440   22.1217 H   0  0  0  0  0  0
  -19.6898  -25.6299   21.1236 H   0  0  0  0  0  0
  -19.6677  -27.3200   20.6750 H   0  0  0  0  0  0
  -17.4185  -26.6671   21.4026 H   0  0  0  0  0  0
  -18.0317  -26.0058   22.9018 H   0  0  0  0  0  0
  -19.7923  -30.7244   24.2301 H   0  0  0  0  0  0
  -17.5009  -31.6266   24.5159 H   0  0  0  0  0  0
  -15.5344  -30.3000   23.7631 H   0  0  0  0  0  0
  -15.8655  -28.0828   22.7055 H   0  0  0  0  0  0
  -24.5907  -30.7045   25.7809 H   0  0  0  0  0  0
  -24.8928  -32.2844   26.4944 H   0  0  0  0  0  0
  -25.8090  -30.8845   27.0225 H   0  0  0  0  0  0
  -26.2861  -29.6819   24.1127 H   0  0  0  0  0  0
  -27.4088  -29.7277   25.4530 H   0  0  0  0  0  0
  -27.8685  -30.4395   23.9235 H   0  0  0  0  0  0
  -27.2647  -33.3599   26.2123 H   0  0  0  0  0  0
  -28.3826  -32.6922   25.0313 H   0  0  0  0  0  0
  -28.0735  -31.8419   26.5379 H   0  0  0  0  0  0
  -28.2616  -38.0097   24.7484 H   0  0  0  0  0  0
  -28.1050  -36.2626   24.6336 H   0  0  0  0  0  0
  -27.2286  -37.1524   25.8871 H   0  0  0  0  0  0
  -20.9286  -29.8772   21.6976 H   0  0  0  0  0  0
  -26.0190  -38.2882   24.1379 H   0  0  0  0  0  0
  -26.6259   -9.8352   15.6097 H   0  0  0  0  0  0
  -27.0631   -8.2005   16.0831 H   0  0  0  0  0  0
  -27.0231   -8.6479   14.3740 H   0  0  0  0  0  0
  -29.0246   -7.9017   13.2034 H   0  0  0  0  0  0
  -30.6211   -7.2357   13.5009 H   0  0  0  0  0  0
  -30.4283   -8.9652   13.2372 H   0  0  0  0  0  0
  -31.7938  -12.4216   15.8252 H   0  0  0  0  0  0
  -33.0852  -12.2159   14.6743 H   0  0  0  0  0  0
  -28.8925   -9.8601   16.4583 H   0  0  0  0  0  0
  -28.9241  -10.2616   14.7716 H   0  0  0  0  0  0
  -34.7829  -12.6317   16.3409 H   0  0  0  0  0  0
  -33.6884  -12.3901   17.6658 H   0  0  0  0  0  0
  -32.4271  -14.4954   16.9730 H   0  0  0  0  0  0
  -33.5902  -14.7245   15.6876 H   0  0  0  0  0  0
  -35.4130  -14.8356   17.4326 H   0  0  0  0  0  0
  -34.2215  -14.7436   18.6884 H   0  0  0  0  0  0
  -34.2346  -16.9599   16.5619 H   0  0  0  0  0  0
  -35.1533  -17.0577   18.0304 H   0  0  0  0  0  0
  -32.9990  -16.8513   19.3678 H   0  0  0  0  0  0
  -32.1045  -16.9313   17.8711 H   0  0  0  0  0  0
  -33.1396  -19.1759   17.3821 H   0  0  0  0  0  0
  -34.0519  -19.0785   18.8633 H   0  0  0  0  0  0
  -31.8853  -19.0697   20.1761 H   0  0  0  0  0  0
  -31.0041  -19.2439   18.6766 H   0  0  0  0  0  0
  -32.3010  -21.4033   18.2433 H   0  0  0  0  0  0
  -33.0538  -21.2210   19.8031 H   0  0  0  0  0  0
  -30.7648  -21.3787   20.8913 H   0  0  0  0  0  0
  -30.0619  -21.6318   19.3119 H   0  0  0  0  0  0
  -31.5589  -23.6786   19.0384 H   0  0  0  0  0  0
  -32.1189  -23.4445   20.6709 H   0  0  0  0  0  0
  -29.7361  -23.7750   21.4956 H   0  0  0  0  0  0
  -29.2342  -24.0559   19.8471 H   0  0  0  0  0  0
  -30.8993  -26.0020   19.7402 H   0  0  0  0  0  0
  -31.2350  -25.7422   21.4283 H   0  0  0  0  0  0
  -31.0427   -9.5331   20.0791 H   0  0  0  0  0  0
  -29.9491   -9.0395   21.3233 H   0  0  0  0  0  0
  -28.7840   -7.5233   19.6898 H   0  0  0  0  0  0
  -30.4794   -7.1405   19.8771 H   0  0  0  0  0  0
  -28.0485  -10.1030   20.2810 H   0  0  0  0  0  0
  -28.9062  -10.3554   18.8013 H   0  0  0  0  0  0
  -29.7170  -27.6014   21.2452 H   0  0  0  0  0  0
  -28.7999  -26.2786   21.9618 H   0  0  0  0  0  0
  -31.9012   -7.8814   15.4557 H   0  0  0  0  0  0
  -29.3651   -7.3646   15.5954 H   0  0  0  0  0  0
  -29.1475   -8.1247   17.4886 H   0  0  0  0  0  0
  -30.8363  -10.5353   15.3638 H   0  0  0  0  0  0
  -29.8162  -11.3806   21.4318 H   0  0  0  0  0  0
  1 25  1  0  0  0
  1 30  2  0  0  0
  1 97  1  0  0  0
  2  3  1  0  0  0
  2 25  1  0  0  0
  2100  1  0  0  0
  2101  1  0  0  0
  3  4  1  0  0  0
  3102  1  0  0  0
  3103  1  0  0  0
  4  5  1  0  0  0
  4104  1  0  0  0
  4105  1  0  0  0
  5  6  1  0  0  0
  5 26  1  0  0  0
  5106  1  0  0  0
  6 25  1  0  0  0
  6107  1  0  0  0
  6108  1  0  0  0
  7  8  2  0  0  0
  7 26  1  0  0  0
  7 29  1  0  0  0
  8  9  1  0  0  0
  8 22  1  0  0  0
  9 10  1  0  0  0
  9 27  2  0  0  0
 10 11  2  0  0  0
 10 15  1  0  0  0
 11 12  1  0  0  0
 11109  1  0  0  0
 12 13  2  0  0  0
 12110  1  0  0  0
 13 14  1  0  0  0
 13 31  1  0  0  0
 14 15  2  0  0  0
 14111  1  0  0  0
 15112  1  0  0  0
 16 17  2  0  0  0
 16 21  1  0  0  0
 16 31  1  0  0  0
 17 18  1  0  0  0
 17113  1  0  0  0
 18 19  2  0  0  0
 18114  1  0  0  0
 19 20  1  0  0  0
 19 24  1  0  0  0
 20 21  2  0  0  0
 20115  1  0  0  0
 21 23  1  0  0  0
 22 28  1  0  0  0
 22 32  2  0  0  0
 26 27  1  0  0  0
 28116  1  0  0  0
 28117  1  0  0  0
 29118  1  0  0  0
 29119  1  0  0  0
 33 34  1  0  0  0
 33 66  1  0  0  0
 33 70  2  0  0  0
 34 36  1  0  0  0
 34 59  1  0  0  0
 34120  1  0  0  0
 35 44  2  0  0  0
 35 45  1  0  0  0
 35 68  1  0  0  0
 36 56  1  0  0  0
 36121  1  0  0  0
 37 39  1  0  0  0
 37 47  1  0  0  0
 37 66  1  0  0  0
 37122  1  0  0  0
 38 43  2  0  0  0
 38 46  1  0  0  0
 38 47  1  0  0  0
 39 64  1  0  0  0
 39 67  2  0  0  0
 40 52  1  0  0  0
 40 53  2  0  0  0
 40 58  1  0  0  0
 41123  1  0  0  0
 41124  1  0  0  0
 41125  1  0  0  0
 41 48  1  0  0  0
 42 43  1  0  0  0
 42 66  1  0  0  0
 42126  1  0  0  0
 42127  1  0  0  0
 43 44  1  0  0  0
 44128  1  0  0  0
 45 46  2  0  0  0
 45129  1  0  0  0
 46130  1  0  0  0
 47131  1  0  0  0
 47132  1  0  0  0
 48 56  1  0  0  0
 48 65  1  0  0  0
 48133  1  0  0  0
 49 50  1  0  0  0
 49 53  1  0  0  0
 49 64  1  0  0  0
 49134  1  0  0  0
 50 51  1  0  0  0
 50135  1  0  0  0
 50136  1  0  0  0
 51 52  1  0  0  0
 51137  1  0  0  0
 51138  1  0  0  0
 52139  1  0  0  0
 52140  1  0  0  0
 53 54  1  0  0  0
 54 55  2  0  0  0
 54141  1  0  0  0
 55 57  1  0  0  0
 55142  1  0  0  0
 56 69  2  0  0  0
 57 58  2  0  0  0
 57143  1  0  0  0
 58144  1  0  0  0
 59 60  1  0  0  0
 59 61  1  0  0  0
 59 62  1  0  0  0
 60145  1  0  0  0
 60146  1  0  0  0
 60147  1  0  0  0
 61148  1  0  0  0
 61149  1  0  0  0
 61150  1  0  0  0
 62151  1  0  0  0
 62152  1  0  0  0
 62153  1  0  0  0
 63 65  1  0  0  0
 63154  1  0  0  0
 63155  1  0  0  0
 63156  1  0  0  0
 64157  1  0  0  0
 65158  1  0  0  0
 68 92  1  0  0  0
 71 75  1  0  0  0
 71 96  1  0  0  0
 71 98  2  0  0  0
 72 93  1  0  0  0
 72 95  1  0  0  0
 72 99  2  0  0  0
 73 76  1  0  0  0
 73159  1  0  0  0
 73160  1  0  0  0
 73161  1  0  0  0
 74162  1  0  0  0
 74163  1  0  0  0
 74164  1  0  0  0
 74 94  1  0  0  0
 75 77  1  0  0  0
 75165  1  0  0  0
 75166  1  0  0  0
 76 94  1  0  0  0
 76167  1  0  0  0
 76168  1  0  0  0
 77 78  1  0  0  0
 77169  1  0  0  0
 77170  1  0  0  0
 78 79  1  0  0  0
 78171  1  0  0  0
 78172  1  0  0  0
 79 80  1  0  0  0
 79173  1  0  0  0
 79174  1  0  0  0
 80 81  1  0  0  0
 80175  1  0  0  0
 80176  1  0  0  0
 81 82  1  0  0  0
 81177  1  0  0  0
 81178  1  0  0  0
 82 83  1  0  0  0
 82179  1  0  0  0
 82180  1  0  0  0
 83 84  1  0  0  0
 83181  1  0  0  0
 83182  1  0  0  0
 84 85  1  0  0  0
 84183  1  0  0  0
 84184  1  0  0  0
 85 86  1  0  0  0
 85185  1  0  0  0
 85186  1  0  0  0
 86 87  1  0  0  0
 86187  1  0  0  0
 86188  1  0  0  0
 87 88  1  0  0  0
 87189  1  0  0  0
 87190  1  0  0  0
 88 92  1  0  0  0
 88191  1  0  0  0
 88192  1  0  0  0
 89 90  1  0  0  0
 89 91  1  0  0  0
 89193  1  0  0  0
 89194  1  0  0  0
 90 95  1  0  0  0
 90195  1  0  0  0
 90196  1  0  0  0
 91 97  1  0  0  0
 91197  1  0  0  0
 91198  1  0  0  0
 92199  1  0  0  0
 92200  1  0  0  0
 93 94  1  0  0  0
 93 96  1  0  0  0
 93201  1  0  0  0
 94202  1  0  0  0
 95203  1  0  0  0
 96204  1  0  0  0
 97205  1  0  0  0
M  ISO  4   1 100  68 101  92 101  97 100
M  END
> <chiral flag>
0

> <version>
0

> <s_m_source_file>
/data/baiqing/PycharmProjects/Reinvent-master-3.2/result/LINK_invent/BTK/process_docking_weight1_custom_sum_contain_oxygen_bond_distance_aromatic_linkinvent_7_9_3/rearranged_h_0004.sdf

> <i_m_source_file_index>
43

> <r_mmod_Potential_Energy-OPLS-2005>
3557.30493164062

> <r_mmod_Stretch_Energy-OPLS-2005>
1388.47265625

> <r_mmod_Bend_Energy-OPLS-2005>
879.493041992188

> <r_mmod_Torsional_Energy-OPLS-2005>
376.10205078125

> <r_mmod_Improper_Torsional_Energy-OPLS-2005>
3.65912008285522

> <r_mmod_Van_der_Waal_Energy-OPLS-2005>
901.119934082031

> <r_mmod_Electrostatic_Energy-OPLS-2005>
-465.89794921875

> <r_mmod_Solvation_Energy-OPLS-2005>
-259.202789306641

> <b_mmod_Minimization_Converged-OPLS-2005>
0

> <r_mmod_RMS_Derivative-OPLS-2005>
4.09937715530396

$$$$
43
                    3D
 Structure written by MMmdl.
176184  0  0  1  0            999 V2000
  -30.7114  -14.3994   20.5854 C   0  0  0  0  0  0
  -30.4205  -12.2664   19.4030 C   0  0  0  0  0  0
  -29.4920  -12.5146   18.1965 C   0  0  0  0  0  0
  -28.0104  -12.3826   18.6044 C   0  0  0  0  0  0
  -27.6680  -13.1993   19.8797 C   0  0  2  0  0  0
  -28.7063  -12.9306   20.9924 C   0  0  0  0  0  0
  -25.2623  -13.8138   20.5664 C   0  0  0  0  0  0
  -24.1859  -13.0437   20.9152 C   0  0  0  0  0  0
  -24.6397  -11.6896   20.8710 C   0  0  0  0  0  0
  -23.9060  -10.4291   21.0387 C   0  0  0  0  0  0
  -24.3611   -9.4214   21.9169 C   0  0  0  0  0  0
  -23.6294   -8.2247   22.0747 C   0  0  0  0  0  0
  -22.4274   -8.0274   21.3541 C   0  0  0  0  0  0
  -21.9906   -9.0248   20.4643 C   0  0  0  0  0  0
  -22.7229  -10.2130   20.3044 C   0  0  0  0  0  0
  -21.6858   -6.0731   22.5280 C   0  0  0  0  0  0
  -21.4014   -6.5643   23.8210 C   0  0  0  0  0  0
  -21.3657   -5.6794   24.9172 C   0  0  0  0  0  0
  -21.6049   -4.3056   24.7227 C   0  0  0  0  0  0
  -21.8823   -3.8146   23.4347 C   0  0  0  0  0  0
  -21.9196   -4.6960   22.3401 C   0  0  0  0  0  0
  -22.7884  -13.5242   21.1818 C   0  0  0  0  0  0
  -22.1665   -4.2154   21.0977 F   0  0  0  0  0  0
  -21.5630   -3.4538   25.7736 F   0  0  0  0  0  0
  -30.0469  -13.2245   20.4517 N   0  0  0  0  0  0
  -26.3062  -12.9294   20.3372 N   0  0  0  0  0  0
  -25.9320  -11.6460   20.5756 N   0  0  0  0  0  0
  -22.0528  -12.8238   22.0370 N   0  0  0  0  0  0
  -25.4395  -15.1853   20.4073 N   0  0  0  0  0  0
  -31.8346  -14.6064   20.1145 O   0  0  0  0  0  0
  -21.6645   -6.8866   21.4237 O   0  0  0  0  0  0
  -22.3574  -14.5555   20.6663 O   0  0  0  0  0  0
  -24.6076  -31.8699   23.2122 C   0  0  0  0  0  0
  -25.8988  -32.4845   23.8404 C   0  0  1  0  0  0
  -27.2437  -27.4858   20.1026 C   0  0  0  0  0  0
  -25.5862  -33.8645   24.2340 N   0  0  0  0  0  0
  -23.3931  -30.4913   21.5495 C   0  0  2  0  0  0
  -24.8431  -28.9634   20.1094 C   0  0  0  0  0  0
  -22.7371  -29.4659   22.5000 C   0  0  0  0  0  0
  -18.0256  -28.1363   22.8495 C   0  0  0  0  0  0
  -24.1471  -36.7339   23.2644 C   0  0  0  0  0  0
  -25.9121  -30.8562   21.3530 C   0  0  0  0  0  0
  -25.9933  -29.4923   20.7056 C   0  0  0  0  0  0
  -27.1950  -28.7627   20.6991 C   0  0  0  0  0  0
  -26.0872  -26.9642   19.4895 C   0  0  0  0  0  0
  -24.8831  -27.6973   19.4945 C   0  0  0  0  0  0
  -23.5987  -29.8193   20.1635 C   0  0  0  0  0  0
  -25.4092  -36.3143   24.0347 C   0  0  1  0  0  0
  -20.5843  -28.3633   23.1340 C   0  0  2  0  0  0
  -20.6743  -26.9374   22.5428 C   0  0  0  0  0  0
  -19.5729  -26.6375   21.5215 C   0  0  0  0  0  0
  -18.1904  -26.7911   22.1625 C   0  0  0  0  0  0
  -19.1508  -28.8813   23.2916 C   0  0  0  0  0  0
  -18.9448  -30.1428   23.8912 C   0  0  0  0  0  0
  -17.6453  -30.6578   24.0563 C   0  0  0  0  0  0
  -25.9017  -34.9503   23.5145 C   0  0  0  0  0  0
  -16.5339  -29.9084   23.6332 C   0  0  0  0  0  0
  -16.7248  -28.6501   23.0351 C   0  0  0  0  0  0
  -26.4459  -31.6600   25.0697 C   0  0  0  0  0  0
  -25.3758  -31.3679   26.1470 C   0  0  0  0  0  0
  -27.0288  -30.3063   24.6014 C   0  0  0  0  0  0
  -27.6038  -32.4317   25.7440 C   0  0  0  0  0  0
  -27.5578  -37.1820   24.8461 C   0  0  0  0  0  0
  -21.4103  -29.3008   22.3747 N   0  0  0  0  0  0
  -26.4287  -37.3824   23.9412 N   0  0  0  0  0  0
  -24.6554  -31.0859   22.0981 N   0  0  0  0  0  0
  -23.4168  -28.8212   23.3025 O   0  0  0  0  0  0
  -28.3912  -26.7334   20.1117 O   0  0  0  0  0  0
  -26.5595  -34.8949   22.4714 O   0  0  0  0  0  0
  -23.5290  -32.1413   23.7569 O   0  0  0  0  0  0
  -29.9069  -19.0280   21.8231 C   0  0  0  0  0  0
  -29.8539  -17.6365   22.0256 C   0  0  0  0  0  0
  -30.4392  -18.6743   19.4817 C   0  0  0  0  0  0
  -30.2131  -19.5711   20.5513 C   0  0  0  0  0  0
  -30.1073  -16.7527   20.9596 C   0  0  0  0  0  0
  -30.3668  -17.2830   19.6708 C   0  0  0  0  0  0
  -31.8224  -28.5218   21.6016 C   0  0  0  0  0  0
  -29.8198  -27.2595   22.0516 C   0  0  0  0  0  0
  -31.2469  -29.8518   22.1099 C   0  0  0  0  0  0
  -30.5124  -21.8260   21.5186 C   0  0  0  0  0  0
  -28.7913  -26.2959   21.4186 C   0  0  0  0  0  0
  -30.5797  -23.9690   18.7762 C   0  0  0  0  0  0
  -31.8239  -24.8670   18.6710 C   0  0  0  0  0  0
  -30.8421  -22.4911   18.4412 C   0  0  0  0  0  0
  -31.5871  -26.2462   19.3062 C   0  0  0  0  0  0
  -29.8107  -21.5507   19.0945 C   0  0  0  0  0  0
  -31.6805  -26.2093   20.8496 C   0  0  0  0  0  0
  -30.0177  -15.3601   21.2102 N   0  0  0  0  0  0
  -30.2952  -20.9686   20.3535 N   0  0  0  0  0  0
  -31.0656  -27.3878   21.5054 N   0  0  0  0  0  0
  -33.0052  -28.5492   21.2409 O   0  0  0  0  0  0
  -29.4297  -27.9074   23.0299 O   0  0  0  0  0  0
  -30.5145  -16.4742   18.5926 F   0  0  0  0  0  0
  -31.4664  -12.3606   19.1034 H   0  0  0  0  0  0
  -30.3040  -11.2461   19.7708 H   0  0  0  0  0  0
  -29.7211  -11.8143   17.3921 H   0  0  0  0  0  0
  -29.6747  -13.5117   17.7940 H   0  0  0  0  0  0
  -27.8033  -11.3251   18.7710 H   0  0  0  0  0  0
  -27.3647  -12.6877   17.7800 H   0  0  0  0  0  0
  -27.7269  -14.2548   19.6109 H   0  0  0  0  0  0
  -28.6640  -11.8838   21.2979 H   0  0  0  0  0  0
  -28.4724  -13.4977   21.8935 H   0  0  0  0  0  0
  -25.2756   -9.5699   22.4743 H   0  0  0  0  0  0
  -24.0007   -7.4646   22.7469 H   0  0  0  0  0  0
  -21.0841   -8.8753   19.8956 H   0  0  0  0  0  0
  -22.3670  -10.9659   19.6158 H   0  0  0  0  0  0
  -21.2000   -7.6153   23.9709 H   0  0  0  0  0  0
  -21.1479   -6.0527   25.9075 H   0  0  0  0  0  0
  -22.0604   -2.7609   23.2849 H   0  0  0  0  0  0
  -22.4147  -11.9907   22.4769 H   0  0  0  0  0  0
  -21.1144  -13.1260   22.2558 H   0  0  0  0  0  0
  -24.6795  -15.8481   20.5147 H   0  0  0  0  0  0
  -26.3024  -15.6197   20.1046 H   0  0  0  0  0  0
  -26.7056  -32.5609   23.1178 H   0  0  0  0  0  0
  -24.9962  -33.9804   25.0451 H   0  0  0  0  0  0
  -22.6797  -31.3055   21.4103 H   0  0  0  0  0  0
  -23.3738  -35.9671   23.3323 H   0  0  0  0  0  0
  -24.3551  -36.8945   22.2057 H   0  0  0  0  0  0
  -23.7218  -37.6547   23.6639 H   0  0  0  0  0  0
  -26.0075  -31.6218   20.5817 H   0  0  0  0  0  0
  -26.8048  -30.9202   21.9634 H   0  0  0  0  0  0
  -28.0754  -29.1925   21.1509 H   0  0  0  0  0  0
  -26.1174  -25.9896   19.0221 H   0  0  0  0  0  0
  -23.9993  -27.2864   19.0271 H   0  0  0  0  0  0
  -23.6971  -30.5909   19.3995 H   0  0  0  0  0  0
  -22.7270  -29.2297   19.8738 H   0  0  0  0  0  0
  -25.1269  -36.2025   25.0845 H   0  0  0  0  0  0
  -20.9937  -28.3189   24.1462 H   0  0  0  0  0  0
  -20.5629  -26.2244   23.3611 H   0  0  0  0  0  0
  -21.6616  -26.7408   22.1227 H   0  0  0  0  0  0
  -19.6890  -25.6293   21.1223 H   0  0  0  0  0  0
  -19.6679  -27.3204   20.6763 H   0  0  0  0  0  0
  -17.4181  -26.6674   21.4022 H   0  0  0  0  0  0
  -18.0295  -26.0046   22.9013 H   0  0  0  0  0  0
  -19.7928  -30.7235   24.2294 H   0  0  0  0  0  0
  -17.5013  -31.6267   24.5154 H   0  0  0  0  0  0
  -15.5342  -30.2998   23.7642 H   0  0  0  0  0  0
  -15.8646  -28.0826   22.7062 H   0  0  0  0  0  0
  -24.5906  -30.7057   25.7805 H   0  0  0  0  0  0
  -24.8978  -32.2832   26.4969 H   0  0  0  0  0  0
  -25.8144  -30.8800   27.0185 H   0  0  0  0  0  0
  -26.2810  -29.6829   24.1102 H   0  0  0  0  0  0
  -27.4120  -29.7295   25.4438 H   0  0  0  0  0  0
  -27.8619  -30.4393   23.9107 H   0  0  0  0  0  0
  -27.2643  -33.3586   26.2076 H   0  0  0  0  0  0
  -28.3805  -32.6930   25.0240 H   0  0  0  0  0  0
  -28.0743  -31.8412   26.5309 H   0  0  0  0  0  0
  -28.2607  -38.0107   24.7507 H   0  0  0  0  0  0
  -28.1065  -36.2644   24.6279 H   0  0  0  0  0  0
  -27.2295  -37.1461   25.8864 H   0  0  0  0  0  0
  -20.9264  -29.8744   21.6983 H   0  0  0  0  0  0
  -26.0199  -38.2909   24.1432 H   0  0  0  0  0  0
  -29.6978  -19.6646   22.6701 H   0  0  0  0  0  0
  -29.6210  -17.2550   23.0093 H   0  0  0  0  0  0
  -30.6762  -19.0301   18.4912 H   0  0  0  0  0  0
  -31.1483  -29.8435   23.1954 H   0  0  0  0  0  0
  -30.2757  -30.0629   21.6635 H   0  0  0  0  0  0
  -31.9094  -30.6769   21.8469 H   0  0  0  0  0  0
  -31.1309  -21.3363   22.2719 H   0  0  0  0  0  0
  -29.5616  -22.1028   21.9764 H   0  0  0  0  0  0
  -31.0447  -22.7367   21.2490 H   0  0  0  0  0  0
  -27.9260  -26.2265   22.0821 H   0  0  0  0  0  0
  -29.1649  -25.2774   21.3686 H   0  0  0  0  0  0
  -29.7900  -24.3585   18.1315 H   0  0  0  0  0  0
  -30.1724  -24.0307   19.7806 H   0  0  0  0  0  0
  -32.0926  -24.9844   17.6201 H   0  0  0  0  0  0
  -32.6824  -24.3930   19.1504 H   0  0  0  0  0  0
  -31.8509  -22.1926   18.7308 H   0  0  0  0  0  0
  -30.8036  -22.3738   17.3572 H   0  0  0  0  0  0
  -30.6247  -26.6336   18.9735 H   0  0  0  0  0  0
  -32.3319  -26.9468   18.9257 H   0  0  0  0  0  0
  -29.5246  -20.7857   18.3739 H   0  0  0  0  0  0
  -28.8838  -22.0916   19.2931 H   0  0  0  0  0  0
  -32.7307  -26.1166   21.1336 H   0  0  0  0  0  0
  -31.2709  -25.2838   21.2494 H   0  0  0  0  0  0
  -29.2248  -15.0535   21.7520 H   0  0  0  0  0  0
  1 25  1  0  0  0
  1 30  2  0  0  0
  1 88  1  0  0  0
  2  3  1  0  0  0
  2 25  1  0  0  0
  2 94  1  0  0  0
  2 95  1  0  0  0
  3  4  1  0  0  0
  3 96  1  0  0  0
  3 97  1  0  0  0
  4  5  1  0  0  0
  4 98  1  0  0  0
  4 99  1  0  0  0
  5  6  1  0  0  0
  5 26  1  0  0  0
  5100  1  0  0  0
  6 25  1  0  0  0
  6101  1  0  0  0
  6102  1  0  0  0
  7  8  2  0  0  0
  7 26  1  0  0  0
  7 29  1  0  0  0
  8  9  1  0  0  0
  8 22  1  0  0  0
  9 10  1  0  0  0
  9 27  2  0  0  0
 10 11  2  0  0  0
 10 15  1  0  0  0
 11 12  1  0  0  0
 11103  1  0  0  0
 12 13  2  0  0  0
 12104  1  0  0  0
 13 14  1  0  0  0
 13 31  1  0  0  0
 14 15  2  0  0  0
 14105  1  0  0  0
 15106  1  0  0  0
 16 17  2  0  0  0
 16 21  1  0  0  0
 16 31  1  0  0  0
 17 18  1  0  0  0
 17107  1  0  0  0
 18 19  2  0  0  0
 18108  1  0  0  0
 19 20  1  0  0  0
 19 24  1  0  0  0
 20 21  2  0  0  0
 20109  1  0  0  0
 21 23  1  0  0  0
 22 28  1  0  0  0
 22 32  2  0  0  0
 26 27  1  0  0  0
 28110  1  0  0  0
 28111  1  0  0  0
 29112  1  0  0  0
 29113  1  0  0  0
 33 34  1  0  0  0
 33 66  1  0  0  0
 33 70  2  0  0  0
 34 36  1  0  0  0
 34 59  1  0  0  0
 34114  1  0  0  0
 35 44  2  0  0  0
 35 45  1  0  0  0
 35 68  1  0  0  0
 36 56  1  0  0  0
 36115  1  0  0  0
 37 39  1  0  0  0
 37 47  1  0  0  0
 37 66  1  0  0  0
 37116  1  0  0  0
 38 43  2  0  0  0
 38 46  1  0  0  0
 38 47  1  0  0  0
 39 64  1  0  0  0
 39 67  2  0  0  0
 40 52  1  0  0  0
 40 53  2  0  0  0
 40 58  1  0  0  0
 41117  1  0  0  0
 41118  1  0  0  0
 41119  1  0  0  0
 41 48  1  0  0  0
 42 43  1  0  0  0
 42 66  1  0  0  0
 42120  1  0  0  0
 42121  1  0  0  0
 43 44  1  0  0  0
 44122  1  0  0  0
 45 46  2  0  0  0
 45123  1  0  0  0
 46124  1  0  0  0
 47125  1  0  0  0
 47126  1  0  0  0
 48 56  1  0  0  0
 48 65  1  0  0  0
 48127  1  0  0  0
 49 50  1  0  0  0
 49 53  1  0  0  0
 49 64  1  0  0  0
 49128  1  0  0  0
 50 51  1  0  0  0
 50129  1  0  0  0
 50130  1  0  0  0
 51 52  1  0  0  0
 51131  1  0  0  0
 51132  1  0  0  0
 52133  1  0  0  0
 52134  1  0  0  0
 53 54  1  0  0  0
 54 55  2  0  0  0
 54135  1  0  0  0
 55 57  1  0  0  0
 55136  1  0  0  0
 56 69  2  0  0  0
 57 58  2  0  0  0
 57137  1  0  0  0
 58138  1  0  0  0
 59 60  1  0  0  0
 59 61  1  0  0  0
 59 62  1  0  0  0
 60139  1  0  0  0
 60140  1  0  0  0
 60141  1  0  0  0
 61142  1  0  0  0
 61143  1  0  0  0
 61144  1  0  0  0
 62145  1  0  0  0
 62146  1  0  0  0
 62147  1  0  0  0
 63 65  1  0  0  0
 63148  1  0  0  0
 63149  1  0  0  0
 63150  1  0  0  0
 64151  1  0  0  0
 65152  1  0  0  0
 68 81  1  0  0  0
 71 72  2  0  0  0
 71 74  1  0  0  0
 71153  1  0  0  0
 72 75  1  0  0  0
 72154  1  0  0  0
 73 74  2  0  0  0
 73 76  1  0  0  0
 73155  1  0  0  0
 74 89  1  0  0  0
 75 76  2  0  0  0
 75 88  1  0  0  0
 76 93  1  0  0  0
 77 79  1  0  0  0
 77 90  1  0  0  0
 77 91  2  0  0  0
 78 81  1  0  0  0
 78 90  1  0  0  0
 78 92  2  0  0  0
 79156  1  0  0  0
 79157  1  0  0  0
 79158  1  0  0  0
 80 89  1  0  0  0
 80159  1  0  0  0
 80160  1  0  0  0
 80161  1  0  0  0
 81162  1  0  0  0
 81163  1  0  0  0
 82 83  1  0  0  0
 82 84  1  0  0  0
 82164  1  0  0  0
 82165  1  0  0  0
 83 85  1  0  0  0
 83166  1  0  0  0
 83167  1  0  0  0
 84 86  1  0  0  0
 84168  1  0  0  0
 84169  1  0  0  0
 85 87  1  0  0  0
 85170  1  0  0  0
 85171  1  0  0  0
 86 89  1  0  0  0
 86172  1  0  0  0
 86173  1  0  0  0
 87 90  1  0  0  0
 87174  1  0  0  0
 87175  1  0  0  0
 88176  1  0  0  0
M  ISO  4   1 100  68 101  81 101  88 100
M  END
> <chiral flag>
0

> <version>
0

> <s_m_source_file>
/data/baiqing/PycharmProjects/Reinvent-master-3.2/result/LINK_invent/BTK/process_docking_weight1_custom_sum_contain_oxygen_bond_distance_aromatic_linkinvent_7_9_3/rearranged_h_0004.sdf

> <i_m_source_file_index>
44

> <r_mmod_Potential_Energy-OPLS-2005>
-46.4339218139648

> <r_mmod_Stretch_Energy-OPLS-2005>
40.8256645202637

> <r_mmod_Bend_Energy-OPLS-2005>
113.854217529297

> <r_mmod_Torsional_Energy-OPLS-2005>
294.733825683594

> <r_mmod_Improper_Torsional_Energy-OPLS-2005>
4.09464931488037

> <r_mmod_Van_der_Waal_Energy-OPLS-2005>
185.875015258789

> <r_mmod_Electrostatic_Energy-OPLS-2005>
-455.590301513672

> <r_mmod_Solvation_Energy-OPLS-2005>
-238.788925170898

> <b_mmod_Minimization_Converged-OPLS-2005>
0

> <r_mmod_RMS_Derivative-OPLS-2005>
1.6440761089325

$$$$
44
                    3D
 Structure written by MMmdl.
157165  0  0  1  0            999 V2000
  -30.7588  -14.4300   20.5868 C   0  0  0  0  0  0
  -30.4100  -12.2778   19.4366 C   0  0  0  0  0  0
  -29.4953  -12.4860   18.2144 C   0  0  0  0  0  0
  -28.0166  -12.3507   18.6227 C   0  0  0  0  0  0
  -27.6597  -13.2058   19.8705 C   0  0  2  0  0  0
  -28.6990  -13.0057   20.9956 C   0  0  0  0  0  0
  -25.2594  -13.8168   20.5708 C   0  0  0  0  0  0
  -24.1827  -13.0431   20.9159 C   0  0  0  0  0  0
  -24.6382  -11.6903   20.8723 C   0  0  0  0  0  0
  -23.9056  -10.4279   21.0406 C   0  0  0  0  0  0
  -24.3621   -9.4193   21.9188 C   0  0  0  0  0  0
  -23.6289   -8.2229   22.0769 C   0  0  0  0  0  0
  -22.4263   -8.0280   21.3564 C   0  0  0  0  0  0
  -21.9900   -9.0231   20.4647 C   0  0  0  0  0  0
  -22.7227  -10.2111   20.3049 C   0  0  0  0  0  0
  -21.6829   -6.0748   22.5279 C   0  0  0  0  0  0
  -21.3998   -6.5656   23.8214 C   0  0  0  0  0  0
  -21.3655   -5.6807   24.9176 C   0  0  0  0  0  0
  -21.6058   -4.3074   24.7211 C   0  0  0  0  0  0
  -21.8822   -3.8164   23.4327 C   0  0  0  0  0  0
  -21.9182   -4.6984   22.3391 C   0  0  0  0  0  0
  -22.7847  -13.5219   21.1810 C   0  0  0  0  0  0
  -22.1665   -4.2174   21.0966 F   0  0  0  0  0  0
  -21.5617   -3.4552   25.7720 F   0  0  0  0  0  0
  -30.0349  -13.2840   20.4444 N   0  0  0  0  0  0
  -26.3008  -12.9331   20.3353 N   0  0  0  0  0  0
  -25.9309  -11.6490   20.5761 N   0  0  0  0  0  0
  -22.0506  -12.8197   22.0385 N   0  0  0  0  0  0
  -25.4366  -15.1875   20.4158 N   0  0  0  0  0  0
  -31.8936  -14.5486   20.1119 O   0  0  0  0  0  0
  -21.6645   -6.8877   21.4237 O   0  0  0  0  0  0
  -22.3527  -14.5513   20.6662 O   0  0  0  0  0  0
  -24.6326  -31.8744   23.2176 C   0  0  0  0  0  0
  -25.9163  -32.4881   23.8481 C   0  0  1  0  0  0
  -27.2291  -27.4347   20.1082 C   0  0  0  0  0  0
  -25.5972  -33.8664   24.2405 N   0  0  0  0  0  0
  -23.4351  -30.5006   21.5702 C   0  0  2  0  0  0
  -24.8551  -28.9653   20.1201 C   0  0  0  0  0  0
  -22.7752  -29.4847   22.5272 C   0  0  0  0  0  0
  -17.9927  -28.1200   22.8693 C   0  0  0  0  0  0
  -24.1486  -36.7334   23.2632 C   0  0  0  0  0  0
  -25.9504  -30.8420   21.3637 C   0  0  0  0  0  0
  -26.0187  -29.4759   20.7102 C   0  0  0  0  0  0
  -27.2113  -28.7200   20.6929 C   0  0  0  0  0  0
  -26.0525  -26.9383   19.5045 C   0  0  0  0  0  0
  -24.8682  -27.6991   19.5085 C   0  0  0  0  0  0
  -23.6204  -29.8308   20.1806 C   0  0  0  0  0  0
  -25.4107  -36.3143   24.0338 C   0  0  1  0  0  0
  -20.4779  -28.4565   22.7850 C   0  0  2  0  0  0
  -20.6903  -26.9591   22.5346 C   0  0  0  0  0  0
  -19.5550  -26.4521   21.6201 C   0  0  0  0  0  0
  -18.1551  -26.7543   22.1969 C   0  0  0  0  0  0
  -19.1128  -28.8964   23.2548 C   0  0  0  0  0  0
  -18.9299  -30.1461   23.8824 C   0  0  0  0  0  0
  -17.6294  -30.6462   24.0815 C   0  0  0  0  0  0
  -25.9048  -34.9506   23.5163 C   0  0  0  0  0  0
  -16.5151  -29.8938   23.6719 C   0  0  0  0  0  0
  -16.6976  -28.6280   23.0851 C   0  0  0  0  0  0
  -26.4526  -31.6615   25.0791 C   0  0  0  0  0  0
  -25.3777  -31.3695   26.1524 C   0  0  0  0  0  0
  -27.0334  -30.3061   24.6127 C   0  0  0  0  0  0
  -27.6112  -32.4301   25.7563 C   0  0  0  0  0  0
  -27.5582  -37.1833   24.8469 C   0  0  0  0  0  0
  -21.4537  -29.4448   22.4034 N   0  0  0  0  0  0
  -26.4298  -37.3818   23.9412 N   0  0  0  0  0  0
  -24.6949  -31.0854   22.1095 N   0  0  0  0  0  0
  -23.4246  -28.7620   23.2844 O   0  0  0  0  0  0
  -28.3806  -26.6819   20.1427 O   0  0  0  0  0  0
  -26.5581  -34.8937   22.4706 O   0  0  0  0  0  0
  -23.5492  -32.1476   23.7531 O   0  0  0  0  0  0
  -28.5097  -18.6253   20.2639 C   0  0  0  0  0  0
  -30.7883  -18.9598   21.0329 C   0  0  0  0  0  0
  -28.2575  -20.0046   20.4158 C   0  0  0  0  0  0
  -30.5309  -20.3403   21.1950 C   0  0  0  0  0  0
  -29.7938  -18.1026   20.5119 C   0  0  0  0  0  0
  -29.2858  -20.8902   20.8222 C   0  0  0  0  0  0
  -29.8572  -15.8212   22.3773 C   0  0  0  0  0  0
  -30.1529  -16.6941   20.0305 C   0  0  0  0  0  0
  -28.4881  -24.2904   19.5535 C   0  0  0  0  0  0
  -28.1738  -22.8292   19.9500 C   0  0  0  0  0  0
  -28.2308  -25.3409   20.6480 C   0  0  0  0  0  0
  -30.0718  -15.5387   20.9551 N   0  0  0  0  0  0
  -29.1452  -22.2677   20.8405 O   0  0  0  0  0  0
  -31.4591  -12.3381   19.1441 H   0  0  0  0  0  0
  -30.2776  -11.2743   19.8446 H   0  0  0  0  0  0
  -29.7317  -11.7605   17.4361 H   0  0  0  0  0  0
  -29.6737  -13.4717   17.7819 H   0  0  0  0  0  0
  -27.8285  -11.2973   18.8338 H   0  0  0  0  0  0
  -27.3685  -12.6107   17.7850 H   0  0  0  0  0  0
  -27.7021  -14.2498   19.5635 H   0  0  0  0  0  0
  -28.6647  -11.9814   21.3708 H   0  0  0  0  0  0
  -28.4518  -13.6339   21.8484 H   0  0  0  0  0  0
  -25.2758   -9.5663   22.4770 H   0  0  0  0  0  0
  -23.9998   -7.4622   22.7485 H   0  0  0  0  0  0
  -21.0844   -8.8724   19.8934 H   0  0  0  0  0  0
  -22.3687  -10.9652   19.6161 H   0  0  0  0  0  0
  -21.2010   -7.6167   23.9714 H   0  0  0  0  0  0
  -21.1478   -6.0548   25.9079 H   0  0  0  0  0  0
  -22.0610   -2.7626   23.2818 H   0  0  0  0  0  0
  -22.4138  -11.9825   22.4705 H   0  0  0  0  0  0
  -21.1138  -13.1215   22.2638 H   0  0  0  0  0  0
  -24.6788  -15.8525   20.5292 H   0  0  0  0  0  0
  -26.3068  -15.6189   20.1318 H   0  0  0  0  0  0
  -26.7258  -32.5573   23.1276 H   0  0  0  0  0  0
  -25.0142  -33.9832   25.0562 H   0  0  0  0  0  0
  -22.7350  -31.3267   21.4261 H   0  0  0  0  0  0
  -23.3741  -35.9677   23.3325 H   0  0  0  0  0  0
  -24.3581  -36.8910   22.2040 H   0  0  0  0  0  0
  -23.7236  -37.6549   23.6623 H   0  0  0  0  0  0
  -26.0534  -31.6054   20.5911 H   0  0  0  0  0  0
  -26.8431  -30.8983   21.9750 H   0  0  0  0  0  0
  -28.1096  -29.1092   21.1529 H   0  0  0  0  0  0
  -26.0425  -25.9621   19.0397 H   0  0  0  0  0  0
  -23.9747  -27.3037   19.0454 H   0  0  0  0  0  0
  -23.7172  -30.6009   19.4156 H   0  0  0  0  0  0
  -22.7395  -29.2505   19.9003 H   0  0  0  0  0  0
  -25.1275  -36.2032   25.0830 H   0  0  0  0  0  0
  -20.1626  -28.6735   21.7644 H   0  0  0  0  0  0
  -21.6606  -26.7622   22.0761 H   0  0  0  0  0  0
  -20.6735  -26.4241   23.4847 H   0  0  0  0  0  0
  -19.6575  -25.3802   21.4450 H   0  0  0  0  0  0
  -19.6469  -26.9107   20.6348 H   0  0  0  0  0  0
  -17.4058  -26.6418   21.4108 H   0  0  0  0  0  0
  -17.9186  -26.0033   22.9498 H   0  0  0  0  0  0
  -19.7829  -30.7483   24.1619 H   0  0  0  0  0  0
  -17.4867  -31.6187   24.5353 H   0  0  0  0  0  0
  -15.5173  -30.2833   23.8186 H   0  0  0  0  0  0
  -15.8312  -28.0515   22.7863 H   0  0  0  0  0  0
  -24.5941  -30.7066   25.7837 H   0  0  0  0  0  0
  -24.8980  -32.2841   26.5025 H   0  0  0  0  0  0
  -25.8111  -30.8809   27.0264 H   0  0  0  0  0  0
  -26.2864  -29.6839   24.1184 H   0  0  0  0  0  0
  -27.4127  -29.7266   25.4555 H   0  0  0  0  0  0
  -27.8698  -30.4395   23.9260 H   0  0  0  0  0  0
  -27.2749  -33.3582   26.2210 H   0  0  0  0  0  0
  -28.3903  -32.6891   25.0375 H   0  0  0  0  0  0
  -28.0823  -31.8379   26.5428 H   0  0  0  0  0  0
  -28.2622  -38.0109   24.7501 H   0  0  0  0  0  0
  -28.1060  -36.2643   24.6329 H   0  0  0  0  0  0
  -27.2308  -37.1517   25.8874 H   0  0  0  0  0  0
  -21.0731  -30.1556   21.7962 H   0  0  0  0  0  0
  -26.0198  -38.2908   24.1389 H   0  0  0  0  0  0
  -27.7290  -17.9834   19.8788 H   0  0  0  0  0  0
  -31.7803  -18.5767   21.2369 H   0  0  0  0  0  0
  -27.2712  -20.3698   20.1684 H   0  0  0  0  0  0
  -31.3223  -20.9953   21.5353 H   0  0  0  0  0  0
  -28.8361  -16.1598   22.5469 H   0  0  0  0  0  0
  -30.0182  -14.9444   23.0066 H   0  0  0  0  0  0
  -30.5393  -16.5954   22.7266 H   0  0  0  0  0  0
  -29.5199  -16.4589   19.1733 H   0  0  0  0  0  0
  -31.1565  -16.7854   19.6091 H   0  0  0  0  0  0
  -27.8599  -24.5349   18.6982 H   0  0  0  0  0  0
  -29.5158  -24.3689   19.2008 H   0  0  0  0  0  0
  -27.1769  -22.7613   20.3854 H   0  0  0  0  0  0
  -28.1577  -22.2545   19.0221 H   0  0  0  0  0  0
  -28.9471  -25.1965   21.4570 H   0  0  0  0  0  0
  -27.2480  -25.1792   21.0977 H   0  0  0  0  0  0
  1 25  1  0  0  0
  1 30  2  0  0  0
  1 82  1  0  0  0
  2  3  1  0  0  0
  2 25  1  0  0  0
  2 84  1  0  0  0
  2 85  1  0  0  0
  3  4  1  0  0  0
  3 86  1  0  0  0
  3 87  1  0  0  0
  4  5  1  0  0  0
  4 88  1  0  0  0
  4 89  1  0  0  0
  5  6  1  0  0  0
  5 26  1  0  0  0
  5 90  1  0  0  0
  6 25  1  0  0  0
  6 91  1  0  0  0
  6 92  1  0  0  0
  7  8  2  0  0  0
  7 26  1  0  0  0
  7 29  1  0  0  0
  8  9  1  0  0  0
  8 22  1  0  0  0
  9 10  1  0  0  0
  9 27  2  0  0  0
 10 11  2  0  0  0
 10 15  1  0  0  0
 11 12  1  0  0  0
 11 93  1  0  0  0
 12 13  2  0  0  0
 12 94  1  0  0  0
 13 14  1  0  0  0
 13 31  1  0  0  0
 14 15  2  0  0  0
 14 95  1  0  0  0
 15 96  1  0  0  0
 16 17  2  0  0  0
 16 21  1  0  0  0
 16 31  1  0  0  0
 17 18  1  0  0  0
 17 97  1  0  0  0
 18 19  2  0  0  0
 18 98  1  0  0  0
 19 20  1  0  0  0
 19 24  1  0  0  0
 20 21  2  0  0  0
 20 99  1  0  0  0
 21 23  1  0  0  0
 22 28  1  0  0  0
 22 32  2  0  0  0
 26 27  1  0  0  0
 28100  1  0  0  0
 28101  1  0  0  0
 29102  1  0  0  0
 29103  1  0  0  0
 33 34  1  0  0  0
 33 66  1  0  0  0
 33 70  2  0  0  0
 34 36  1  0  0  0
 34 59  1  0  0  0
 34104  1  0  0  0
 35 44  2  0  0  0
 35 45  1  0  0  0
 35 68  1  0  0  0
 36 56  1  0  0  0
 36105  1  0  0  0
 37 39  1  0  0  0
 37 47  1  0  0  0
 37 66  1  0  0  0
 37106  1  0  0  0
 38 43  2  0  0  0
 38 46  1  0  0  0
 38 47  1  0  0  0
 39 64  1  0  0  0
 39 67  2  0  0  0
 40 52  1  0  0  0
 40 53  2  0  0  0
 40 58  1  0  0  0
 41107  1  0  0  0
 41108  1  0  0  0
 41109  1  0  0  0
 41 48  1  0  0  0
 42 43  1  0  0  0
 42 66  1  0  0  0
 42110  1  0  0  0
 42111  1  0  0  0
 43 44  1  0  0  0
 44112  1  0  0  0
 45 46  2  0  0  0
 45113  1  0  0  0
 46114  1  0  0  0
 47115  1  0  0  0
 47116  1  0  0  0
 48 56  1  0  0  0
 48 65  1  0  0  0
 48117  1  0  0  0
 49 50  1  0  0  0
 49 53  1  0  0  0
 49 64  1  0  0  0
 49118  1  0  0  0
 50 51  1  0  0  0
 50119  1  0  0  0
 50120  1  0  0  0
 51 52  1  0  0  0
 51121  1  0  0  0
 51122  1  0  0  0
 52123  1  0  0  0
 52124  1  0  0  0
 53 54  1  0  0  0
 54 55  2  0  0  0
 54125  1  0  0  0
 55 57  1  0  0  0
 55126  1  0  0  0
 56 69  2  0  0  0
 57 58  2  0  0  0
 57127  1  0  0  0
 58128  1  0  0  0
 59 60  1  0  0  0
 59 61  1  0  0  0
 59 62  1  0  0  0
 60129  1  0  0  0
 60130  1  0  0  0
 60131  1  0  0  0
 61132  1  0  0  0
 61133  1  0  0  0
 61134  1  0  0  0
 62135  1  0  0  0
 62136  1  0  0  0
 62137  1  0  0  0
 63 65  1  0  0  0
 63138  1  0  0  0
 63139  1  0  0  0
 63140  1  0  0  0
 64141  1  0  0  0
 65142  1  0  0  0
 68 81  1  0  0  0
 71 73  2  0  0  0
 71 75  1  0  0  0
 71143  1  0  0  0
 72 74  1  0  0  0
 72 75  2  0  0  0
 72144  1  0  0  0
 73 76  1  0  0  0
 73145  1  0  0  0
 74 76  2  0  0  0
 74146  1  0  0  0
 75 78  1  0  0  0
 76 83  1  0  0  0
 77 82  1  0  0  0
 77147  1  0  0  0
 77148  1  0  0  0
 77149  1  0  0  0
 78 82  1  0  0  0
 78150  1  0  0  0
 78151  1  0  0  0
 79 80  1  0  0  0
 79 81  1  0  0  0
 79152  1  0  0  0
 79153  1  0  0  0
 80 83  1  0  0  0
 80154  1  0  0  0
 80155  1  0  0  0
 81156  1  0  0  0
 81157  1  0  0  0
M  ISO  4   1 100  68 101  81 101  82 100
M  END
> <chiral flag>
0

> <version>
0

> <s_m_source_file>
/data/baiqing/PycharmProjects/Reinvent-master-3.2/result/LINK_invent/BTK/process_docking_weight1_custom_sum_contain_oxygen_bond_distance_aromatic_linkinvent_7_9_3/rearranged_h_0004.sdf

> <i_m_source_file_index>
45

> <r_mmod_Potential_Energy-OPLS-2005>
246.568252563477

> <r_mmod_Stretch_Energy-OPLS-2005>
35.0753402709961

> <r_mmod_Bend_Energy-OPLS-2005>
206.54963684082

> <r_mmod_Torsional_Energy-OPLS-2005>
306.658996582031

> <r_mmod_Improper_Torsional_Energy-OPLS-2005>
13.0420942306519

> <r_mmod_Van_der_Waal_Energy-OPLS-2005>
165.716156005859

> <r_mmod_Electrostatic_Energy-OPLS-2005>
-313.024139404297

> <r_mmod_Solvation_Energy-OPLS-2005>
-201.982055664062

> <b_mmod_Minimization_Converged-OPLS-2005>
0

> <r_mmod_RMS_Derivative-OPLS-2005>
3.44465923309326

$$$$
45
                    3D
 Structure written by MMmdl.
151159  0  0  1  0            999 V2000
  -30.5371  -14.9077   20.4329 C   0  0  0  0  0  0
  -30.4436  -12.5547   19.4988 C   0  0  0  0  0  0
  -29.5260  -12.5506   18.2527 C   0  0  0  0  0  0
  -28.0500  -12.3557   18.6511 C   0  0  0  0  0  0
  -27.6398  -13.2488   19.8518 C   0  0  2  0  0  0
  -28.6843  -13.2199   20.9893 C   0  0  0  0  0  0
  -25.2498  -13.8225   20.5705 C   0  0  0  0  0  0
  -24.1807  -13.0444   20.9203 C   0  0  0  0  0  0
  -24.6414  -11.6928   20.8736 C   0  0  0  0  0  0
  -23.9080  -10.4306   21.0396 C   0  0  0  0  0  0
  -24.3635   -9.4218   21.9185 C   0  0  0  0  0  0
  -23.6305   -8.2256   22.0756 C   0  0  0  0  0  0
  -22.4286   -8.0292   21.3541 C   0  0  0  0  0  0
  -21.9915   -9.0270   20.4652 C   0  0  0  0  0  0
  -22.7240  -10.2153   20.3054 C   0  0  0  0  0  0
  -21.6859   -6.0736   22.5273 C   0  0  0  0  0  0
  -21.4020   -6.5649   23.8209 C   0  0  0  0  0  0
  -21.3660   -5.6796   24.9172 C   0  0  0  0  0  0
  -21.6038   -4.3056   24.7225 C   0  0  0  0  0  0
  -21.8817   -3.8145   23.4345 C   0  0  0  0  0  0
  -21.9202   -4.6963   22.3396 C   0  0  0  0  0  0
  -22.7833  -13.5224   21.1872 C   0  0  0  0  0  0
  -22.1665   -4.2143   21.0974 F   0  0  0  0  0  0
  -21.5630   -3.4541   25.7738 F   0  0  0  0  0  0
  -29.9714  -13.6334   20.4110 N   0  0  0  0  0  0
  -26.2941  -12.9455   20.3280 N   0  0  0  0  0  0
  -25.9355  -11.6577   20.5737 N   0  0  0  0  0  0
  -22.0479  -12.8224   22.0433 N   0  0  0  0  0  0
  -25.4162  -15.1962   20.4132 N   0  0  0  0  0  0
  -31.7140  -15.0180   20.0780 O   0  0  0  0  0  0
  -21.6644   -6.8890   21.4238 O   0  0  0  0  0  0
  -22.3509  -14.5522   20.6707 O   0  0  0  0  0  0
  -24.6424  -31.8451   23.1891 C   0  0  0  0  0  0
  -25.9199  -32.4699   23.8281 C   0  0  1  0  0  0
  -27.2163  -27.1447   20.1298 C   0  0  0  0  0  0
  -25.5958  -33.8511   24.2188 N   0  0  0  0  0  0
  -23.4452  -30.4641   21.5369 C   0  0  2  0  0  0
  -24.8927  -28.8947   20.1083 C   0  0  0  0  0  0
  -22.7576  -29.4526   22.4874 C   0  0  0  0  0  0
  -18.0311  -28.1393   22.8469 C   0  0  0  0  0  0
  -24.1481  -36.7248   23.2640 C   0  0  0  0  0  0
  -26.0030  -30.7159   21.3933 C   0  0  0  0  0  0
  -26.0710  -29.3314   20.7272 C   0  0  0  0  0  0
  -27.2319  -28.4698   20.7239 C   0  0  0  0  0  0
  -26.0142  -26.8150   19.4645 C   0  0  0  0  0  0
  -24.8756  -27.6494   19.4651 C   0  0  0  0  0  0
  -23.6718  -29.7987   20.1542 C   0  0  0  0  0  0
  -25.4117  -36.3029   24.0309 C   0  0  1  0  0  0
  -20.5916  -28.3704   23.1236 C   0  0  2  0  0  0
  -20.6786  -26.9407   22.5408 C   0  0  0  0  0  0
  -19.5755  -26.6367   21.5220 C   0  0  0  0  0  0
  -18.1939  -26.7928   22.1629 C   0  0  0  0  0  0
  -19.1566  -28.8876   23.2839 C   0  0  0  0  0  0
  -18.9484  -30.1474   23.8857 C   0  0  0  0  0  0
  -17.6480  -30.6588   24.0554 C   0  0  0  0  0  0
  -25.9076  -34.9409   23.5061 C   0  0  0  0  0  0
  -16.5370  -29.9079   23.6335 C   0  0  0  0  0  0
  -16.7297  -28.6505   23.0346 C   0  0  0  0  0  0
  -26.4520  -31.6582   25.0735 C   0  0  0  0  0  0
  -25.3705  -31.3798   26.1436 C   0  0  0  0  0  0
  -27.0399  -30.2973   24.6345 C   0  0  0  0  0  0
  -27.6024  -32.4373   25.7520 C   0  0  0  0  0  0
  -27.5572  -37.1773   24.8458 C   0  0  0  0  0  0
  -21.4269  -29.3029   22.3625 N   0  0  0  0  0  0
  -26.4277  -37.3743   23.9408 N   0  0  0  0  0  0
  -24.7163  -31.0287   22.0953 N   0  0  0  0  0  0
  -23.4223  -28.8084   23.3023 O   0  0  0  0  0  0
  -28.2719  -26.1625   20.2087 O   0  0  0  0  0  0
  -26.5667  -34.8903   22.4638 O   0  0  0  0  0  0
  -23.5540  -32.1351   23.7097 O   0  0  0  0  0  0
  -28.9003  -18.3935   21.3940 C   0  0  0  0  0  0
  -30.0771  -19.7216   19.3069 C   0  0  0  0  0  0
  -28.6757  -19.8228   21.2014 C   0  0  0  0  0  0
  -29.7052  -17.5372   20.5593 C   0  0  0  0  0  0
  -29.2478  -20.5781   20.1212 C   0  0  0  0  0  0
  -30.3064  -18.2953   19.5024 C   0  0  0  0  0  0
  -27.7217  -20.5222   22.1495 C   0  0  0  0  0  0
  -28.0590  -24.6549   19.8709 C   0  0  0  0  0  0
  -28.8788  -23.2948   20.4431 C   0  0  0  0  0  0
  -29.7261  -16.0178   20.7665 N   0  0  0  0  0  0
  -28.9123  -21.9454   19.6973 O   0  0  0  0  0  0
  -31.0783  -17.6438   18.5999 F   0  0  0  0  0  0
  -31.4820  -12.7019   19.1981 H   0  0  0  0  0  0
  -30.4144  -11.5847   19.9994 H   0  0  0  0  0  0
  -29.8304  -11.7698   17.5547 H   0  0  0  0  0  0
  -29.6369  -13.4964   17.7183 H   0  0  0  0  0  0
  -27.9080  -11.3039   18.9008 H   0  0  0  0  0  0
  -27.4019  -12.5587   17.7976 H   0  0  0  0  0  0
  -27.6163  -14.2670   19.4641 H   0  0  0  0  0  0
  -28.7557  -12.2215   21.4230 H   0  0  0  0  0  0
  -28.3907  -13.8834   21.8040 H   0  0  0  0  0  0
  -25.2784   -9.5693   22.4750 H   0  0  0  0  0  0
  -24.0014   -7.4645   22.7477 H   0  0  0  0  0  0
  -21.0838   -8.8786   19.8971 H   0  0  0  0  0  0
  -22.3685  -10.9696   19.6166 H   0  0  0  0  0  0
  -21.2006   -7.6153   23.9713 H   0  0  0  0  0  0
  -21.1484   -6.0528   25.9077 H   0  0  0  0  0  0
  -22.0592   -2.7600   23.2848 H   0  0  0  0  0  0
  -22.4106  -11.9892   22.4824 H   0  0  0  0  0  0
  -21.1095  -13.1256   22.2649 H   0  0  0  0  0  0
  -24.6409  -15.8438   20.5055 H   0  0  0  0  0  0
  -26.2585  -15.6357   20.0637 H   0  0  0  0  0  0
  -26.7271  -32.5283   23.1011 H   0  0  0  0  0  0
  -25.0079  -33.9639   25.0319 H   0  0  0  0  0  0
  -22.7465  -31.2894   21.3854 H   0  0  0  0  0  0
  -23.3755  -35.9571   23.3295 H   0  0  0  0  0  0
  -24.3554  -36.8894   22.2054 H   0  0  0  0  0  0
  -23.7228  -37.6432   23.6698 H   0  0  0  0  0  0
  -26.1702  -31.4743   20.6271 H   0  0  0  0  0  0
  -26.8689  -30.7537   22.0430 H   0  0  0  0  0  0
  -28.1299  -28.7952   21.2302 H   0  0  0  0  0  0
  -25.9151  -25.8746   18.9449 H   0  0  0  0  0  0
  -23.9761  -27.3131   18.9674 H   0  0  0  0  0  0
  -23.8170  -30.5786   19.4063 H   0  0  0  0  0  0
  -22.7852  -29.2496   19.8321 H   0  0  0  0  0  0
  -25.1301  -36.1853   25.0802 H   0  0  0  0  0  0
  -20.9996  -28.3294   24.1360 H   0  0  0  0  0  0
  -20.5662  -26.2327   23.3633 H   0  0  0  0  0  0
  -21.6651  -26.7395   22.1213 H   0  0  0  0  0  0
  -19.6898  -25.6271   21.1267 H   0  0  0  0  0  0
  -19.6680  -27.3161   20.6739 H   0  0  0  0  0  0
  -17.4199  -26.6672   21.4041 H   0  0  0  0  0  0
  -18.0322  -26.0086   22.9041 H   0  0  0  0  0  0
  -19.7968  -30.7297   24.2201 H   0  0  0  0  0  0
  -17.5041  -31.6260   24.5168 H   0  0  0  0  0  0
  -15.5365  -30.2971   23.7680 H   0  0  0  0  0  0
  -15.8704  -28.0815   22.7065 H   0  0  0  0  0  0
  -24.5828  -30.7220   25.7755 H   0  0  0  0  0  0
  -24.8981  -32.3016   26.4844 H   0  0  0  0  0  0
  -25.7975  -30.8954   27.0230 H   0  0  0  0  0  0
  -26.3048  -29.6686   24.1319 H   0  0  0  0  0  0
  -27.3969  -29.7265   25.4928 H   0  0  0  0  0  0
  -27.8969  -30.4196   23.9717 H   0  0  0  0  0  0
  -27.2577  -33.3660   26.2079 H   0  0  0  0  0  0
  -28.3849  -32.6979   25.0382 H   0  0  0  0  0  0
  -28.0709  -31.8551   26.5466 H   0  0  0  0  0  0
  -28.2570  -38.0084   24.7511 H   0  0  0  0  0  0
  -28.1088  -36.2615   24.6281 H   0  0  0  0  0  0
  -27.2298  -37.1407   25.8862 H   0  0  0  0  0  0
  -20.9498  -29.8774   21.6826 H   0  0  0  0  0  0
  -26.0141  -38.2803   24.1446 H   0  0  0  0  0  0
  -28.3854  -17.9198   22.2167 H   0  0  0  0  0  0
  -30.5470  -20.1668   18.4413 H   0  0  0  0  0  0
  -27.3002  -19.8327   22.8830 H   0  0  0  0  0  0
  -26.8977  -20.9679   21.5902 H   0  0  0  0  0  0
  -28.2420  -21.3065   22.6982 H   0  0  0  0  0  0
  -27.0151  -24.4257   20.0806 H   0  0  0  0  0  0
  -28.1418  -24.6125   18.7839 H   0  0  0  0  0  0
  -28.5547  -23.1217   21.4666 H   0  0  0  0  0  0
  -29.9264  -23.5842   20.5233 H   0  0  0  0  0  0
  -28.8899  -15.6930   21.2254 H   0  0  0  0  0  0
  1 25  1  0  0  0
  1 30  2  0  0  0
  1 80  1  0  0  0
  2  3  1  0  0  0
  2 25  1  0  0  0
  2 83  1  0  0  0
  2 84  1  0  0  0
  3  4  1  0  0  0
  3 85  1  0  0  0
  3 86  1  0  0  0
  4  5  1  0  0  0
  4 87  1  0  0  0
  4 88  1  0  0  0
  5  6  1  0  0  0
  5 26  1  0  0  0
  5 89  1  0  0  0
  6 25  1  0  0  0
  6 90  1  0  0  0
  6 91  1  0  0  0
  7  8  2  0  0  0
  7 26  1  0  0  0
  7 29  1  0  0  0
  8  9  1  0  0  0
  8 22  1  0  0  0
  9 10  1  0  0  0
  9 27  2  0  0  0
 10 11  2  0  0  0
 10 15  1  0  0  0
 11 12  1  0  0  0
 11 92  1  0  0  0
 12 13  2  0  0  0
 12 93  1  0  0  0
 13 14  1  0  0  0
 13 31  1  0  0  0
 14 15  2  0  0  0
 14 94  1  0  0  0
 15 95  1  0  0  0
 16 17  2  0  0  0
 16 21  1  0  0  0
 16 31  1  0  0  0
 17 18  1  0  0  0
 17 96  1  0  0  0
 18 19  2  0  0  0
 18 97  1  0  0  0
 19 20  1  0  0  0
 19 24  1  0  0  0
 20 21  2  0  0  0
 20 98  1  0  0  0
 21 23  1  0  0  0
 22 28  1  0  0  0
 22 32  2  0  0  0
 26 27  1  0  0  0
 28 99  1  0  0  0
 28100  1  0  0  0
 29101  1  0  0  0
 29102  1  0  0  0
 33 34  1  0  0  0
 33 66  1  0  0  0
 33 70  2  0  0  0
 34 36  1  0  0  0
 34 59  1  0  0  0
 34103  1  0  0  0
 35 44  2  0  0  0
 35 45  1  0  0  0
 35 68  1  0  0  0
 36 56  1  0  0  0
 36104  1  0  0  0
 37 39  1  0  0  0
 37 47  1  0  0  0
 37 66  1  0  0  0
 37105  1  0  0  0
 38 43  2  0  0  0
 38 46  1  0  0  0
 38 47  1  0  0  0
 39 64  1  0  0  0
 39 67  2  0  0  0
 40 52  1  0  0  0
 40 53  2  0  0  0
 40 58  1  0  0  0
 41106  1  0  0  0
 41107  1  0  0  0
 41108  1  0  0  0
 41 48  1  0  0  0
 42 43  1  0  0  0
 42 66  1  0  0  0
 42109  1  0  0  0
 42110  1  0  0  0
 43 44  1  0  0  0
 44111  1  0  0  0
 45 46  2  0  0  0
 45112  1  0  0  0
 46113  1  0  0  0
 47114  1  0  0  0
 47115  1  0  0  0
 48 56  1  0  0  0
 48 65  1  0  0  0
 48116  1  0  0  0
 49 50  1  0  0  0
 49 53  1  0  0  0
 49 64  1  0  0  0
 49117  1  0  0  0
 50 51  1  0  0  0
 50118  1  0  0  0
 50119  1  0  0  0
 51 52  1  0  0  0
 51120  1  0  0  0
 51121  1  0  0  0
 52122  1  0  0  0
 52123  1  0  0  0
 53 54  1  0  0  0
 54 55  2  0  0  0
 54124  1  0  0  0
 55 57  1  0  0  0
 55125  1  0  0  0
 56 69  2  0  0  0
 57 58  2  0  0  0
 57126  1  0  0  0
 58127  1  0  0  0
 59 60  1  0  0  0
 59 61  1  0  0  0
 59 62  1  0  0  0
 60128  1  0  0  0
 60129  1  0  0  0
 60130  1  0  0  0
 61131  1  0  0  0
 61132  1  0  0  0
 61133  1  0  0  0
 62134  1  0  0  0
 62135  1  0  0  0
 62136  1  0  0  0
 63 65  1  0  0  0
 63137  1  0  0  0
 63138  1  0  0  0
 63139  1  0  0  0
 64140  1  0  0  0
 65141  1  0  0  0
 68 78  1  0  0  0
 71 73  2  0  0  0
 71 74  1  0  0  0
 71142  1  0  0  0
 72 75  2  0  0  0
 72 76  1  0  0  0
 72143  1  0  0  0
 73 75  1  0  0  0
 73 77  1  0  0  0
 74 76  2  0  0  0
 74 80  1  0  0  0
 75 81  1  0  0  0
 76 82  1  0  0  0
 77144  1  0  0  0
 77145  1  0  0  0
 77146  1  0  0  0
 78 79  1  0  0  0
 78147  1  0  0  0
 78148  1  0  0  0
 79 81  1  0  0  0
 79149  1  0  0  0
 79150  1  0  0  0
 80151  1  0  0  0
M  ISO  4   1 100  68 101  78 101  80 100
M  END
> <chiral flag>
0

> <version>
0

> <s_m_source_file>
/data/baiqing/PycharmProjects/Reinvent-master-3.2/result/LINK_invent/BTK/process_docking_weight1_custom_sum_contain_oxygen_bond_distance_aromatic_linkinvent_7_9_3/rearranged_h_0004.sdf

> <i_m_source_file_index>
46

> <r_mmod_Potential_Energy-OPLS-2005>
438.514190673828

> <r_mmod_Stretch_Energy-OPLS-2005>
228.407669067383

> <r_mmod_Bend_Energy-OPLS-2005>
276.476287841797

> <r_mmod_Torsional_Energy-OPLS-2005>
239.546844482422

> <r_mmod_Improper_Torsional_Energy-OPLS-2005>
4.64187860488892

> <r_mmod_Van_der_Waal_Energy-OPLS-2005>
132.24382019043

> <r_mmod_Electrostatic_Energy-OPLS-2005>
-396.986022949219

> <r_mmod_Solvation_Energy-OPLS-2005>
-218.01887512207

> <b_mmod_Minimization_Converged-OPLS-2005>
0

> <r_mmod_RMS_Derivative-OPLS-2005>
2.62936973571777

$$$$
46
                    3D
 Structure written by MMmdl.
180188  0  0  1  0            999 V2000
  -30.7350  -14.4193   20.5737 C   0  0  0  0  0  0
  -30.4112  -12.2830   19.3920 C   0  0  0  0  0  0
  -29.4736  -12.4921   18.1903 C   0  0  0  0  0  0
  -28.0001  -12.3515   18.6218 C   0  0  0  0  0  0
  -27.6562  -13.1891   19.8777 C   0  0  2  0  0  0
  -28.7080  -12.9741   20.9886 C   0  0  0  0  0  0
  -25.2652  -13.8064   20.5847 C   0  0  0  0  0  0
  -24.1849  -13.0383   20.9235 C   0  0  0  0  0  0
  -24.6378  -11.6862   20.8762 C   0  0  0  0  0  0
  -23.9020  -10.4302   21.0375 C   0  0  0  0  0  0
  -24.3550   -9.4249   21.9202 C   0  0  0  0  0  0
  -23.6239   -8.2283   22.0785 C   0  0  0  0  0  0
  -22.4253   -8.0298   21.3538 C   0  0  0  0  0  0
  -21.9841   -9.0284   20.4666 C   0  0  0  0  0  0
  -22.7173  -10.2184   20.3061 C   0  0  0  0  0  0
  -21.6874   -6.0711   22.5266 C   0  0  0  0  0  0
  -21.4013   -6.5609   23.8203 C   0  0  0  0  0  0
  -21.3656   -5.6766   24.9167 C   0  0  0  0  0  0
  -21.6051   -4.3032   24.7227 C   0  0  0  0  0  0
  -21.8821   -3.8106   23.4362 C   0  0  0  0  0  0
  -21.9189   -4.6920   22.3409 C   0  0  0  0  0  0
  -22.7889  -13.5285   21.1772 C   0  0  0  0  0  0
  -22.1673   -4.2081   21.0988 F   0  0  0  0  0  0
  -21.5634   -3.4529   25.7749 F   0  0  0  0  0  0
  -30.0353  -13.2637   20.4146 N   0  0  0  0  0  0
  -26.3040  -12.9202   20.3505 N   0  0  0  0  0  0
  -25.9302  -11.6392   20.5834 N   0  0  0  0  0  0
  -22.0376  -12.8339   22.0254 N   0  0  0  0  0  0
  -25.4468  -15.1735   20.4435 N   0  0  0  0  0  0
  -31.9062  -14.5610   20.1989 O   0  0  0  0  0  0
  -21.6677   -6.8853   21.4226 O   0  0  0  0  0  0
  -22.3696  -14.5585   20.6543 O   0  0  0  0  0  0
  -24.6130  -31.8711   23.2177 C   0  0  0  0  0  0
  -25.9022  -32.4822   23.8454 C   0  0  1  0  0  0
  -27.2325  -27.4663   20.0939 C   0  0  0  0  0  0
  -25.5881  -33.8633   24.2375 N   0  0  0  0  0  0
  -23.4012  -30.4981   21.5525 C   0  0  2  0  0  0
  -24.8512  -28.9790   20.1107 C   0  0  0  0  0  0
  -22.7384  -29.4696   22.4976 C   0  0  0  0  0  0
  -18.0229  -28.1383   22.8509 C   0  0  0  0  0  0
  -24.1474  -36.7316   23.2626 C   0  0  0  0  0  0
  -25.9285  -30.8378   21.3819 C   0  0  0  0  0  0
  -26.0015  -29.4760   20.7338 C   0  0  0  0  0  0
  -27.1906  -28.7180   20.7467 C   0  0  0  0  0  0
  -26.0899  -27.0195   19.4007 C   0  0  0  0  0  0
  -24.8845  -27.7428   19.4459 C   0  0  0  0  0  0
  -23.6100  -29.8385   20.1633 C   0  0  0  0  0  0
  -25.4103  -36.3130   24.0322 C   0  0  1  0  0  0
  -20.5841  -28.3701   23.1286 C   0  0  2  0  0  0
  -20.6772  -26.9428   22.5433 C   0  0  0  0  0  0
  -19.5715  -26.6279   21.5303 C   0  0  0  0  0  0
  -18.1907  -26.7869   22.1737 C   0  0  0  0  0  0
  -19.1477  -28.8889   23.2874 C   0  0  0  0  0  0
  -18.9426  -30.1516   23.8815 C   0  0  0  0  0  0
  -17.6421  -30.6672   24.0470 C   0  0  0  0  0  0
  -25.9022  -34.9469   23.5161 C   0  0  0  0  0  0
  -16.5304  -29.9115   23.6367 C   0  0  0  0  0  0
  -16.7224  -28.6519   23.0387 C   0  0  0  0  0  0
  -26.4491  -31.6591   25.0749 C   0  0  0  0  0  0
  -25.3753  -31.3703   26.1497 C   0  0  0  0  0  0
  -27.0331  -30.3018   24.6140 C   0  0  0  0  0  0
  -27.6085  -32.4309   25.7491 C   0  0  0  0  0  0
  -27.5583  -37.1826   24.8455 C   0  0  0  0  0  0
  -21.4109  -29.3077   22.3700 N   0  0  0  0  0  0
  -26.4295  -37.3808   23.9392 N   0  0  0  0  0  0
  -24.6639  -31.0834   22.1088 N   0  0  0  0  0  0
  -23.4137  -28.8207   23.3001 O   0  0  0  0  0  0
  -28.3635  -26.6855   20.0872 O   0  0  0  0  0  0
  -26.5614  -34.8904   22.4733 O   0  0  0  0  0  0
  -23.5318  -32.1475   23.7552 O   0  0  0  0  0  0
  -28.1498  -16.9829   20.4025 C   0  0  0  0  0  0
  -28.9036  -17.0244   17.8449 C   0  0  0  0  0  0
  -27.4409  -17.7025   19.4387 C   0  0  0  0  0  0
  -29.2872  -16.2596   19.9868 C   0  0  0  0  0  0
  -30.2105  -15.9947   22.3189 C   0  0  0  0  0  0
  -22.3943  -21.9484   20.7833 C   0  0  0  0  0  0
  -23.8540  -21.8256   21.2725 C   0  0  0  0  0  0
  -21.8702  -20.6804   20.0915 C   0  0  0  0  0  0
  -24.6108  -23.1595   21.1949 C   0  0  0  0  0  0
  -22.4936  -20.4469   18.6972 C   0  0  0  0  0  0
  -26.1159  -23.0659   21.5212 C   0  0  0  0  0  0
  -22.7504  -18.9607   18.3901 C   0  0  0  0  0  0
  -26.7166  -24.4774   21.4857 C   0  0  0  0  0  0
  -23.8861  -18.3485   19.2286 C   0  0  0  0  0  0
  -28.2471  -24.6228   21.4651 C   0  0  0  0  0  0
  -25.2917  -18.8291   18.8284 C   0  0  0  0  0  0
  -28.7051  -26.0997   21.3505 C   0  0  0  0  0  0
  -27.8221  -17.7244   18.1574 N   0  0  0  0  0  0
  -29.6359  -16.2994   18.6818 N   0  0  0  0  0  0
  -26.2836  -18.3934   19.8061 N   0  0  0  0  0  0
  -30.0058  -15.4864   20.9570 N   0  0  0  0  0  0
  -31.4527  -12.3776   19.0718 H   0  0  0  0  0  0
  -30.3140  -11.2700   19.7833 H   0  0  0  0  0  0
  -29.7001  -11.7680   17.4071 H   0  0  0  0  0  0
  -29.6502  -13.4789   17.7586 H   0  0  0  0  0  0
  -27.8270  -11.2979   18.8386 H   0  0  0  0  0  0
  -27.3274  -12.6138   17.8024 H   0  0  0  0  0  0
  -27.6845  -14.2295   19.5690 H   0  0  0  0  0  0
  -28.6709  -11.9492   21.3622 H   0  0  0  0  0  0
  -28.4878  -13.6114   21.8441 H   0  0  0  0  0  0
  -25.2662   -9.5834   22.4798 H   0  0  0  0  0  0
  -23.9940   -7.4728   22.7576 H   0  0  0  0  0  0
  -21.0731   -8.8849   19.9014 H   0  0  0  0  0  0
  -22.3583  -10.9750   19.6209 H   0  0  0  0  0  0
  -21.1996   -7.6109   23.9695 H   0  0  0  0  0  0
  -21.1449   -6.0493   25.9080 H   0  0  0  0  0  0
  -22.0543   -2.7556   23.2901 H   0  0  0  0  0  0
  -22.3830  -12.0001   22.4724 H   0  0  0  0  0  0
  -21.0981  -13.1423   22.2242 H   0  0  0  0  0  0
  -24.7001  -15.8409   20.5931 H   0  0  0  0  0  0
  -26.3324  -15.6141   20.2356 H   0  0  0  0  0  0
  -26.7090  -32.5519   23.1225 H   0  0  0  0  0  0
  -25.0027  -33.9863   25.0517 H   0  0  0  0  0  0
  -22.6906  -31.3143   21.4182 H   0  0  0  0  0  0
  -23.3712  -35.9660   23.3302 H   0  0  0  0  0  0
  -24.3584  -36.8931   22.2037 H   0  0  0  0  0  0
  -23.7261  -37.6532   23.6649 H   0  0  0  0  0  0
  -26.0543  -31.5996   20.6111 H   0  0  0  0  0  0
  -26.8137  -30.8874   22.0015 H   0  0  0  0  0  0
  -28.0654  -29.0898   21.2596 H   0  0  0  0  0  0
  -26.1234  -26.0983   18.8372 H   0  0  0  0  0  0
  -24.0082  -27.3695   18.9329 H   0  0  0  0  0  0
  -23.7141  -30.6161   19.4028 H   0  0  0  0  0  0
  -22.7414  -29.2483   19.8693 H   0  0  0  0  0  0
  -25.1297  -36.2004   25.0811 H   0  0  0  0  0  0
  -20.9909  -28.3316   24.1394 H   0  0  0  0  0  0
  -20.5690  -26.2338   23.3681 H   0  0  0  0  0  0
  -21.6690  -26.7516   22.1245 H   0  0  0  0  0  0
  -19.6895  -25.6099   21.1553 H   0  0  0  0  0  0
  -19.6574  -27.2990   20.6723 H   0  0  0  0  0  0
  -17.4148  -26.6484   21.4195 H   0  0  0  0  0  0
  -18.0344  -26.0014   22.9177 H   0  0  0  0  0  0
  -19.7930  -30.7336   24.2123 H   0  0  0  0  0  0
  -17.4994  -31.6392   24.4972 H   0  0  0  0  0  0
  -15.5302  -30.2995   23.7756 H   0  0  0  0  0  0
  -15.8555  -28.0917   22.7108 H   0  0  0  0  0  0
  -24.5889  -30.7114   25.7810 H   0  0  0  0  0  0
  -24.8988  -32.2869   26.4981 H   0  0  0  0  0  0
  -25.8088  -30.8818   27.0240 H   0  0  0  0  0  0
  -26.2891  -29.6762   24.1200 H   0  0  0  0  0  0
  -27.4099  -29.7287   25.4638 H   0  0  0  0  0  0
  -27.8730  -30.4324   23.9305 H   0  0  0  0  0  0
  -27.2716  -33.3578   26.2136 H   0  0  0  0  0  0
  -28.3830  -32.6943   25.0274 H   0  0  0  0  0  0
  -28.0810  -31.8387   26.5335 H   0  0  0  0  0  0
  -28.2644  -38.0102   24.7531 H   0  0  0  0  0  0
  -28.1074  -36.2657   24.6271 H   0  0  0  0  0  0
  -27.2293  -37.1436   25.8861 H   0  0  0  0  0  0
  -20.9240  -29.8765   21.6941 H   0  0  0  0  0  0
  -26.0171  -38.2870   24.1429 H   0  0  0  0  0  0
  -27.8195  -16.9715   21.4303 H   0  0  0  0  0  0
  -29.2093  -17.0302   16.8091 H   0  0  0  0  0  0
  -29.7515  -16.9653   22.4916 H   0  0  0  0  0  0
  -31.2690  -16.1190   22.5525 H   0  0  0  0  0  0
  -29.7951  -15.2909   23.0451 H   0  0  0  0  0  0
  -22.2831  -22.7875   20.0960 H   0  0  0  0  0  0
  -21.7588  -22.1842   21.6393 H   0  0  0  0  0  0
  -24.3925  -21.0910   20.6782 H   0  0  0  0  0  0
  -23.8625  -21.4441   22.2964 H   0  0  0  0  0  0
  -20.7881  -20.7460   19.9728 H   0  0  0  0  0  0
  -22.0254  -19.8337   20.7569 H   0  0  0  0  0  0
  -24.1320  -23.8906   21.8493 H   0  0  0  0  0  0
  -24.5078  -23.5540   20.1815 H   0  0  0  0  0  0
  -23.4210  -21.0084   18.5915 H   0  0  0  0  0  0
  -21.8290  -20.8653   17.9373 H   0  0  0  0  0  0
  -26.6064  -22.4291   20.7817 H   0  0  0  0  0  0
  -26.2720  -22.6058   22.4973 H   0  0  0  0  0  0
  -22.9709  -18.8264   17.3289 H   0  0  0  0  0  0
  -21.8323  -18.4006   18.5716 H   0  0  0  0  0  0
  -26.2885  -25.0789   22.2861 H   0  0  0  0  0  0
  -26.3550  -24.8996   20.5652 H   0  0  0  0  0  0
  -23.8336  -17.2651   19.1234 H   0  0  0  0  0  0
  -23.7153  -18.5527   20.2860 H   0  0  0  0  0  0
  -28.6753  -24.0361   20.6503 H   0  0  0  0  0  0
  -28.6617  -24.2042   22.3829 H   0  0  0  0  0  0
  -25.3394  -19.9171   18.7870 H   0  0  0  0  0  0
  -25.5129  -18.4757   17.8215 H   0  0  0  0  0  0
  -29.7916  -26.1299   21.4348 H   0  0  0  0  0  0
  -28.3223  -26.6795   22.1939 H   0  0  0  0  0  0
  -25.9858  -18.3379   20.7721 H   0  0  0  0  0  0
  1 25  1  0  0  0
  1 30  2  0  0  0
  1 91  1  0  0  0
  2  3  1  0  0  0
  2 25  1  0  0  0
  2 92  1  0  0  0
  2 93  1  0  0  0
  3  4  1  0  0  0
  3 94  1  0  0  0
  3 95  1  0  0  0
  4  5  1  0  0  0
  4 96  1  0  0  0
  4 97  1  0  0  0
  5  6  1  0  0  0
  5 26  1  0  0  0
  5 98  1  0  0  0
  6 25  1  0  0  0
  6 99  1  0  0  0
  6100  1  0  0  0
  7  8  2  0  0  0
  7 26  1  0  0  0
  7 29  1  0  0  0
  8  9  1  0  0  0
  8 22  1  0  0  0
  9 10  1  0  0  0
  9 27  2  0  0  0
 10 11  2  0  0  0
 10 15  1  0  0  0
 11 12  1  0  0  0
 11101  1  0  0  0
 12 13  2  0  0  0
 12102  1  0  0  0
 13 14  1  0  0  0
 13 31  1  0  0  0
 14 15  2  0  0  0
 14103  1  0  0  0
 15104  1  0  0  0
 16 17  2  0  0  0
 16 21  1  0  0  0
 16 31  1  0  0  0
 17 18  1  0  0  0
 17105  1  0  0  0
 18 19  2  0  0  0
 18106  1  0  0  0
 19 20  1  0  0  0
 19 24  1  0  0  0
 20 21  2  0  0  0
 20107  1  0  0  0
 21 23  1  0  0  0
 22 28  1  0  0  0
 22 32  2  0  0  0
 26 27  1  0  0  0
 28108  1  0  0  0
 28109  1  0  0  0
 29110  1  0  0  0
 29111  1  0  0  0
 33 34  1  0  0  0
 33 66  1  0  0  0
 33 70  2  0  0  0
 34 36  1  0  0  0
 34 59  1  0  0  0
 34112  1  0  0  0
 35 44  2  0  0  0
 35 45  1  0  0  0
 35 68  1  0  0  0
 36 56  1  0  0  0
 36113  1  0  0  0
 37 39  1  0  0  0
 37 47  1  0  0  0
 37 66  1  0  0  0
 37114  1  0  0  0
 38 43  2  0  0  0
 38 46  1  0  0  0
 38 47  1  0  0  0
 39 64  1  0  0  0
 39 67  2  0  0  0
 40 52  1  0  0  0
 40 53  2  0  0  0
 40 58  1  0  0  0
 41115  1  0  0  0
 41116  1  0  0  0
 41117  1  0  0  0
 41 48  1  0  0  0
 42 43  1  0  0  0
 42 66  1  0  0  0
 42118  1  0  0  0
 42119  1  0  0  0
 43 44  1  0  0  0
 44120  1  0  0  0
 45 46  2  0  0  0
 45121  1  0  0  0
 46122  1  0  0  0
 47123  1  0  0  0
 47124  1  0  0  0
 48 56  1  0  0  0
 48 65  1  0  0  0
 48125  1  0  0  0
 49 50  1  0  0  0
 49 53  1  0  0  0
 49 64  1  0  0  0
 49126  1  0  0  0
 50 51  1  0  0  0
 50127  1  0  0  0
 50128  1  0  0  0
 51 52  1  0  0  0
 51129  1  0  0  0
 51130  1  0  0  0
 52131  1  0  0  0
 52132  1  0  0  0
 53 54  1  0  0  0
 54 55  2  0  0  0
 54133  1  0  0  0
 55 57  1  0  0  0
 55134  1  0  0  0
 56 69  2  0  0  0
 57 58  2  0  0  0
 57135  1  0  0  0
 58136  1  0  0  0
 59 60  1  0  0  0
 59 61  1  0  0  0
 59 62  1  0  0  0
 60137  1  0  0  0
 60138  1  0  0  0
 60139  1  0  0  0
 61140  1  0  0  0
 61141  1  0  0  0
 61142  1  0  0  0
 62143  1  0  0  0
 62144  1  0  0  0
 62145  1  0  0  0
 63 65  1  0  0  0
 63146  1  0  0  0
 63147  1  0  0  0
 63148  1  0  0  0
 64149  1  0  0  0
 65150  1  0  0  0
 68 87  1  0  0  0
 71 73  2  0  0  0
 71 74  1  0  0  0
 71151  1  0  0  0
 72 88  2  0  0  0
 72 89  1  0  0  0
 72152  1  0  0  0
 73 88  1  0  0  0
 73 90  1  0  0  0
 74 89  2  0  0  0
 74 91  1  0  0  0
 75 91  1  0  0  0
 75153  1  0  0  0
 75154  1  0  0  0
 75155  1  0  0  0
 76 77  1  0  0  0
 76 78  1  0  0  0
 76156  1  0  0  0
 76157  1  0  0  0
 77 79  1  0  0  0
 77158  1  0  0  0
 77159  1  0  0  0
 78 80  1  0  0  0
 78160  1  0  0  0
 78161  1  0  0  0
 79 81  1  0  0  0
 79162  1  0  0  0
 79163  1  0  0  0
 80 82  1  0  0  0
 80164  1  0  0  0
 80165  1  0  0  0
 81 83  1  0  0  0
 81166  1  0  0  0
 81167  1  0  0  0
 82 84  1  0  0  0
 82168  1  0  0  0
 82169  1  0  0  0
 83 85  1  0  0  0
 83170  1  0  0  0
 83171  1  0  0  0
 84 86  1  0  0  0
 84172  1  0  0  0
 84173  1  0  0  0
 85 87  1  0  0  0
 85174  1  0  0  0
 85175  1  0  0  0
 86 90  1  0  0  0
 86176  1  0  0  0
 86177  1  0  0  0
 87178  1  0  0  0
 87179  1  0  0  0
 90180  1  0  0  0
M  ISO  4   1 100  68 101  87 101  91 100
M  END
> <chiral flag>
0

> <version>
0

> <s_m_source_file>
/data/baiqing/PycharmProjects/Reinvent-master-3.2/result/LINK_invent/BTK/process_docking_weight1_custom_sum_contain_oxygen_bond_distance_aromatic_linkinvent_7_9_3/rearranged_h_0004.sdf

> <i_m_source_file_index>
47

> <r_mmod_Potential_Energy-OPLS-2005>
-318.708129882812

> <r_mmod_Stretch_Energy-OPLS-2005>
33.6477127075195

> <r_mmod_Bend_Energy-OPLS-2005>
112.883110046387

> <r_mmod_Torsional_Energy-OPLS-2005>
315.920227050781

> <r_mmod_Improper_Torsional_Energy-OPLS-2005>
6.11703491210938

> <r_mmod_Van_der_Waal_Energy-OPLS-2005>
159.147720336914

> <r_mmod_Electrostatic_Energy-OPLS-2005>
-761.946899414062

> <r_mmod_Solvation_Energy-OPLS-2005>
-201.203598022461

> <b_mmod_Minimization_Converged-OPLS-2005>
0

> <r_mmod_RMS_Derivative-OPLS-2005>
6.2241268157959

$$$$
47
                    3D
 Structure written by MMmdl.
151159  0  0  1  0            999 V2000
  -30.5383  -15.0283   20.4094 C   0  0  0  0  0  0
  -30.4380  -12.6433   19.5047 C   0  0  0  0  0  0
  -29.5222  -12.5301   18.2647 C   0  0  0  0  0  0
  -28.0616  -12.2982   18.6903 C   0  0  0  0  0  0
  -27.6231  -13.2545   19.8298 C   0  0  2  0  0  0
  -28.6653  -13.3382   20.9659 C   0  0  0  0  0  0
  -25.2447  -13.8231   20.5749 C   0  0  0  0  0  0
  -24.1773  -13.0449   20.9258 C   0  0  0  0  0  0
  -24.6398  -11.6930   20.8774 C   0  0  0  0  0  0
  -23.9093  -10.4295   21.0415 C   0  0  0  0  0  0
  -24.3631   -9.4205   21.9193 C   0  0  0  0  0  0
  -23.6302   -8.2239   22.0756 C   0  0  0  0  0  0
  -22.4286   -8.0281   21.3538 C   0  0  0  0  0  0
  -21.9926   -9.0262   20.4643 C   0  0  0  0  0  0
  -22.7264  -10.2138   20.3063 C   0  0  0  0  0  0
  -21.6844   -6.0745   22.5284 C   0  0  0  0  0  0
  -21.4013   -6.5650   23.8221 C   0  0  0  0  0  0
  -21.3656   -5.6800   24.9178 C   0  0  0  0  0  0
  -21.6037   -4.3064   24.7229 C   0  0  0  0  0  0
  -21.8815   -3.8156   23.4351 C   0  0  0  0  0  0
  -21.9195   -4.6974   22.3406 C   0  0  0  0  0  0
  -22.7786  -13.5205   21.1896 C   0  0  0  0  0  0
  -22.1658   -4.2158   21.0984 F   0  0  0  0  0  0
  -21.5621   -3.4547   25.7744 F   0  0  0  0  0  0
  -29.9307  -13.7659   20.3538 N   0  0  0  0  0  0
  -26.2860  -12.9467   20.3227 N   0  0  0  0  0  0
  -25.9328  -11.6592   20.5743 N   0  0  0  0  0  0
  -22.0428  -12.8184   22.0431 N   0  0  0  0  0  0
  -25.4135  -15.1965   20.4212 N   0  0  0  0  0  0
  -31.7444  -15.0384   20.1397 O   0  0  0  0  0  0
  -21.6635   -6.8885   21.4244 O   0  0  0  0  0  0
  -22.3466  -14.5507   20.6739 O   0  0  0  0  0  0
  -24.6466  -31.8393   23.1801 C   0  0  0  0  0  0
  -25.9225  -32.4665   23.8206 C   0  0  1  0  0  0
  -27.2177  -27.0806   20.1627 C   0  0  0  0  0  0
  -25.5959  -33.8469   24.2126 N   0  0  0  0  0  0
  -23.4518  -30.4538   21.5298 C   0  0  2  0  0  0
  -24.9035  -28.8703   20.1085 C   0  0  0  0  0  0
  -22.7587  -29.4500   22.4855 C   0  0  0  0  0  0
  -18.0306  -28.1367   22.8466 C   0  0  0  0  0  0
  -24.1500  -36.7261   23.2642 C   0  0  0  0  0  0
  -26.0116  -30.6945   21.3859 C   0  0  0  0  0  0
  -26.0829  -29.2996   20.7313 C   0  0  0  0  0  0
  -27.2387  -28.4211   20.7394 C   0  0  0  0  0  0
  -26.0133  -26.7678   19.4951 C   0  0  0  0  0  0
  -24.8862  -27.6201   19.4715 C   0  0  0  0  0  0
  -23.6798  -29.7771   20.1505 C   0  0  0  0  0  0
  -25.4136  -36.3014   24.0302 C   0  0  1  0  0  0
  -20.5921  -28.3704   23.1233 C   0  0  2  0  0  0
  -20.6793  -26.9404   22.5409 C   0  0  0  0  0  0
  -19.5766  -26.6359   21.5206 C   0  0  0  0  0  0
  -18.1942  -26.7909   22.1610 C   0  0  0  0  0  0
  -19.1565  -28.8854   23.2834 C   0  0  0  0  0  0
  -18.9480  -30.1454   23.8852 C   0  0  0  0  0  0
  -17.6478  -30.6565   24.0549 C   0  0  0  0  0  0
  -25.9088  -34.9396   23.5031 C   0  0  0  0  0  0
  -16.5366  -29.9056   23.6324 C   0  0  0  0  0  0
  -16.7292  -28.6477   23.0342 C   0  0  0  0  0  0
  -26.4528  -31.6529   25.0661 C   0  0  0  0  0  0
  -25.3691  -31.3727   26.1341 C   0  0  0  0  0  0
  -27.0403  -30.2913   24.6263 C   0  0  0  0  0  0
  -27.6032  -32.4326   25.7449 C   0  0  0  0  0  0
  -27.5581  -37.1786   24.8464 C   0  0  0  0  0  0
  -21.4278  -29.3028   22.3615 N   0  0  0  0  0  0
  -26.4296  -37.3734   23.9398 N   0  0  0  0  0  0
  -24.7237  -31.0189   22.0867 N   0  0  0  0  0  0
  -23.4214  -28.8065   23.3030 O   0  0  0  0  0  0
  -28.2551  -26.0624   20.2478 O   0  0  0  0  0  0
  -26.5697  -34.8914   22.4623 O   0  0  0  0  0  0
  -23.5574  -32.1312   23.6997 O   0  0  0  0  0  0
  -31.5432  -19.5990   21.5588 C   0  0  0  0  0  0
  -30.7002  -20.6563   21.1542 C   0  0  0  0  0  0
  -29.1998  -18.9578   20.3091 C   0  0  0  0  0  0
  -31.2477  -18.2222   21.3792 C   0  0  0  0  0  0
  -30.0725  -17.7858   20.6910 C   0  0  0  0  0  0
  -29.4645  -20.4269   20.5245 C   0  0  0  0  0  0
  -32.2336  -17.2634   22.0269 C   0  0  0  0  0  0
  -27.9876  -24.5115   20.0574 C   0  0  0  0  0  0
  -28.9547  -23.1347   20.4330 C   0  0  0  0  0  0
  -29.7786  -16.2541   20.5208 N   0  0  0  0  0  0
  -28.6348  -21.6082   20.1804 O   0  0  0  0  0  0
  -31.4672  -12.8057   19.1822 H   0  0  0  0  0  0
  -30.4497  -11.7084   20.0674 H   0  0  0  0  0  0
  -29.8574  -11.7176   17.6184 H   0  0  0  0  0  0
  -29.5917  -13.4437   17.6728 H   0  0  0  0  0  0
  -27.9830  -11.2656   19.0330 H   0  0  0  0  0  0
  -27.3928  -12.3846   17.8328 H   0  0  0  0  0  0
  -27.5682  -14.2418   19.3702 H   0  0  0  0  0  0
  -28.7724  -12.3813   21.4785 H   0  0  0  0  0  0
  -28.3507  -14.0617   21.7200 H   0  0  0  0  0  0
  -25.2774   -9.5673   22.4771 H   0  0  0  0  0  0
  -24.0010   -7.4626   22.7475 H   0  0  0  0  0  0
  -21.0852   -8.8788   19.8943 H   0  0  0  0  0  0
  -22.3729  -10.9681   19.6168 H   0  0  0  0  0  0
  -21.2006   -7.6159   23.9724 H   0  0  0  0  0  0
  -21.1471   -6.0533   25.9081 H   0  0  0  0  0  0
  -22.0597   -2.7621   23.2855 H   0  0  0  0  0  0
  -22.4058  -11.9869   22.4846 H   0  0  0  0  0  0
  -21.1029  -13.1178   22.2603 H   0  0  0  0  0  0
  -24.6507  -15.8532   20.5535 H   0  0  0  0  0  0
  -26.2582  -15.6362   20.0811 H   0  0  0  0  0  0
  -26.7295  -32.5275   23.0942 H   0  0  0  0  0  0
  -25.0068  -33.9544   25.0245 H   0  0  0  0  0  0
  -22.7566  -31.2809   21.3710 H   0  0  0  0  0  0
  -23.3749  -35.9596   23.3281 H   0  0  0  0  0  0
  -24.3594  -36.8931   22.2060 H   0  0  0  0  0  0
  -23.7276  -37.6457   23.6713 H   0  0  0  0  0  0
  -26.1687  -31.4425   20.6077 H   0  0  0  0  0  0
  -26.8821  -30.7557   22.0265 H   0  0  0  0  0  0
  -28.1337  -28.7414   21.2538 H   0  0  0  0  0  0
  -25.9108  -25.8111   19.0060 H   0  0  0  0  0  0
  -23.9899  -27.2868   18.9670 H   0  0  0  0  0  0
  -23.8169  -30.5491   19.3925 H   0  0  0  0  0  0
  -22.7928  -29.2226   19.8369 H   0  0  0  0  0  0
  -25.1316  -36.1830   25.0790 H   0  0  0  0  0  0
  -21.0004  -28.3294   24.1362 H   0  0  0  0  0  0
  -20.5682  -26.2306   23.3623 H   0  0  0  0  0  0
  -21.6663  -26.7405   22.1212 H   0  0  0  0  0  0
  -19.6931  -25.6261   21.1257 H   0  0  0  0  0  0
  -19.6707  -27.3155   20.6717 H   0  0  0  0  0  0
  -17.4222  -26.6652   21.4004 H   0  0  0  0  0  0
  -18.0340  -26.0033   22.8985 H   0  0  0  0  0  0
  -19.7956  -30.7277   24.2201 H   0  0  0  0  0  0
  -17.5025  -31.6241   24.5163 H   0  0  0  0  0  0
  -15.5365  -30.2944   23.7662 H   0  0  0  0  0  0
  -15.8690  -28.0787   22.7063 H   0  0  0  0  0  0
  -24.5874  -30.7069   25.7661 H   0  0  0  0  0  0
  -24.8873  -32.2911   26.4691 H   0  0  0  0  0  0
  -25.7955  -30.8944   27.0165 H   0  0  0  0  0  0
  -26.3011  -29.6613   24.1296 H   0  0  0  0  0  0
  -27.4043  -29.7227   25.4831 H   0  0  0  0  0  0
  -27.8912  -30.4137   23.9559 H   0  0  0  0  0  0
  -27.2593  -33.3665   26.1912 H   0  0  0  0  0  0
  -28.3889  -32.6835   25.0308 H   0  0  0  0  0  0
  -28.0649  -31.8539   26.5464 H   0  0  0  0  0  0
  -28.2574  -38.0100   24.7513 H   0  0  0  0  0  0
  -28.1107  -36.2634   24.6289 H   0  0  0  0  0  0
  -27.2315  -37.1439   25.8870 H   0  0  0  0  0  0
  -20.9494  -29.8760   21.6811 H   0  0  0  0  0  0
  -26.0153  -38.2798   24.1379 H   0  0  0  0  0  0
  -32.4584  -19.8738   22.0655 H   0  0  0  0  0  0
  -31.0214  -21.6661   21.3628 H   0  0  0  0  0  0
  -28.2626  -18.7183   19.8275 H   0  0  0  0  0  0
  -32.7603  -17.7420   22.8528 H   0  0  0  0  0  0
  -32.9856  -16.9401   21.3072 H   0  0  0  0  0  0
  -31.7407  -16.3936   22.4571 H   0  0  0  0  0  0
  -27.0347  -24.3314   20.5564 H   0  0  0  0  0  0
  -27.7657  -24.4124   18.9946 H   0  0  0  0  0  0
  -29.1700  -23.2048   21.4992 H   0  0  0  0  0  0
  -29.9171  -23.3035   19.9495 H   0  0  0  0  0  0
  -28.7905  -16.0560   20.4855 H   0  0  0  0  0  0
  1 25  1  0  0  0
  1 30  2  0  0  0
  1 80  1  0  0  0
  2  3  1  0  0  0
  2 25  1  0  0  0
  2 82  1  0  0  0
  2 83  1  0  0  0
  3  4  1  0  0  0
  3 84  1  0  0  0
  3 85  1  0  0  0
  4  5  1  0  0  0
  4 86  1  0  0  0
  4 87  1  0  0  0
  5  6  1  0  0  0
  5 26  1  0  0  0
  5 88  1  0  0  0
  6 25  1  0  0  0
  6 89  1  0  0  0
  6 90  1  0  0  0
  7  8  2  0  0  0
  7 26  1  0  0  0
  7 29  1  0  0  0
  8  9  1  0  0  0
  8 22  1  0  0  0
  9 10  1  0  0  0
  9 27  2  0  0  0
 10 11  2  0  0  0
 10 15  1  0  0  0
 11 12  1  0  0  0
 11 91  1  0  0  0
 12 13  2  0  0  0
 12 92  1  0  0  0
 13 14  1  0  0  0
 13 31  1  0  0  0
 14 15  2  0  0  0
 14 93  1  0  0  0
 15 94  1  0  0  0
 16 17  2  0  0  0
 16 21  1  0  0  0
 16 31  1  0  0  0
 17 18  1  0  0  0
 17 95  1  0  0  0
 18 19  2  0  0  0
 18 96  1  0  0  0
 19 20  1  0  0  0
 19 24  1  0  0  0
 20 21  2  0  0  0
 20 97  1  0  0  0
 21 23  1  0  0  0
 22 28  1  0  0  0
 22 32  2  0  0  0
 26 27  1  0  0  0
 28 98  1  0  0  0
 28 99  1  0  0  0
 29100  1  0  0  0
 29101  1  0  0  0
 33 34  1  0  0  0
 33 66  1  0  0  0
 33 70  2  0  0  0
 34 36  1  0  0  0
 34 59  1  0  0  0
 34102  1  0  0  0
 35 44  2  0  0  0
 35 45  1  0  0  0
 35 68  1  0  0  0
 36 56  1  0  0  0
 36103  1  0  0  0
 37 39  1  0  0  0
 37 47  1  0  0  0
 37 66  1  0  0  0
 37104  1  0  0  0
 38 43  2  0  0  0
 38 46  1  0  0  0
 38 47  1  0  0  0
 39 64  1  0  0  0
 39 67  2  0  0  0
 40 52  1  0  0  0
 40 53  2  0  0  0
 40 58  1  0  0  0
 41105  1  0  0  0
 41106  1  0  0  0
 41107  1  0  0  0
 41 48  1  0  0  0
 42 43  1  0  0  0
 42 66  1  0  0  0
 42108  1  0  0  0
 42109  1  0  0  0
 43 44  1  0  0  0
 44110  1  0  0  0
 45 46  2  0  0  0
 45111  1  0  0  0
 46112  1  0  0  0
 47113  1  0  0  0
 47114  1  0  0  0
 48 56  1  0  0  0
 48 65  1  0  0  0
 48115  1  0  0  0
 49 50  1  0  0  0
 49 53  1  0  0  0
 49 64  1  0  0  0
 49116  1  0  0  0
 50 51  1  0  0  0
 50117  1  0  0  0
 50118  1  0  0  0
 51 52  1  0  0  0
 51119  1  0  0  0
 51120  1  0  0  0
 52121  1  0  0  0
 52122  1  0  0  0
 53 54  1  0  0  0
 54 55  2  0  0  0
 54123  1  0  0  0
 55 57  1  0  0  0
 55124  1  0  0  0
 56 69  2  0  0  0
 57 58  2  0  0  0
 57125  1  0  0  0
 58126  1  0  0  0
 59 60  1  0  0  0
 59 61  1  0  0  0
 59 62  1  0  0  0
 60127  1  0  0  0
 60128  1  0  0  0
 60129  1  0  0  0
 61130  1  0  0  0
 61131  1  0  0  0
 61132  1  0  0  0
 62133  1  0  0  0
 62134  1  0  0  0
 62135  1  0  0  0
 63 65  1  0  0  0
 63136  1  0  0  0
 63137  1  0  0  0
 63138  1  0  0  0
 64139  1  0  0  0
 65140  1  0  0  0
 68 78  1  0  0  0
 71 72  2  0  0  0
 71 74  1  0  0  0
 71141  1  0  0  0
 72 76  1  0  0  0
 72142  1  0  0  0
 73 75  1  0  0  0
 73 76  2  0  0  0
 73143  1  0  0  0
 74 75  2  0  0  0
 74 77  1  0  0  0
 75 80  1  0  0  0
 76 81  1  0  0  0
 77144  1  0  0  0
 77145  1  0  0  0
 77146  1  0  0  0
 78 79  1  0  0  0
 78147  1  0  0  0
 78148  1  0  0  0
 79 81  1  0  0  0
 79149  1  0  0  0
 79150  1  0  0  0
 80151  1  0  0  0
M  ISO  4   1 100  68 101  78 101  80 100
M  END
> <chiral flag>
0

> <version>
0

> <s_m_source_file>
/data/baiqing/PycharmProjects/Reinvent-master-3.2/result/LINK_invent/BTK/process_docking_weight1_custom_sum_contain_oxygen_bond_distance_aromatic_linkinvent_7_9_3/rearranged_h_0004.sdf

> <i_m_source_file_index>
48

> <r_mmod_Potential_Energy-OPLS-2005>
657.012573242188

> <r_mmod_Stretch_Energy-OPLS-2005>
338.325378417969

> <r_mmod_Bend_Energy-OPLS-2005>
291.393188476562

> <r_mmod_Torsional_Energy-OPLS-2005>
215.929733276367

> <r_mmod_Improper_Torsional_Energy-OPLS-2005>
5.61500644683838

> <r_mmod_Van_der_Waal_Energy-OPLS-2005>
138.909286499023

> <r_mmod_Electrostatic_Energy-OPLS-2005>
-368.453704833984

> <r_mmod_Solvation_Energy-OPLS-2005>
-213.600860595703

> <b_mmod_Minimization_Converged-OPLS-2005>
0

> <r_mmod_RMS_Derivative-OPLS-2005>
1.86379611492157

$$$$
48
                    3D
 Structure written by MMmdl.
152160  0  0  1  0            999 V2000
  -30.5388  -14.8995   20.4296 C   0  0  0  0  0  0
  -30.4536  -12.5553   19.4850 C   0  0  0  0  0  0
  -29.5333  -12.5383   18.2450 C   0  0  0  0  0  0
  -28.0547  -12.3482   18.6469 C   0  0  0  0  0  0
  -27.6357  -13.2543   19.8381 C   0  0  2  0  0  0
  -28.6827  -13.2280   20.9713 C   0  0  0  0  0  0
  -25.2447  -13.8199   20.5707 C   0  0  0  0  0  0
  -24.1772  -13.0423   20.9251 C   0  0  0  0  0  0
  -24.6409  -11.6925   20.8758 C   0  0  0  0  0  0
  -23.9119  -10.4291   21.0423 C   0  0  0  0  0  0
  -24.3660   -9.4175   21.9187 C   0  0  0  0  0  0
  -23.6294   -8.2236   22.0761 C   0  0  0  0  0  0
  -22.4244   -8.0297   21.3594 C   0  0  0  0  0  0
  -21.9939   -9.0289   20.4672 C   0  0  0  0  0  0
  -22.7303  -10.2143   20.3066 C   0  0  0  0  0  0
  -21.6838   -6.0754   22.5286 C   0  0  0  0  0  0
  -21.4038   -6.5645   23.8228 C   0  0  0  0  0  0
  -21.3670   -5.6770   24.9170 C   0  0  0  0  0  0
  -21.6025   -4.3040   24.7214 C   0  0  0  0  0  0
  -21.8799   -3.8159   23.4333 C   0  0  0  0  0  0
  -21.9181   -4.6994   22.3398 C   0  0  0  0  0  0
  -22.7773  -13.5184   21.1840 C   0  0  0  0  0  0
  -22.1629   -4.2193   21.0983 F   0  0  0  0  0  0
  -21.5626   -3.4496   25.7730 F   0  0  0  0  0  0
  -29.9724  -13.6325   20.3874 N   0  0  0  0  0  0
  -26.2904  -12.9466   20.3204 N   0  0  0  0  0  0
  -25.9326  -11.6583   20.5636 N   0  0  0  0  0  0
  -22.0392  -12.8239   22.0403 N   0  0  0  0  0  0
  -25.3954  -15.1950   20.4154 N   0  0  0  0  0  0
  -31.7440  -15.0112   20.1652 O   0  0  0  0  0  0
  -21.6606   -6.8904   21.4247 O   0  0  0  0  0  0
  -22.3469  -14.5452   20.6610 O   0  0  0  0  0  0
  -24.6412  -31.8417   23.1817 C   0  0  0  0  0  0
  -25.9187  -32.4665   23.8239 C   0  0  1  0  0  0
  -27.2451  -27.1442   20.1852 C   0  0  0  0  0  0
  -25.5909  -33.8476   24.2132 N   0  0  0  0  0  0
  -23.4469  -30.4541   21.5290 C   0  0  2  0  0  0
  -24.9062  -28.8711   20.1167 C   0  0  0  0  0  0
  -22.7563  -29.4508   22.4840 C   0  0  0  0  0  0
  -18.0314  -28.1354   22.8467 C   0  0  0  0  0  0
  -24.1487  -36.7270   23.2644 C   0  0  0  0  0  0
  -26.0003  -30.7230   21.3766 C   0  0  0  0  0  0
  -26.0774  -29.3290   20.7336 C   0  0  0  0  0  0
  -27.2465  -28.4832   20.7439 C   0  0  0  0  0  0
  -26.0450  -26.7750   19.5398 C   0  0  0  0  0  0
  -24.9013  -27.6063   19.5033 C   0  0  0  0  0  0
  -23.6778  -29.7691   20.1533 C   0  0  0  0  0  0
  -25.4099  -36.3002   24.0313 C   0  0  1  0  0  0
  -20.5926  -28.3695   23.1219 C   0  0  2  0  0  0
  -20.6784  -26.9381   22.5410 C   0  0  0  0  0  0
  -19.5764  -26.6345   21.5195 C   0  0  0  0  0  0
  -18.1944  -26.7889   22.1601 C   0  0  0  0  0  0
  -19.1571  -28.8837   23.2834 C   0  0  0  0  0  0
  -18.9486  -30.1444   23.8852 C   0  0  0  0  0  0
  -17.6476  -30.6558   24.0537 C   0  0  0  0  0  0
  -25.9049  -34.9389   23.5026 C   0  0  0  0  0  0
  -16.5368  -29.9050   23.6325 C   0  0  0  0  0  0
  -16.7294  -28.6466   23.0346 C   0  0  0  0  0  0
  -26.4507  -31.6536   25.0692 C   0  0  0  0  0  0
  -25.3698  -31.3775   26.1400 C   0  0  0  0  0  0
  -27.0357  -30.2909   24.6276 C   0  0  0  0  0  0
  -27.5985  -32.4322   25.7521 C   0  0  0  0  0  0
  -27.5568  -37.1764   24.8440 C   0  0  0  0  0  0
  -21.4255  -29.3027   22.3604 N   0  0  0  0  0  0
  -26.4247  -37.3723   23.9419 N   0  0  0  0  0  0
  -24.7163  -31.0284   22.0843 N   0  0  0  0  0  0
  -23.4193  -28.8079   23.3011 O   0  0  0  0  0  0
  -28.3428  -26.2101   20.1830 O   0  0  0  0  0  0
  -26.5691  -34.8899   22.4630 O   0  0  0  0  0  0
  -23.5533  -32.1318   23.7027 O   0  0  0  0  0  0
  -30.8406  -18.4178   20.6683 C   0  0  0  0  0  0
  -28.5082  -18.2934   20.3621 C   0  0  0  0  0  0
  -30.7218  -19.8706   20.7365 C   0  0  0  0  0  0
  -28.3978  -19.7402   20.4181 C   0  0  0  0  0  0
  -29.7205  -17.5354   20.5085 C   0  0  0  0  0  0
  -29.4927  -20.6324   20.6380 C   0  0  0  0  0  0
  -30.2109  -22.4141   22.0940 C   0  0  0  0  0  0
  -28.9653  -23.3383   20.0886 C   0  0  0  0  0  0
  -28.2434  -24.7478   20.7072 C   0  0  0  0  0  0
  -29.6737  -16.0107   20.5343 N   0  0  0  0  0  0
  -29.3435  -22.0898   20.9558 N   0  0  0  0  0  0
  -31.4890  -12.7204   19.1809 H   0  0  0  0  0  0
  -30.4430  -11.5926   19.9958 H   0  0  0  0  0  0
  -29.8508  -11.7568   17.5519 H   0  0  0  0  0  0
  -29.6424  -13.4797   17.7044 H   0  0  0  0  0  0
  -27.9127  -11.2990   18.9055 H   0  0  0  0  0  0
  -27.4111  -12.5385   17.7893 H   0  0  0  0  0  0
  -27.6085  -14.2692   19.4400 H   0  0  0  0  0  0
  -28.7411  -12.2340   21.4174 H   0  0  0  0  0  0
  -28.4020  -13.9097   21.7775 H   0  0  0  0  0  0
  -25.2823   -9.5603   22.4746 H   0  0  0  0  0  0
  -24.0010   -7.4592   22.7465 H   0  0  0  0  0  0
  -21.0875   -8.8833   19.8975 H   0  0  0  0  0  0
  -22.3804  -10.9685   19.6167 H   0  0  0  0  0  0
  -21.2042   -7.6152   23.9765 H   0  0  0  0  0  0
  -21.1511   -6.0488   25.9082 H   0  0  0  0  0  0
  -22.0577   -2.7629   23.2785 H   0  0  0  0  0  0
  -22.3961  -12.0033   22.5039 H   0  0  0  0  0  0
  -21.0992  -13.1346   22.2465 H   0  0  0  0  0  0
  -24.6027  -15.8167   20.5403 H   0  0  0  0  0  0
  -26.2053  -15.6648   20.0380 H   0  0  0  0  0  0
  -26.7261  -32.5313   23.0990 H   0  0  0  0  0  0
  -24.9969  -33.9578   25.0223 H   0  0  0  0  0  0
  -22.7481  -31.2762   21.3652 H   0  0  0  0  0  0
  -23.3716  -35.9629   23.3246 H   0  0  0  0  0  0
  -24.3610  -36.8975   22.2077 H   0  0  0  0  0  0
  -23.7284  -37.6454   23.6747 H   0  0  0  0  0  0
  -26.1507  -31.4705   20.5958 H   0  0  0  0  0  0
  -26.8725  -30.7872   22.0149 H   0  0  0  0  0  0
  -28.1447  -28.8375   21.2282 H   0  0  0  0  0  0
  -25.9911  -25.8079   19.0611 H   0  0  0  0  0  0
  -24.0088  -27.2480   19.0103 H   0  0  0  0  0  0
  -23.8152  -30.5381   19.3924 H   0  0  0  0  0  0
  -22.7927  -29.2069   19.8462 H   0  0  0  0  0  0
  -25.1277  -36.1796   25.0801 H   0  0  0  0  0  0
  -21.0028  -28.3301   24.1327 H   0  0  0  0  0  0
  -20.5614  -26.2293   23.3633 H   0  0  0  0  0  0
  -21.6659  -26.7338   22.1243 H   0  0  0  0  0  0
  -19.6919  -25.6257   21.1221 H   0  0  0  0  0  0
  -19.6681  -27.3150   20.6722 H   0  0  0  0  0  0
  -17.4193  -26.6645   21.4019 H   0  0  0  0  0  0
  -18.0327  -26.0052   22.9015 H   0  0  0  0  0  0
  -19.7979  -30.7273   24.2168 H   0  0  0  0  0  0
  -17.5040  -31.6225   24.5172 H   0  0  0  0  0  0
  -15.5369  -30.2915   23.7672 H   0  0  0  0  0  0
  -15.8711  -28.0768   22.7044 H   0  0  0  0  0  0
  -24.5765  -30.7247   25.7761 H   0  0  0  0  0  0
  -24.9017  -32.3004   26.4839 H   0  0  0  0  0  0
  -25.7968  -30.8917   27.0186 H   0  0  0  0  0  0
  -26.2988  -29.6636   24.1243 H   0  0  0  0  0  0
  -27.3925  -29.7196   25.4866 H   0  0  0  0  0  0
  -27.8909  -30.4115   23.9615 H   0  0  0  0  0  0
  -27.2471  -33.3562   26.2133 H   0  0  0  0  0  0
  -28.3800  -32.7007   25.0404 H   0  0  0  0  0  0
  -28.0667  -31.8462   26.5448 H   0  0  0  0  0  0
  -28.2493  -38.0143   24.7505 H   0  0  0  0  0  0
  -28.1134  -36.2652   24.6174 H   0  0  0  0  0  0
  -27.2316  -37.1320   25.8851 H   0  0  0  0  0  0
  -20.9443  -29.8720   21.6790 H   0  0  0  0  0  0
  -26.0083  -38.2766   24.1448 H   0  0  0  0  0  0
  -31.8229  -17.9811   20.7817 H   0  0  0  0  0  0
  -27.5857  -17.7435   20.2380 H   0  0  0  0  0  0
  -31.6470  -20.3962   20.9157 H   0  0  0  0  0  0
  -27.4061  -20.1656   20.3685 H   0  0  0  0  0  0
  -31.2651  -22.4140   21.8096 H   0  0  0  0  0  0
  -30.0829  -21.6853   22.8974 H   0  0  0  0  0  0
  -29.9933  -23.3883   22.5272 H   0  0  0  0  0  0
  -29.9127  -23.6508   19.6485 H   0  0  0  0  0  0
  -28.3703  -22.9914   19.2413 H   0  0  0  0  0  0
  -28.6258  -24.8610   21.7208 H   0  0  0  0  0  0
  -27.1895  -24.5140   20.8642 H   0  0  0  0  0  0
  -28.7249  -15.6725   20.5901 H   0  0  0  0  0  0
  1 25  1  0  0  0
  1 30  2  0  0  0
  1 80  1  0  0  0
  2  3  1  0  0  0
  2 25  1  0  0  0
  2 82  1  0  0  0
  2 83  1  0  0  0
  3  4  1  0  0  0
  3 84  1  0  0  0
  3 85  1  0  0  0
  4  5  1  0  0  0
  4 86  1  0  0  0
  4 87  1  0  0  0
  5  6  1  0  0  0
  5 26  1  0  0  0
  5 88  1  0  0  0
  6 25  1  0  0  0
  6 89  1  0  0  0
  6 90  1  0  0  0
  7  8  2  0  0  0
  7 26  1  0  0  0
  7 29  1  0  0  0
  8  9  1  0  0  0
  8 22  1  0  0  0
  9 10  1  0  0  0
  9 27  2  0  0  0
 10 11  2  0  0  0
 10 15  1  0  0  0
 11 12  1  0  0  0
 11 91  1  0  0  0
 12 13  2  0  0  0
 12 92  1  0  0  0
 13 14  1  0  0  0
 13 31  1  0  0  0
 14 15  2  0  0  0
 14 93  1  0  0  0
 15 94  1  0  0  0
 16 17  2  0  0  0
 16 21  1  0  0  0
 16 31  1  0  0  0
 17 18  1  0  0  0
 17 95  1  0  0  0
 18 19  2  0  0  0
 18 96  1  0  0  0
 19 20  1  0  0  0
 19 24  1  0  0  0
 20 21  2  0  0  0
 20 97  1  0  0  0
 21 23  1  0  0  0
 22 28  1  0  0  0
 22 32  2  0  0  0
 26 27  1  0  0  0
 28 98  1  0  0  0
 28 99  1  0  0  0
 29100  1  0  0  0
 29101  1  0  0  0
 33 34  1  0  0  0
 33 66  1  0  0  0
 33 70  2  0  0  0
 34 36  1  0  0  0
 34 59  1  0  0  0
 34102  1  0  0  0
 35 44  2  0  0  0
 35 45  1  0  0  0
 35 68  1  0  0  0
 36 56  1  0  0  0
 36103  1  0  0  0
 37 39  1  0  0  0
 37 47  1  0  0  0
 37 66  1  0  0  0
 37104  1  0  0  0
 38 43  2  0  0  0
 38 46  1  0  0  0
 38 47  1  0  0  0
 39 64  1  0  0  0
 39 67  2  0  0  0
 40 52  1  0  0  0
 40 53  2  0  0  0
 40 58  1  0  0  0
 41105  1  0  0  0
 41106  1  0  0  0
 41107  1  0  0  0
 41 48  1  0  0  0
 42 43  1  0  0  0
 42 66  1  0  0  0
 42108  1  0  0  0
 42109  1  0  0  0
 43 44  1  0  0  0
 44110  1  0  0  0
 45 46  2  0  0  0
 45111  1  0  0  0
 46112  1  0  0  0
 47113  1  0  0  0
 47114  1  0  0  0
 48 56  1  0  0  0
 48 65  1  0  0  0
 48115  1  0  0  0
 49 50  1  0  0  0
 49 53  1  0  0  0
 49 64  1  0  0  0
 49116  1  0  0  0
 50 51  1  0  0  0
 50117  1  0  0  0
 50118  1  0  0  0
 51 52  1  0  0  0
 51119  1  0  0  0
 51120  1  0  0  0
 52121  1  0  0  0
 52122  1  0  0  0
 53 54  1  0  0  0
 54 55  2  0  0  0
 54123  1  0  0  0
 55 57  1  0  0  0
 55124  1  0  0  0
 56 69  2  0  0  0
 57 58  2  0  0  0
 57125  1  0  0  0
 58126  1  0  0  0
 59 60  1  0  0  0
 59 61  1  0  0  0
 59 62  1  0  0  0
 60127  1  0  0  0
 60128  1  0  0  0
 60129  1  0  0  0
 61130  1  0  0  0
 61131  1  0  0  0
 61132  1  0  0  0
 62133  1  0  0  0
 62134  1  0  0  0
 62135  1  0  0  0
 63 65  1  0  0  0
 63136  1  0  0  0
 63137  1  0  0  0
 63138  1  0  0  0
 64139  1  0  0  0
 65140  1  0  0  0
 68 79  1  0  0  0
 71 73  2  0  0  0
 71 75  1  0  0  0
 71141  1  0  0  0
 72 74  1  0  0  0
 72 75  2  0  0  0
 72142  1  0  0  0
 73 76  1  0  0  0
 73143  1  0  0  0
 74 76  2  0  0  0
 74144  1  0  0  0
 75 80  1  0  0  0
 76 81  1  0  0  0
 77 81  1  0  0  0
 77145  1  0  0  0
 77146  1  0  0  0
 77147  1  0  0  0
 78 79  1  0  0  0
 78 81  1  0  0  0
 78148  1  0  0  0
 78149  1  0  0  0
 79150  1  0  0  0
 79151  1  0  0  0
 80152  1  0  0  0
M  ISO  4   1 100  68 101  79 101  80 100
M  END
> <chiral flag>
0

> <version>
0

> <s_m_source_file>
/data/baiqing/PycharmProjects/Reinvent-master-3.2/result/LINK_invent/BTK/process_docking_weight1_custom_sum_contain_oxygen_bond_distance_aromatic_linkinvent_7_9_3/rearranged_h_0004.sdf

> <i_m_source_file_index>
49

> <r_mmod_Potential_Energy-OPLS-2005>
459.378814697266

> <r_mmod_Stretch_Energy-OPLS-2005>
224.822845458984

> <r_mmod_Bend_Energy-OPLS-2005>
272.590911865234

> <r_mmod_Torsional_Energy-OPLS-2005>
252.424453735352

> <r_mmod_Improper_Torsional_Energy-OPLS-2005>
9.02254772186279

> <r_mmod_Van_der_Waal_Energy-OPLS-2005>
130.40478515625

> <r_mmod_Electrostatic_Energy-OPLS-2005>
-368.973266601562

> <r_mmod_Solvation_Energy-OPLS-2005>
-227.432510375977

> <b_mmod_Minimization_Converged-OPLS-2005>
0

> <r_mmod_RMS_Derivative-OPLS-2005>
5.62550830841064

$$$$
49
                    3D
 Structure written by MMmdl.
157165  0  0  1  0            999 V2000
  -30.6106  -14.8296   20.3799 C   0  0  0  0  0  0
  -30.4520  -12.4891   19.4863 C   0  0  0  0  0  0
  -29.5262  -12.3987   18.2529 C   0  0  0  0  0  0
  -28.0470  -12.2621   18.6726 C   0  0  0  0  0  0
  -27.6331  -13.2010   19.8370 C   0  0  2  0  0  0
  -28.6905  -13.2481   20.9617 C   0  0  0  0  0  0
  -25.2565  -13.8111   20.5754 C   0  0  0  0  0  0
  -24.1811  -13.0419   20.9231 C   0  0  0  0  0  0
  -24.6360  -11.6878   20.8809 C   0  0  0  0  0  0
  -23.9033  -10.4281   21.0465 C   0  0  0  0  0  0
  -24.3576   -9.4187   21.9233 C   0  0  0  0  0  0
  -23.6254   -8.2225   22.0786 C   0  0  0  0  0  0
  -22.4246   -8.0277   21.3558 C   0  0  0  0  0  0
  -21.9887   -9.0270   20.4674 C   0  0  0  0  0  0
  -22.7219  -10.2141   20.3101 C   0  0  0  0  0  0
  -21.6839   -6.0736   22.5284 C   0  0  0  0  0  0
  -21.4006   -6.5639   23.8221 C   0  0  0  0  0  0
  -21.3663   -5.6790   24.9184 C   0  0  0  0  0  0
  -21.6044   -4.3054   24.7230 C   0  0  0  0  0  0
  -21.8807   -3.8150   23.4353 C   0  0  0  0  0  0
  -21.9180   -4.6964   22.3410 C   0  0  0  0  0  0
  -22.7840  -13.5259   21.1840 C   0  0  0  0  0  0
  -22.1643   -4.2150   21.0986 F   0  0  0  0  0  0
  -21.5632   -3.4537   25.7745 F   0  0  0  0  0  0
  -29.9728  -13.6017   20.3405 N   0  0  0  0  0  0
  -26.2927  -12.9229   20.3322 N   0  0  0  0  0  0
  -25.9277  -11.6421   20.5832 N   0  0  0  0  0  0
  -22.0422  -12.8318   22.0385 N   0  0  0  0  0  0
  -25.4365  -15.1834   20.4202 N   0  0  0  0  0  0
  -31.8344  -14.8590   20.2224 O   0  0  0  0  0  0
  -21.6616   -6.8875   21.4249 O   0  0  0  0  0  0
  -22.3588  -14.5586   20.6675 O   0  0  0  0  0  0
  -24.6286  -31.8547   23.1986 C   0  0  0  0  0  0
  -25.9131  -32.4735   23.8323 C   0  0  1  0  0  0
  -27.2290  -27.2693   20.1332 C   0  0  0  0  0  0
  -25.5956  -33.8544   24.2267 N   0  0  0  0  0  0
  -23.4258  -30.4752   21.5397 C   0  0  2  0  0  0
  -24.8749  -28.9189   20.1090 C   0  0  0  0  0  0
  -22.7492  -29.4579   22.4900 C   0  0  0  0  0  0
  -18.0282  -28.1385   22.8482 C   0  0  0  0  0  0
  -24.1490  -36.7280   23.2638 C   0  0  0  0  0  0
  -25.9671  -30.7734   21.3726 C   0  0  0  0  0  0
  -26.0413  -29.3932   20.7194 C   0  0  0  0  0  0
  -27.2154  -28.5783   20.7226 C   0  0  0  0  0  0
  -26.0404  -26.8555   19.4910 C   0  0  0  0  0  0
  -24.8785  -27.6590   19.4843 C   0  0  0  0  0  0
  -23.6464  -29.8099   20.1540 C   0  0  0  0  0  0
  -25.4112  -36.3052   24.0324 C   0  0  1  0  0  0
  -20.5883  -28.3688   23.1290 C   0  0  2  0  0  0
  -20.6762  -26.9409   22.5414 C   0  0  0  0  0  0
  -19.5732  -26.6385   21.5214 C   0  0  0  0  0  0
  -18.1918  -26.7931   22.1629 C   0  0  0  0  0  0
  -19.1534  -28.8853   23.2881 C   0  0  0  0  0  0
  -18.9460  -30.1455   23.8895 C   0  0  0  0  0  0
  -17.6464  -30.6587   24.0570 C   0  0  0  0  0  0
  -25.9049  -34.9429   23.5088 C   0  0  0  0  0  0
  -16.5354  -29.9093   23.6326 C   0  0  0  0  0  0
  -16.7273  -28.6510   23.0342 C   0  0  0  0  0  0
  -26.4544  -31.6535   25.0692 C   0  0  0  0  0  0
  -25.3795  -31.3655   26.1429 C   0  0  0  0  0  0
  -27.0372  -30.2951   24.6130 C   0  0  0  0  0  0
  -27.6090  -32.4278   25.7478 C   0  0  0  0  0  0
  -27.5572  -37.1797   24.8471 C   0  0  0  0  0  0
  -21.4193  -29.3047   22.3685 N   0  0  0  0  0  0
  -26.4278  -37.3756   23.9425 N   0  0  0  0  0  0
  -24.6929  -31.0529   22.0940 N   0  0  0  0  0  0
  -23.4209  -28.8107   23.2983 O   0  0  0  0  0  0
  -28.3516  -26.4192   20.2469 O   0  0  0  0  0  0
  -26.5607  -34.8907   22.4648 O   0  0  0  0  0  0
  -23.5449  -32.1365   23.7300 O   0  0  0  0  0  0
  -30.6842  -20.1221   21.5425 C   0  0  0  0  0  0
  -29.2347  -18.5390   20.4222 C   0  0  0  0  0  0
  -31.2477  -17.7134   21.4834 C   0  0  0  0  0  0
  -29.5004  -19.9149   20.8074 C   0  0  0  0  0  0
  -31.5424  -19.0443   21.8800 C   0  0  0  0  0  0
  -30.1026  -17.3991   20.7150 C   0  0  0  0  0  0
  -28.2051  -23.7351   20.4470 C   0  0  0  0  0  0
  -29.1288  -16.0802   18.9154 C   0  0  0  0  0  0
  -28.4897  -21.1251   20.5561 C   0  0  0  0  0  0
  -28.4975  -25.0699   19.6047 C   0  0  0  0  0  0
  -32.7995  -19.3109   22.6967 C   0  0  0  0  0  0
  -28.9154  -22.5578   20.2340 N   0  0  0  0  0  0
  -29.8605  -16.0129   20.1895 N   0  0  0  0  0  0
  -27.2624  -23.7440   21.2412 O   0  0  0  0  0  0
  -33.7920  -18.5060   22.3156 F   0  0  0  0  0  0
  -33.2138  -20.5711   22.5598 F   0  0  0  0  0  0
  -32.5402  -19.0871   23.9847 F   0  0  0  0  0  0
  -31.4841  -12.6355   19.1616 H   0  0  0  0  0  0
  -30.4480  -11.5538   20.0485 H   0  0  0  0  0  0
  -29.8128  -11.5334   17.6530 H   0  0  0  0  0  0
  -29.6714  -13.2529   17.5958 H   0  0  0  0  0  0
  -27.9071  -11.2260   18.9805 H   0  0  0  0  0  0
  -27.3946  -12.4110   17.8111 H   0  0  0  0  0  0
  -27.5636  -14.1804   19.3885 H   0  0  0  0  0  0
  -28.7626  -12.2919   21.4823 H   0  0  0  0  0  0
  -28.4168  -13.9945   21.7100 H   0  0  0  0  0  0
  -25.2709   -9.5658   22.4823 H   0  0  0  0  0  0
  -23.9951   -7.4622   22.7511 H   0  0  0  0  0  0
  -21.0822   -8.8813   19.8981 H   0  0  0  0  0  0
  -22.3701  -10.9700   19.6217 H   0  0  0  0  0  0
  -21.1992   -7.6143   23.9724 H   0  0  0  0  0  0
  -21.1499   -6.0523   25.9085 H   0  0  0  0  0  0
  -22.0578   -2.7612   23.2853 H   0  0  0  0  0  0
  -22.3931  -11.9938   22.4785 H   0  0  0  0  0  0
  -21.1079  -13.1466   22.2582 H   0  0  0  0  0  0
  -24.6858  -15.8521   20.5529 H   0  0  0  0  0  0
  -26.3083  -15.6164   20.1459 H   0  0  0  0  0  0
  -26.7183  -32.5409   23.1048 H   0  0  0  0  0  0
  -25.0177  -33.9693   25.0463 H   0  0  0  0  0  0
  -22.7199  -31.2950   21.3940 H   0  0  0  0  0  0
  -23.3740  -35.9621   23.3296 H   0  0  0  0  0  0
  -24.3573  -36.8910   22.2051 H   0  0  0  0  0  0
  -23.7257  -37.6485   23.6671 H   0  0  0  0  0  0
  -26.0958  -31.5334   20.6007 H   0  0  0  0  0  0
  -26.8491  -30.8311   21.9977 H   0  0  0  0  0  0
  -28.1100  -28.9384   21.2130 H   0  0  0  0  0  0
  -25.9750  -25.8872   19.0197 H   0  0  0  0  0  0
  -23.9830  -27.2904   19.0037 H   0  0  0  0  0  0
  -23.7845  -30.5921   19.4062 H   0  0  0  0  0  0
  -22.7618  -29.2546   19.8366 H   0  0  0  0  0  0
  -25.1285  -36.1882   25.0810 H   0  0  0  0  0  0
  -20.9977  -28.3262   24.1413 H   0  0  0  0  0  0
  -20.5650  -26.2302   23.3614 H   0  0  0  0  0  0
  -21.6632  -26.7421   22.1217 H   0  0  0  0  0  0
  -19.6901  -25.6294   21.1247 H   0  0  0  0  0  0
  -19.6676  -27.3191   20.6739 H   0  0  0  0  0  0
  -17.4194  -26.6682   21.4034 H   0  0  0  0  0  0
  -18.0319  -26.0072   22.9019 H   0  0  0  0  0  0
  -19.7934  -30.7271   24.2274 H   0  0  0  0  0  0
  -17.5014  -31.6261   24.5175 H   0  0  0  0  0  0
  -15.5350  -30.3002   23.7635 H   0  0  0  0  0  0
  -15.8670  -28.0831   22.7055 H   0  0  0  0  0  0
  -24.5976  -30.6984   25.7794 H   0  0  0  0  0  0
  -24.8982  -32.2811   26.4872 H   0  0  0  0  0  0
  -25.8152  -30.8855   27.0198 H   0  0  0  0  0  0
  -26.2919  -29.6697   24.1195 H   0  0  0  0  0  0
  -27.4113  -29.7202   25.4615 H   0  0  0  0  0  0
  -27.8788  -30.4236   23.9313 H   0  0  0  0  0  0
  -27.2672  -33.3567   26.2057 H   0  0  0  0  0  0
  -28.3910  -32.6854   25.0325 H   0  0  0  0  0  0
  -28.0740  -31.8405   26.5398 H   0  0  0  0  0  0
  -28.2575  -38.0102   24.7490 H   0  0  0  0  0  0
  -28.1071  -36.2627   24.6311 H   0  0  0  0  0  0
  -27.2298  -37.1472   25.8874 H   0  0  0  0  0  0
  -20.9361  -29.8828   21.6944 H   0  0  0  0  0  0
  -26.0141  -38.2819   24.1440 H   0  0  0  0  0  0
  -30.9237  -21.1179   21.8878 H   0  0  0  0  0  0
  -28.3164  -18.3650   19.8809 H   0  0  0  0  0  0
  -31.9502  -16.9411   21.7586 H   0  0  0  0  0  0
  -29.5091  -16.8984   18.3011 H   0  0  0  0  0  0
  -29.2275  -15.1989   18.2908 H   0  0  0  0  0  0
  -28.0682  -16.2651   19.0818 H   0  0  0  0  0  0
  -27.8506  -21.1641   21.4400 H   0  0  0  0  0  0
  -27.8289  -20.8169   19.7463 H   0  0  0  0  0  0
  -29.5393  -25.0043   19.2910 H   0  0  0  0  0  0
  -27.9327  -25.0249   18.6751 H   0  0  0  0  0  0
  -29.7105  -22.6394   19.6157 H   0  0  0  0  0  0
  1 25  1  0  0  0
  1 30  2  0  0  0
  1 83  1  0  0  0
  2  3  1  0  0  0
  2 25  1  0  0  0
  2 88  1  0  0  0
  2 89  1  0  0  0
  3  4  1  0  0  0
  3 90  1  0  0  0
  3 91  1  0  0  0
  4  5  1  0  0  0
  4 92  1  0  0  0
  4 93  1  0  0  0
  5  6  1  0  0  0
  5 26  1  0  0  0
  5 94  1  0  0  0
  6 25  1  0  0  0
  6 95  1  0  0  0
  6 96  1  0  0  0
  7  8  2  0  0  0
  7 26  1  0  0  0
  7 29  1  0  0  0
  8  9  1  0  0  0
  8 22  1  0  0  0
  9 10  1  0  0  0
  9 27  2  0  0  0
 10 11  2  0  0  0
 10 15  1  0  0  0
 11 12  1  0  0  0
 11 97  1  0  0  0
 12 13  2  0  0  0
 12 98  1  0  0  0
 13 14  1  0  0  0
 13 31  1  0  0  0
 14 15  2  0  0  0
 14 99  1  0  0  0
 15100  1  0  0  0
 16 17  2  0  0  0
 16 21  1  0  0  0
 16 31  1  0  0  0
 17 18  1  0  0  0
 17101  1  0  0  0
 18 19  2  0  0  0
 18102  1  0  0  0
 19 20  1  0  0  0
 19 24  1  0  0  0
 20 21  2  0  0  0
 20103  1  0  0  0
 21 23  1  0  0  0
 22 28  1  0  0  0
 22 32  2  0  0  0
 26 27  1  0  0  0
 28104  1  0  0  0
 28105  1  0  0  0
 29106  1  0  0  0
 29107  1  0  0  0
 33 34  1  0  0  0
 33 66  1  0  0  0
 33 70  2  0  0  0
 34 36  1  0  0  0
 34 59  1  0  0  0
 34108  1  0  0  0
 35 44  2  0  0  0
 35 45  1  0  0  0
 35 68  1  0  0  0
 36 56  1  0  0  0
 36109  1  0  0  0
 37 39  1  0  0  0
 37 47  1  0  0  0
 37 66  1  0  0  0
 37110  1  0  0  0
 38 43  2  0  0  0
 38 46  1  0  0  0
 38 47  1  0  0  0
 39 64  1  0  0  0
 39 67  2  0  0  0
 40 52  1  0  0  0
 40 53  2  0  0  0
 40 58  1  0  0  0
 41111  1  0  0  0
 41112  1  0  0  0
 41113  1  0  0  0
 41 48  1  0  0  0
 42 43  1  0  0  0
 42 66  1  0  0  0
 42114  1  0  0  0
 42115  1  0  0  0
 43 44  1  0  0  0
 44116  1  0  0  0
 45 46  2  0  0  0
 45117  1  0  0  0
 46118  1  0  0  0
 47119  1  0  0  0
 47120  1  0  0  0
 48 56  1  0  0  0
 48 65  1  0  0  0
 48121  1  0  0  0
 49 50  1  0  0  0
 49 53  1  0  0  0
 49 64  1  0  0  0
 49122  1  0  0  0
 50 51  1  0  0  0
 50123  1  0  0  0
 50124  1  0  0  0
 51 52  1  0  0  0
 51125  1  0  0  0
 51126  1  0  0  0
 52127  1  0  0  0
 52128  1  0  0  0
 53 54  1  0  0  0
 54 55  2  0  0  0
 54129  1  0  0  0
 55 57  1  0  0  0
 55130  1  0  0  0
 56 69  2  0  0  0
 57 58  2  0  0  0
 57131  1  0  0  0
 58132  1  0  0  0
 59 60  1  0  0  0
 59 61  1  0  0  0
 59 62  1  0  0  0
 60133  1  0  0  0
 60134  1  0  0  0
 60135  1  0  0  0
 61136  1  0  0  0
 61137  1  0  0  0
 61138  1  0  0  0
 62139  1  0  0  0
 62140  1  0  0  0
 62141  1  0  0  0
 63 65  1  0  0  0
 63142  1  0  0  0
 63143  1  0  0  0
 63144  1  0  0  0
 64145  1  0  0  0
 65146  1  0  0  0
 68 80  1  0  0  0
 71 74  2  0  0  0
 71 75  1  0  0  0
 71147  1  0  0  0
 72 74  1  0  0  0
 72 76  2  0  0  0
 72148  1  0  0  0
 73 75  2  0  0  0
 73 76  1  0  0  0
 73149  1  0  0  0
 74 79  1  0  0  0
 75 81  1  0  0  0
 76 83  1  0  0  0
 77 80  1  0  0  0
 77 82  1  0  0  0
 77 84  2  0  0  0
 78 83  1  0  0  0
 78150  1  0  0  0
 78151  1  0  0  0
 78152  1  0  0  0
 79 82  1  0  0  0
 79153  1  0  0  0
 79154  1  0  0  0
 80155  1  0  0  0
 80156  1  0  0  0
 81 85  1  0  0  0
 81 86  1  0  0  0
 81 87  1  0  0  0
 82157  1  0  0  0
M  ISO  4   1 100  68 101  80 101  83 100
M  END
> <chiral flag>
0

> <version>
0

> <s_m_source_file>
/data/baiqing/PycharmProjects/Reinvent-master-3.2/result/LINK_invent/BTK/process_docking_weight1_custom_sum_contain_oxygen_bond_distance_aromatic_linkinvent_7_9_3/rearranged_h_0004.sdf

> <i_m_source_file_index>
50

> <r_mmod_Potential_Energy-OPLS-2005>
332.702972412109

> <r_mmod_Stretch_Energy-OPLS-2005>
132.832183837891

> <r_mmod_Bend_Energy-OPLS-2005>
189.018264770508

> <r_mmod_Torsional_Energy-OPLS-2005>
289.667938232422

> <r_mmod_Improper_Torsional_Energy-OPLS-2005>
14.6023283004761

> <r_mmod_Van_der_Waal_Energy-OPLS-2005>
148.558868408203

> <r_mmod_Electrostatic_Energy-OPLS-2005>
-325.624755859375

> <r_mmod_Solvation_Energy-OPLS-2005>
-230.537536621094

> <b_mmod_Minimization_Converged-OPLS-2005>
0

> <r_mmod_RMS_Derivative-OPLS-2005>
2.52409362792969

$$$$
50
                    3D
 Structure written by MMmdl.
151159  0  0  1  0            999 V2000
  -30.5668  -14.9484   20.4296 C   0  0  0  0  0  0
  -30.4526  -12.5880   19.4970 C   0  0  0  0  0  0
  -29.5243  -12.5417   18.2594 C   0  0  0  0  0  0
  -28.0570  -12.3254   18.6776 C   0  0  0  0  0  0
  -27.6308  -13.2481   19.8492 C   0  0  2  0  0  0
  -28.6876  -13.2696   20.9812 C   0  0  0  0  0  0
  -25.2149  -13.7842   20.5529 C   0  0  0  0  0  0
  -24.1617  -13.0115   20.9278 C   0  0  0  0  0  0
  -24.6399  -11.6704   20.8841 C   0  0  0  0  0  0
  -23.9101  -10.4122   21.0444 C   0  0  0  0  0  0
  -24.3630   -9.4057   21.9229 C   0  0  0  0  0  0
  -23.6267   -8.2127   22.0778 C   0  0  0  0  0  0
  -22.4252   -8.0213   21.3550 C   0  0  0  0  0  0
  -21.9910   -9.0190   20.4649 C   0  0  0  0  0  0
  -22.7280  -10.2032   20.3067 C   0  0  0  0  0  0
  -21.6820   -6.0705   22.5285 C   0  0  0  0  0  0
  -21.3991   -6.5619   23.8216 C   0  0  0  0  0  0
  -21.3652   -5.6779   24.9182 C   0  0  0  0  0  0
  -21.6045   -4.3042   24.7235 C   0  0  0  0  0  0
  -21.8820   -3.8129   23.4357 C   0  0  0  0  0  0
  -21.9182   -4.6940   22.3410 C   0  0  0  0  0  0
  -22.7647  -13.4942   21.1913 C   0  0  0  0  0  0
  -22.1657   -4.2130   21.0987 F   0  0  0  0  0  0
  -21.5634   -3.4530   25.7750 F   0  0  0  0  0  0
  -29.9764  -13.6810   20.3914 N   0  0  0  0  0  0
  -26.2852  -12.9329   20.3318 N   0  0  0  0  0  0
  -25.9376  -11.6447   20.5890 N   0  0  0  0  0  0
  -22.0319  -12.8002   22.0531 N   0  0  0  0  0  0
  -25.2998  -15.1399   20.3453 N   0  0  0  0  0  0
  -31.7559  -15.0431   20.1123 O   0  0  0  0  0  0
  -21.6590   -6.8838   21.4246 O   0  0  0  0  0  0
  -22.3336  -14.5261   20.6758 O   0  0  0  0  0  0
  -24.6401  -31.8463   23.1896 C   0  0  0  0  0  0
  -25.9182  -32.4710   23.8282 C   0  0  1  0  0  0
  -27.2481  -27.1804   20.1443 C   0  0  0  0  0  0
  -25.5940  -33.8514   24.2201 N   0  0  0  0  0  0
  -23.4440  -30.4632   21.5340 C   0  0  2  0  0  0
  -24.8996  -28.8931   20.1131 C   0  0  0  0  0  0
  -22.7556  -29.4552   22.4874 C   0  0  0  0  0  0
  -18.0302  -28.1394   22.8477 C   0  0  0  0  0  0
  -24.1491  -36.7265   23.2643 C   0  0  0  0  0  0
  -25.9964  -30.7338   21.3827 C   0  0  0  0  0  0
  -26.0739  -29.3476   20.7258 C   0  0  0  0  0  0
  -27.2464  -28.5080   20.7238 C   0  0  0  0  0  0
  -26.0416  -26.8134   19.5025 C   0  0  0  0  0  0
  -24.8939  -27.6367   19.4879 C   0  0  0  0  0  0
  -23.6708  -29.7880   20.1549 C   0  0  0  0  0  0
  -25.4122  -36.3042   24.0317 C   0  0  1  0  0  0
  -20.5912  -28.3716   23.1245 C   0  0  2  0  0  0
  -20.6787  -26.9423   22.5406 C   0  0  0  0  0  0
  -19.5762  -26.6382   21.5212 C   0  0  0  0  0  0
  -18.1943  -26.7933   22.1623 C   0  0  0  0  0  0
  -19.1558  -28.8874   23.2853 C   0  0  0  0  0  0
  -18.9475  -30.1470   23.8877 C   0  0  0  0  0  0
  -17.6472  -30.6591   24.0560 C   0  0  0  0  0  0
  -25.9068  -34.9415   23.5068 C   0  0  0  0  0  0
  -16.5364  -29.9084   23.6335 C   0  0  0  0  0  0
  -16.7287  -28.6504   23.0354 C   0  0  0  0  0  0
  -26.4518  -31.6569   25.0712 C   0  0  0  0  0  0
  -25.3712  -31.3745   26.1412 C   0  0  0  0  0  0
  -27.0385  -30.2972   24.6268 C   0  0  0  0  0  0
  -27.6050  -32.4332   25.7498 C   0  0  0  0  0  0
  -27.5576  -37.1789   24.8465 C   0  0  0  0  0  0
  -21.4251  -29.3044   22.3621 N   0  0  0  0  0  0
  -26.4288  -37.3751   23.9406 N   0  0  0  0  0  0
  -24.7127  -31.0346   22.0913 N   0  0  0  0  0  0
  -23.4207  -28.8105   23.3023 O   0  0  0  0  0  0
  -28.3380  -26.2425   20.2070 O   0  0  0  0  0  0
  -26.5655  -34.8908   22.4647 O   0  0  0  0  0  0
  -23.5526  -32.1321   23.7134 O   0  0  0  0  0  0
  -30.7151  -18.6328   20.4241 C   0  0  0  0  0  0
  -30.4588  -20.0840   20.3451 C   0  0  0  0  0  0
  -28.1575  -19.6689   20.4726 C   0  0  0  0  0  0
  -28.3937  -18.2540   20.5633 C   0  0  0  0  0  0
  -29.6854  -17.6192   20.5365 C   0  0  0  0  0  0
  -29.1408  -20.6779   20.3591 C   0  0  0  0  0  0
  -28.1100  -24.7226   20.0536 C   0  0  0  0  0  0
  -29.1676  -23.4436   20.3089 C   0  0  0  0  0  0
  -27.1676  -17.3841   20.6187 C   0  0  0  0  0  0
  -29.7455  -16.0763   20.6688 N   0  0  0  0  0  0
  -28.6057  -22.0314   20.2331 O   0  0  0  0  0  0
  -26.0185  -18.0545   20.7283 F   0  0  0  0  0  0
  -27.1661  -16.7161   19.4644 F   0  0  0  0  0  0
  -27.2669  -16.5436   21.6507 F   0  0  0  0  0  0
  -31.4848  -12.7456   19.1805 H   0  0  0  0  0  0
  -30.4461  -11.6321   20.0232 H   0  0  0  0  0  0
  -29.8394  -11.7500   17.5784 H   0  0  0  0  0  0
  -29.6113  -13.4764   17.7032 H   0  0  0  0  0  0
  -27.9523  -11.2820   18.9771 H   0  0  0  0  0  0
  -27.3936  -12.4650   17.8233 H   0  0  0  0  0  0
  -27.5870  -14.2519   19.4302 H   0  0  0  0  0  0
  -28.7721  -12.2893   21.4524 H   0  0  0  0  0  0
  -28.3877  -13.9601   21.7708 H   0  0  0  0  0  0
  -25.2765   -9.5519   22.4822 H   0  0  0  0  0  0
  -23.9942   -7.4506   22.7500 H   0  0  0  0  0  0
  -21.0840   -8.8735   19.8950 H   0  0  0  0  0  0
  -22.3776  -10.9591   19.6179 H   0  0  0  0  0  0
  -21.1978   -7.6127   23.9714 H   0  0  0  0  0  0
  -21.1477   -6.0511   25.9085 H   0  0  0  0  0  0
  -22.0610   -2.7592   23.2864 H   0  0  0  0  0  0
  -22.3943  -11.9681   22.4942 H   0  0  0  0  0  0
  -21.0954  -13.1061   22.2762 H   0  0  0  0  0  0
  -24.4933  -15.7446   20.4414 H   0  0  0  0  0  0
  -26.0950  -15.6055   19.9232 H   0  0  0  0  0  0
  -26.7251  -32.5337   23.1020 H   0  0  0  0  0  0
  -25.0064  -33.9634   25.0333 H   0  0  0  0  0  0
  -22.7448  -31.2873   21.3779 H   0  0  0  0  0  0
  -23.3754  -35.9596   23.3296 H   0  0  0  0  0  0
  -24.3576  -36.8905   22.2059 H   0  0  0  0  0  0
  -23.7246  -37.6459   23.6684 H   0  0  0  0  0  0
  -26.1454  -31.4898   20.6106 H   0  0  0  0  0  0
  -26.8685  -30.7862   22.0228 H   0  0  0  0  0  0
  -28.1422  -28.8560   21.2188 H   0  0  0  0  0  0
  -25.9540  -25.8532   19.0176 H   0  0  0  0  0  0
  -23.9969  -27.2811   18.9996 H   0  0  0  0  0  0
  -23.8020  -30.5603   19.3962 H   0  0  0  0  0  0
  -22.7885  -29.2237   19.8475 H   0  0  0  0  0  0
  -25.1310  -36.1873   25.0810 H   0  0  0  0  0  0
  -21.0001  -28.3303   24.1367 H   0  0  0  0  0  0
  -20.5682  -26.2329   23.3622 H   0  0  0  0  0  0
  -21.6654  -26.7432   22.1205 H   0  0  0  0  0  0
  -19.6924  -25.6287   21.1255 H   0  0  0  0  0  0
  -19.6700  -27.3181   20.6733 H   0  0  0  0  0  0
  -17.4212  -26.6675   21.4027 H   0  0  0  0  0  0
  -18.0344  -26.0081   22.9025 H   0  0  0  0  0  0
  -19.7951  -30.7291   24.2238 H   0  0  0  0  0  0
  -17.5026  -31.6270   24.5165 H   0  0  0  0  0  0
  -15.5363  -30.2980   23.7671 H   0  0  0  0  0  0
  -15.8687  -28.0816   22.7080 H   0  0  0  0  0  0
  -24.5893  -30.7092   25.7731 H   0  0  0  0  0  0
  -24.8899  -32.2924   26.4798 H   0  0  0  0  0  0
  -25.8002  -30.8942   27.0215 H   0  0  0  0  0  0
  -26.2997  -29.6696   24.1272 H   0  0  0  0  0  0
  -27.4011  -29.7267   25.4829 H   0  0  0  0  0  0
  -27.8896  -30.4222   23.9571 H   0  0  0  0  0  0
  -27.2641  -33.3646   26.2031 H   0  0  0  0  0  0
  -28.3884  -32.6871   25.0345 H   0  0  0  0  0  0
  -28.0691  -31.8488   26.5452 H   0  0  0  0  0  0
  -28.2588  -38.0090   24.7507 H   0  0  0  0  0  0
  -28.1076  -36.2619   24.6297 H   0  0  0  0  0  0
  -27.2292  -37.1443   25.8867 H   0  0  0  0  0  0
  -20.9462  -29.8751   21.6794 H   0  0  0  0  0  0
  -26.0157  -38.2820   24.1405 H   0  0  0  0  0  0
  -31.7443  -18.3039   20.4015 H   0  0  0  0  0  0
  -31.3105  -20.7434   20.2537 H   0  0  0  0  0  0
  -27.1358  -20.0164   20.4750 H   0  0  0  0  0  0
  -27.2479  -24.5071   20.6858 H   0  0  0  0  0  0
  -27.7537  -24.5843   19.0331 H   0  0  0  0  0  0
  -29.6124  -23.5576   21.2976 H   0  0  0  0  0  0
  -29.9916  -23.5173   19.5991 H   0  0  0  0  0  0
  -28.8336  -15.7212   20.9216 H   0  0  0  0  0  0
  1 25  1  0  0  0
  1 30  2  0  0  0
  1 80  1  0  0  0
  2  3  1  0  0  0
  2 25  1  0  0  0
  2 85  1  0  0  0
  2 86  1  0  0  0
  3  4  1  0  0  0
  3 87  1  0  0  0
  3 88  1  0  0  0
  4  5  1  0  0  0
  4 89  1  0  0  0
  4 90  1  0  0  0
  5  6  1  0  0  0
  5 26  1  0  0  0
  5 91  1  0  0  0
  6 25  1  0  0  0
  6 92  1  0  0  0
  6 93  1  0  0  0
  7  8  2  0  0  0
  7 26  1  0  0  0
  7 29  1  0  0  0
  8  9  1  0  0  0
  8 22  1  0  0  0
  9 10  1  0  0  0
  9 27  2  0  0  0
 10 11  2  0  0  0
 10 15  1  0  0  0
 11 12  1  0  0  0
 11 94  1  0  0  0
 12 13  2  0  0  0
 12 95  1  0  0  0
 13 14  1  0  0  0
 13 31  1  0  0  0
 14 15  2  0  0  0
 14 96  1  0  0  0
 15 97  1  0  0  0
 16 17  2  0  0  0
 16 21  1  0  0  0
 16 31  1  0  0  0
 17 18  1  0  0  0
 17 98  1  0  0  0
 18 19  2  0  0  0
 18 99  1  0  0  0
 19 20  1  0  0  0
 19 24  1  0  0  0
 20 21  2  0  0  0
 20100  1  0  0  0
 21 23  1  0  0  0
 22 28  1  0  0  0
 22 32  2  0  0  0
 26 27  1  0  0  0
 28101  1  0  0  0
 28102  1  0  0  0
 29103  1  0  0  0
 29104  1  0  0  0
 33 34  1  0  0  0
 33 66  1  0  0  0
 33 70  2  0  0  0
 34 36  1  0  0  0
 34 59  1  0  0  0
 34105  1  0  0  0
 35 44  2  0  0  0
 35 45  1  0  0  0
 35 68  1  0  0  0
 36 56  1  0  0  0
 36106  1  0  0  0
 37 39  1  0  0  0
 37 47  1  0  0  0
 37 66  1  0  0  0
 37107  1  0  0  0
 38 43  2  0  0  0
 38 46  1  0  0  0
 38 47  1  0  0  0
 39 64  1  0  0  0
 39 67  2  0  0  0
 40 52  1  0  0  0
 40 53  2  0  0  0
 40 58  1  0  0  0
 41108  1  0  0  0
 41109  1  0  0  0
 41110  1  0  0  0
 41 48  1  0  0  0
 42 43  1  0  0  0
 42 66  1  0  0  0
 42111  1  0  0  0
 42112  1  0  0  0
 43 44  1  0  0  0
 44113  1  0  0  0
 45 46  2  0  0  0
 45114  1  0  0  0
 46115  1  0  0  0
 47116  1  0  0  0
 47117  1  0  0  0
 48 56  1  0  0  0
 48 65  1  0  0  0
 48118  1  0  0  0
 49 50  1  0  0  0
 49 53  1  0  0  0
 49 64  1  0  0  0
 49119  1  0  0  0
 50 51  1  0  0  0
 50120  1  0  0  0
 50121  1  0  0  0
 51 52  1  0  0  0
 51122  1  0  0  0
 51123  1  0  0  0
 52124  1  0  0  0
 52125  1  0  0  0
 53 54  1  0  0  0
 54 55  2  0  0  0
 54126  1  0  0  0
 55 57  1  0  0  0
 55127  1  0  0  0
 56 69  2  0  0  0
 57 58  2  0  0  0
 57128  1  0  0  0
 58129  1  0  0  0
 59 60  1  0  0  0
 59 61  1  0  0  0
 59 62  1  0  0  0
 60130  1  0  0  0
 60131  1  0  0  0
 60132  1  0  0  0
 61133  1  0  0  0
 61134  1  0  0  0
 61135  1  0  0  0
 62136  1  0  0  0
 62137  1  0  0  0
 62138  1  0  0  0
 63 65  1  0  0  0
 63139  1  0  0  0
 63140  1  0  0  0
 63141  1  0  0  0
 64142  1  0  0  0
 65143  1  0  0  0
 68 77  1  0  0  0
 71 72  2  0  0  0
 71 75  1  0  0  0
 71144  1  0  0  0
 72 76  1  0  0  0
 72145  1  0  0  0
 73 74  1  0  0  0
 73 76  2  0  0  0
 73146  1  0  0  0
 74 75  2  0  0  0
 74 79  1  0  0  0
 75 80  1  0  0  0
 76 81  1  0  0  0
 77 78  1  0  0  0
 77147  1  0  0  0
 77148  1  0  0  0
 78 81  1  0  0  0
 78149  1  0  0  0
 78150  1  0  0  0
 79 82  1  0  0  0
 79 83  1  0  0  0
 79 84  1  0  0  0
 80151  1  0  0  0
M  ISO  4   1 100  68 101  77 101  80 100
M  END
> <chiral flag>
0

> <version>
0

> <s_m_source_file>
/data/baiqing/PycharmProjects/Reinvent-master-3.2/result/LINK_invent/BTK/process_docking_weight1_custom_sum_contain_oxygen_bond_distance_aromatic_linkinvent_7_9_3/rearranged_h_0004.sdf

> <i_m_source_file_index>
51

> <r_mmod_Potential_Energy-OPLS-2005>
538.246337890625

> <r_mmod_Stretch_Energy-OPLS-2005>
216.128479003906

> <r_mmod_Bend_Energy-OPLS-2005>
325.98876953125

> <r_mmod_Torsional_Energy-OPLS-2005>
211.893157958984

> <r_mmod_Improper_Torsional_Energy-OPLS-2005>
4.37540292739868

> <r_mmod_Van_der_Waal_Energy-OPLS-2005>
155.447189331055

> <r_mmod_Electrostatic_Energy-OPLS-2005>
-352.946258544922

> <r_mmod_Solvation_Energy-OPLS-2005>
-196.763809204102

> <b_mmod_Minimization_Converged-OPLS-2005>
0

> <r_mmod_RMS_Derivative-OPLS-2005>
0.219836577773094

$$$$
51
                    3D
 Structure written by MMmdl.
176184  0  0  1  0            999 V2000
  -30.7249  -14.3657   20.6030 C   0  0  0  0  0  0
  -30.4285  -12.2484   19.4049 C   0  0  0  0  0  0
  -29.4924  -12.4841   18.2011 C   0  0  0  0  0  0
  -28.0148  -12.3662   18.6195 C   0  0  0  0  0  0
  -27.6741  -13.1893   19.8905 C   0  0  2  0  0  0
  -28.7134  -12.9093   21.0011 C   0  0  0  0  0  0
  -25.2661  -13.8129   20.5672 C   0  0  0  0  0  0
  -24.1872  -13.0445   20.9153 C   0  0  0  0  0  0
  -24.6392  -11.6899   20.8714 C   0  0  0  0  0  0
  -23.9026  -10.4294   21.0378 C   0  0  0  0  0  0
  -24.3584   -9.4221   21.9177 C   0  0  0  0  0  0
  -23.6282   -8.2244   22.0752 C   0  0  0  0  0  0
  -22.4258   -8.0267   21.3536 C   0  0  0  0  0  0
  -21.9874   -9.0248   20.4645 C   0  0  0  0  0  0
  -22.7188  -10.2135   20.3049 C   0  0  0  0  0  0
  -21.6874   -6.0709   22.5270 C   0  0  0  0  0  0
  -21.4025   -6.5622   23.8191 C   0  0  0  0  0  0
  -21.3644   -5.6778   24.9151 C   0  0  0  0  0  0
  -21.6043   -4.3044   24.7220 C   0  0  0  0  0  0
  -21.8832   -3.8133   23.4348 C   0  0  0  0  0  0
  -21.9208   -4.6941   22.3394 C   0  0  0  0  0  0
  -22.7885  -13.5250   21.1828 C   0  0  0  0  0  0
  -22.1672   -4.2123   21.0974 F   0  0  0  0  0  0
  -21.5624   -3.4532   25.7739 F   0  0  0  0  0  0
  -30.0567  -13.1970   20.4622 N   0  0  0  0  0  0
  -26.3097  -12.9270   20.3453 N   0  0  0  0  0  0
  -25.9319  -11.6440   20.5781 N   0  0  0  0  0  0
  -22.0538  -12.8238   22.0366 N   0  0  0  0  0  0
  -25.4450  -15.1844   20.4078 N   0  0  0  0  0  0
  -31.8241  -14.6029   20.0923 O   0  0  0  0  0  0
  -21.6649   -6.8854   21.4218 O   0  0  0  0  0  0
  -22.3546  -14.5563   20.6690 O   0  0  0  0  0  0
  -24.6049  -31.8756   23.2162 C   0  0  0  0  0  0
  -25.8970  -32.4890   23.8449 C   0  0  1  0  0  0
  -27.2214  -27.4783   20.0885 C   0  0  0  0  0  0
  -25.5814  -33.8687   24.2345 N   0  0  0  0  0  0
  -23.3932  -30.5062   21.5508 C   0  0  2  0  0  0
  -24.8326  -28.9804   20.1179 C   0  0  0  0  0  0
  -22.7392  -29.4745   22.4950 C   0  0  0  0  0  0
  -18.0290  -28.1365   22.8500 C   0  0  0  0  0  0
  -24.1444  -36.7371   23.2651 C   0  0  0  0  0  0
  -25.9188  -30.8508   21.3704 C   0  0  0  0  0  0
  -25.9927  -29.4868   20.7237 C   0  0  0  0  0  0
  -27.1886  -28.7392   20.7157 C   0  0  0  0  0  0
  -26.0657  -27.0170   19.4279 C   0  0  0  0  0  0
  -24.8592  -27.7350   19.4755 C   0  0  0  0  0  0
  -23.6004  -29.8515   20.1597 C   0  0  0  0  0  0
  -25.4064  -36.3167   24.0330 C   0  0  1  0  0  0
  -20.5866  -28.3759   23.1335 C   0  0  2  0  0  0
  -20.6831  -26.9522   22.5416 C   0  0  0  0  0  0
  -19.5843  -26.6459   21.5176 C   0  0  0  0  0  0
  -18.2030  -26.7897   22.1641 C   0  0  0  0  0  0
  -19.1510  -28.8860   23.2951 C   0  0  0  0  0  0
  -18.9401  -30.1446   23.8978 C   0  0  0  0  0  0
  -17.6391  -30.6559   24.0607 C   0  0  0  0  0  0
  -25.8983  -34.9513   23.5131 C   0  0  0  0  0  0
  -16.5302  -29.9058   23.6320 C   0  0  0  0  0  0
  -16.7269  -28.6469   23.0370 C   0  0  0  0  0  0
  -26.4422  -31.6670   25.0733 C   0  0  0  0  0  0
  -25.3700  -31.3804   26.1517 C   0  0  0  0  0  0
  -27.0287  -30.3129   24.6066 C   0  0  0  0  0  0
  -27.6024  -32.4344   25.7506 C   0  0  0  0  0  0
  -27.5548  -37.1835   24.8439 C   0  0  0  0  0  0
  -21.4108  -29.3168   22.3748 N   0  0  0  0  0  0
  -26.4248  -37.3840   23.9396 N   0  0  0  0  0  0
  -24.6561  -31.0925   22.1045 N   0  0  0  0  0  0
  -23.4180  -28.8263   23.2966 O   0  0  0  0  0  0
  -28.3978  -26.7697   20.0485 O   0  0  0  0  0  0
  -26.5614  -34.8927   22.4722 O   0  0  0  0  0  0
  -23.5251  -32.1497   23.7589 O   0  0  0  0  0  0
  -29.4535  -16.5855   19.1697 C   0  0  0  0  0  0
  -29.1206  -17.7938   18.5443 C   0  0  0  0  0  0
  -29.5914  -17.7266   21.3247 C   0  0  0  0  0  0
  -29.7106  -16.5480   20.5619 C   0  0  0  0  0  0
  -29.0280  -18.9891   19.2964 C   0  0  0  0  0  0
  -29.2609  -18.9410   20.6916 C   0  0  0  0  0  0
  -26.2902  -23.0121   15.5802 C   0  0  0  0  0  0
  -27.2019  -21.7917   15.6865 C   0  0  0  0  0  0
  -27.7308  -21.6129   17.1254 C   0  0  0  0  0  0
  -24.8708  -23.8874   20.2008 C   0  0  0  0  0  0
  -24.0543  -23.0937   19.1588 C   0  0  0  0  0  0
  -26.4054  -23.8354   20.0200 C   0  0  0  0  0  0
  -23.5207  -23.9042   17.9458 C   0  0  0  0  0  0
  -27.1812  -24.6971   21.0495 C   0  0  0  0  0  0
  -24.5335  -24.2628   16.8417 C   0  0  0  0  0  0
  -28.4043  -20.2679   17.3592 C   0  0  0  0  0  0
  -28.4447  -25.4012   20.4887 C   0  0  0  0  0  0
  -30.0228  -15.3277   21.2079 N   0  0  0  0  0  0
  -25.3741  -23.1199   16.5425 N   0  0  0  0  0  0
  -26.4189  -23.8234   14.6646 O   0  0  0  0  0  0
  -28.7282  -20.2147   18.7439 O   0  0  0  0  0  0
  -29.1656  -20.0743   21.4298 F   0  0  0  0  0  0
  -31.4678  -12.3596   19.0914 H   0  0  0  0  0  0
  -30.3418  -11.2237   19.7737 H   0  0  0  0  0  0
  -29.7126  -11.7600   17.4153 H   0  0  0  0  0  0
  -29.6757  -13.4679   17.7707 H   0  0  0  0  0  0
  -27.8025  -11.3101   18.7990 H   0  0  0  0  0  0
  -27.3661  -12.6651   17.7984 H   0  0  0  0  0  0
  -27.7335  -14.2428   19.6193 H   0  0  0  0  0  0
  -28.6711  -11.8606   21.3033 H   0  0  0  0  0  0
  -28.4869  -13.4774   21.9043 H   0  0  0  0  0  0
  -25.2724   -9.5713   22.4751 H   0  0  0  0  0  0
  -24.0010   -7.4630   22.7477 H   0  0  0  0  0  0
  -21.0807   -8.8750   19.8962 H   0  0  0  0  0  0
  -22.3633  -10.9669   19.6161 H   0  0  0  0  0  0
  -21.2028   -7.6135   23.9674 H   0  0  0  0  0  0
  -21.1442   -6.0516   25.9044 H   0  0  0  0  0  0
  -22.0638   -2.7598   23.2857 H   0  0  0  0  0  0
  -22.4160  -11.9866   22.4710 H   0  0  0  0  0  0
  -21.1178  -13.1269   22.2635 H   0  0  0  0  0  0
  -24.6931  -15.8531   20.5286 H   0  0  0  0  0  0
  -26.3112  -15.6132   20.1068 H   0  0  0  0  0  0
  -26.7057  -32.5583   23.1242 H   0  0  0  0  0  0
  -24.9705  -33.9863   25.0301 H   0  0  0  0  0  0
  -22.6715  -31.3152   21.4226 H   0  0  0  0  0  0
  -23.3664  -35.9753   23.3338 H   0  0  0  0  0  0
  -24.3574  -36.8976   22.2071 H   0  0  0  0  0  0
  -23.7171  -37.6569   23.6640 H   0  0  0  0  0  0
  -26.8101  -30.9161   21.9838 H   0  0  0  0  0  0
  -26.0217  -31.6148   20.5980 H   0  0  0  0  0  0
  -28.0842  -29.1367   21.1698 H   0  0  0  0  0  0
  -26.1084  -26.1214   18.8436 H   0  0  0  0  0  0
  -23.9790  -27.3541   18.9751 H   0  0  0  0  0  0
  -23.7205  -30.6297   19.4029 H   0  0  0  0  0  0
  -22.7250  -29.2760   19.8547 H   0  0  0  0  0  0
  -25.1222  -36.2082   25.0824 H   0  0  0  0  0  0
  -20.9993  -28.3347   24.1431 H   0  0  0  0  0  0
  -20.5756  -26.2396   23.3561 H   0  0  0  0  0  0
  -21.6718  -26.7582   22.1257 H   0  0  0  0  0  0
  -19.7109  -25.6387   21.1199 H   0  0  0  0  0  0
  -19.6766  -27.3329   20.6730 H   0  0  0  0  0  0
  -17.4292  -26.6505   21.4046 H   0  0  0  0  0  0
  -18.0561  -25.9989   22.9032 H   0  0  0  0  0  0
  -19.7837  -30.7265   24.2450 H   0  0  0  0  0  0
  -17.4897  -31.6226   24.5235 H   0  0  0  0  0  0
  -15.5290  -30.2984   23.7605 H   0  0  0  0  0  0
  -15.8645  -28.0780   22.7086 H   0  0  0  0  0  0
  -24.5831  -30.7190   25.7888 H   0  0  0  0  0  0
  -24.8937  -32.3009   26.4952 H   0  0  0  0  0  0
  -25.8086  -30.8988   27.0274 H   0  0  0  0  0  0
  -26.2856  -29.6922   24.1072 H   0  0  0  0  0  0
  -27.4069  -29.7291   25.4473 H   0  0  0  0  0  0
  -27.8651  -30.4547   23.9241 H   0  0  0  0  0  0
  -27.2650  -33.3623   26.2160 H   0  0  0  0  0  0
  -28.3790  -32.7009   25.0306 H   0  0  0  0  0  0
  -28.0722  -31.8428   26.5375 H   0  0  0  0  0  0
  -28.2580  -38.0132   24.7463 H   0  0  0  0  0  0
  -28.1014  -36.2637   24.6268 H   0  0  0  0  0  0
  -27.2284  -37.1507   25.8858 H   0  0  0  0  0  0
  -20.9251  -29.8932   21.7011 H   0  0  0  0  0  0
  -26.0157  -38.2931   24.1435 H   0  0  0  0  0  0
  -29.5090  -15.6927   18.5585 H   0  0  0  0  0  0
  -28.9488  -17.7646   17.4787 H   0  0  0  0  0  0
  -29.7732  -17.7161   22.3915 H   0  0  0  0  0  0
  -28.0357  -21.8824   14.9891 H   0  0  0  0  0  0
  -26.6353  -20.9172   15.3650 H   0  0  0  0  0  0
  -26.9222  -21.6842   17.8540 H   0  0  0  0  0  0
  -28.4302  -22.4143   17.3645 H   0  0  0  0  0  0
  -24.6366  -23.4892   21.1876 H   0  0  0  0  0  0
  -24.5171  -24.9164   20.2196 H   0  0  0  0  0  0
  -23.1642  -22.7259   19.6700 H   0  0  0  0  0  0
  -24.5796  -22.1833   18.8660 H   0  0  0  0  0  0
  -26.6755  -24.1208   19.0051 H   0  0  0  0  0  0
  -26.7381  -22.8007   20.1190 H   0  0  0  0  0  0
  -23.0428  -24.8175   18.2980 H   0  0  0  0  0  0
  -22.7117  -23.3289   17.4901 H   0  0  0  0  0  0
  -27.5141  -24.0208   21.8371 H   0  0  0  0  0  0
  -26.5382  -25.4063   21.5704 H   0  0  0  0  0  0
  -25.1832  -25.0708   17.1681 H   0  0  0  0  0  0
  -24.0186  -24.6174   15.9447 H   0  0  0  0  0  0
  -29.3040  -20.1687   16.7506 H   0  0  0  0  0  0
  -27.7047  -19.4796   17.0815 H   0  0  0  0  0  0
  -28.8803  -24.8012   19.6902 H   0  0  0  0  0  0
  -29.1905  -25.4100   21.2869 H   0  0  0  0  0  0
  -29.3089  -14.9875   21.8322 H   0  0  0  0  0  0
  -25.3871  -22.3920   17.2436 H   0  0  0  0  0  0
  1 25  1  0  0  0
  1 30  2  0  0  0
  1 88  1  0  0  0
  2  3  1  0  0  0
  2 25  1  0  0  0
  2 93  1  0  0  0
  2 94  1  0  0  0
  3  4  1  0  0  0
  3 95  1  0  0  0
  3 96  1  0  0  0
  4  5  1  0  0  0
  4 97  1  0  0  0
  4 98  1  0  0  0
  5  6  1  0  0  0
  5 26  1  0  0  0
  5 99  1  0  0  0
  6 25  1  0  0  0
  6100  1  0  0  0
  6101  1  0  0  0
  7  8  2  0  0  0
  7 26  1  0  0  0
  7 29  1  0  0  0
  8  9  1  0  0  0
  8 22  1  0  0  0
  9 10  1  0  0  0
  9 27  2  0  0  0
 10 11  2  0  0  0
 10 15  1  0  0  0
 11 12  1  0  0  0
 11102  1  0  0  0
 12 13  2  0  0  0
 12103  1  0  0  0
 13 14  1  0  0  0
 13 31  1  0  0  0
 14 15  2  0  0  0
 14104  1  0  0  0
 15105  1  0  0  0
 16 17  2  0  0  0
 16 21  1  0  0  0
 16 31  1  0  0  0
 17 18  1  0  0  0
 17106  1  0  0  0
 18 19  2  0  0  0
 18107  1  0  0  0
 19 20  1  0  0  0
 19 24  1  0  0  0
 20 21  2  0  0  0
 20108  1  0  0  0
 21 23  1  0  0  0
 22 28  1  0  0  0
 22 32  2  0  0  0
 26 27  1  0  0  0
 28109  1  0  0  0
 28110  1  0  0  0
 29111  1  0  0  0
 29112  1  0  0  0
 33 34  1  0  0  0
 33 66  1  0  0  0
 33 70  2  0  0  0
 34 36  1  0  0  0
 34 59  1  0  0  0
 34113  1  0  0  0
 35 44  2  0  0  0
 35 45  1  0  0  0
 35 68  1  0  0  0
 36 56  1  0  0  0
 36114  1  0  0  0
 37 39  1  0  0  0
 37 47  1  0  0  0
 37 66  1  0  0  0
 37115  1  0  0  0
 38 43  2  0  0  0
 38 46  1  0  0  0
 38 47  1  0  0  0
 39 64  1  0  0  0
 39 67  2  0  0  0
 40 52  1  0  0  0
 40 53  2  0  0  0
 40 58  1  0  0  0
 41116  1  0  0  0
 41117  1  0  0  0
 41118  1  0  0  0
 41 48  1  0  0  0
 42 43  1  0  0  0
 42 66  1  0  0  0
 42119  1  0  0  0
 42120  1  0  0  0
 43 44  1  0  0  0
 44121  1  0  0  0
 45 46  2  0  0  0
 45122  1  0  0  0
 46123  1  0  0  0
 47124  1  0  0  0
 47125  1  0  0  0
 48 56  1  0  0  0
 48 65  1  0  0  0
 48126  1  0  0  0
 49 50  1  0  0  0
 49 53  1  0  0  0
 49 64  1  0  0  0
 49127  1  0  0  0
 50 51  1  0  0  0
 50128  1  0  0  0
 50129  1  0  0  0
 51 52  1  0  0  0
 51130  1  0  0  0
 51131  1  0  0  0
 52132  1  0  0  0
 52133  1  0  0  0
 53 54  1  0  0  0
 54 55  2  0  0  0
 54134  1  0  0  0
 55 57  1  0  0  0
 55135  1  0  0  0
 56 69  2  0  0  0
 57 58  2  0  0  0
 57136  1  0  0  0
 58137  1  0  0  0
 59 60  1  0  0  0
 59 61  1  0  0  0
 59 62  1  0  0  0
 60138  1  0  0  0
 60139  1  0  0  0
 60140  1  0  0  0
 61141  1  0  0  0
 61142  1  0  0  0
 61143  1  0  0  0
 62144  1  0  0  0
 62145  1  0  0  0
 62146  1  0  0  0
 63 65  1  0  0  0
 63147  1  0  0  0
 63148  1  0  0  0
 63149  1  0  0  0
 64150  1  0  0  0
 65151  1  0  0  0
 68 87  1  0  0  0
 71 72  2  0  0  0
 71 74  1  0  0  0
 71152  1  0  0  0
 72 75  1  0  0  0
 72153  1  0  0  0
 73 74  2  0  0  0
 73 76  1  0  0  0
 73154  1  0  0  0
 74 88  1  0  0  0
 75 76  2  0  0  0
 75 91  1  0  0  0
 76 92  1  0  0  0
 77 78  1  0  0  0
 77 89  1  0  0  0
 77 90  2  0  0  0
 78 79  1  0  0  0
 78155  1  0  0  0
 78156  1  0  0  0
 79 86  1  0  0  0
 79157  1  0  0  0
 79158  1  0  0  0
 80 81  1  0  0  0
 80 82  1  0  0  0
 80159  1  0  0  0
 80160  1  0  0  0
 81 83  1  0  0  0
 81161  1  0  0  0
 81162  1  0  0  0
 82 84  1  0  0  0
 82163  1  0  0  0
 82164  1  0  0  0
 83 85  1  0  0  0
 83165  1  0  0  0
 83166  1  0  0  0
 84 87  1  0  0  0
 84167  1  0  0  0
 84168  1  0  0  0
 85 89  1  0  0  0
 85169  1  0  0  0
 85170  1  0  0  0
 86 91  1  0  0  0
 86171  1  0  0  0
 86172  1  0  0  0
 87173  1  0  0  0
 87174  1  0  0  0
 88175  1  0  0  0
 89176  1  0  0  0
M  ISO  4   1 100  68 101  87 101  88 100
M  END
> <chiral flag>
0

> <version>
0

> <s_m_source_file>
/data/baiqing/PycharmProjects/Reinvent-master-3.2/result/LINK_invent/BTK/process_docking_weight1_custom_sum_contain_oxygen_bond_distance_aromatic_linkinvent_7_9_3/rearranged_h_0004.sdf

> <i_m_source_file_index>
52

> <r_mmod_Potential_Energy-OPLS-2005>
-24.3466777801514

> <r_mmod_Stretch_Energy-OPLS-2005>
34.3083686828613

> <r_mmod_Bend_Energy-OPLS-2005>
123.404586791992

> <r_mmod_Torsional_Energy-OPLS-2005>
302.977325439453

> <r_mmod_Improper_Torsional_Energy-OPLS-2005>
7.25131273269653

> <r_mmod_Van_der_Waal_Energy-OPLS-2005>
159.835510253906

> <r_mmod_Electrostatic_Energy-OPLS-2005>
-423.034790039062

> <r_mmod_Solvation_Energy-OPLS-2005>
-239.000259399414

> <b_mmod_Minimization_Converged-OPLS-2005>
0

> <r_mmod_RMS_Derivative-OPLS-2005>
5.82192707061768

$$$$
52
                    3D
 Structure written by MMmdl.
191199  0  0  1  0            999 V2000
  -30.7105  -14.4610   20.3623 C   0  0  0  0  0  0
  -30.4316  -12.2555   19.4061 C   0  0  0  0  0  0
  -29.4886  -12.4220   18.1950 C   0  0  0  0  0  0
  -28.0132  -12.2981   18.6236 C   0  0  0  0  0  0
  -27.6578  -13.1677   19.8612 C   0  0  2  0  0  0
  -28.7238  -13.0250   20.9728 C   0  0  0  0  0  0
  -25.2584  -13.8039   20.5692 C   0  0  0  0  0  0
  -24.1807  -13.0351   20.9230 C   0  0  0  0  0  0
  -24.6325  -11.6836   20.8790 C   0  0  0  0  0  0
  -23.8952  -10.4267   21.0434 C   0  0  0  0  0  0
  -24.3525   -9.4197   21.9219 C   0  0  0  0  0  0
  -23.6235   -8.2213   22.0795 C   0  0  0  0  0  0
  -22.4230   -8.0242   21.3571 C   0  0  0  0  0  0
  -21.9830   -9.0206   20.4682 C   0  0  0  0  0  0
  -22.7125  -10.2105   20.3078 C   0  0  0  0  0  0
  -21.6831   -6.0687   22.5289 C   0  0  0  0  0  0
  -21.3961   -6.5627   23.8192 C   0  0  0  0  0  0
  -21.3664   -5.6819   24.9199 C   0  0  0  0  0  0
  -21.6054   -4.3072   24.7271 C   0  0  0  0  0  0
  -21.8827   -3.8140   23.4407 C   0  0  0  0  0  0
  -21.9185   -4.6929   22.3442 C   0  0  0  0  0  0
  -22.7835  -13.5212   21.1881 C   0  0  0  0  0  0
  -22.1646   -4.2109   21.1013 F   0  0  0  0  0  0
  -21.5677   -3.4559   25.7785 F   0  0  0  0  0  0
  -30.0458  -13.2820   20.3803 N   0  0  0  0  0  0
  -26.3001  -12.9118   20.3390 N   0  0  0  0  0  0
  -25.9257  -11.6335   20.5884 N   0  0  0  0  0  0
  -22.0420  -12.8200   22.0410 N   0  0  0  0  0  0
  -25.4264  -15.1740   20.4077 N   0  0  0  0  0  0
  -31.9375  -14.5357   20.2828 O   0  0  0  0  0  0
  -21.6624   -6.8817   21.4246 O   0  0  0  0  0  0
  -22.3546  -14.5512   20.6738 O   0  0  0  0  0  0
  -24.6119  -31.8638   23.2130 C   0  0  0  0  0  0
  -25.9023  -32.4809   23.8375 C   0  0  1  0  0  0
  -27.2486  -27.4572   20.0527 C   0  0  0  0  0  0
  -25.5841  -33.8605   24.2289 N   0  0  0  0  0  0
  -23.4002  -30.4852   21.5584 C   0  0  2  0  0  0
  -24.8476  -28.9477   20.1184 C   0  0  0  0  0  0
  -22.7402  -29.4599   22.5064 C   0  0  0  0  0  0
  -18.0225  -28.1355   22.8491 C   0  0  0  0  0  0
  -24.1487  -36.7314   23.2636 C   0  0  0  0  0  0
  -25.9298  -30.8248   21.3716 C   0  0  0  0  0  0
  -26.0056  -29.4597   20.7192 C   0  0  0  0  0  0
  -27.2055  -28.7114   20.7044 C   0  0  0  0  0  0
  -26.0743  -26.9572   19.4530 C   0  0  0  0  0  0
  -24.8724  -27.6888   19.4936 C   0  0  0  0  0  0
  -23.6091  -29.8119   20.1762 C   0  0  0  0  0  0
  -25.4098  -36.3083   24.0331 C   0  0  1  0  0  0
  -20.5830  -28.3595   23.1382 C   0  0  2  0  0  0
  -20.6704  -26.9341   22.5449 C   0  0  0  0  0  0
  -19.5676  -26.6362   21.5226 C   0  0  0  0  0  0
  -18.1869  -26.7896   22.1656 C   0  0  0  0  0  0
  -19.1483  -28.8784   23.2939 C   0  0  0  0  0  0
  -18.9429  -30.1424   23.8906 C   0  0  0  0  0  0
  -17.6431  -30.6564   24.0560 C   0  0  0  0  0  0
  -25.9020  -34.9450   23.5112 C   0  0  0  0  0  0
  -16.5326  -29.9084   23.6324 C   0  0  0  0  0  0
  -16.7221  -28.6508   23.0314 C   0  0  0  0  0  0
  -26.4441  -31.6605   25.0716 C   0  0  0  0  0  0
  -25.3732  -31.3759   26.1490 C   0  0  0  0  0  0
  -27.0229  -30.3015   24.6111 C   0  0  0  0  0  0
  -27.5943  -32.4401   25.7499 C   0  0  0  0  0  0
  -27.5581  -37.1773   24.8427 C   0  0  0  0  0  0
  -21.4123  -29.2987   22.3832 N   0  0  0  0  0  0
  -26.4256  -37.3788   23.9435 N   0  0  0  0  0  0
  -24.6650  -31.0729   22.1025 N   0  0  0  0  0  0
  -23.4183  -28.8078   23.3050 O   0  0  0  0  0  0
  -28.4156  -26.7259   20.0336 O   0  0  0  0  0  0
  -26.5650  -34.8904   22.4727 O   0  0  0  0  0  0
  -23.5319  -32.1398   23.7536 O   0  0  0  0  0  0
  -30.7512  -17.4515   16.3110 C   0  0  0  0  0  0
  -29.4313  -17.1414   16.6726 C   0  0  0  0  0  0
  -31.5078  -16.7813   18.5347 C   0  0  0  0  0  0
  -31.7667  -17.3660   17.2753 C   0  0  0  0  0  0
  -29.1499  -16.6268   17.9530 C   0  0  0  0  0  0
  -30.2058  -16.3088   18.8510 C   0  0  0  0  0  0
  -33.0417  -18.0830   16.9943 C   0  0  0  0  0  0
  -28.5234  -22.4262   16.5403 C   0  0  0  0  0  0
  -27.6950  -16.4704   18.3257 C   0  0  0  0  0  0
  -23.7892  -18.8263   20.6098 C   0  0  0  0  0  0
  -29.0337  -21.0446   16.0848 C   0  0  0  0  0  0
  -24.5374  -19.3152   19.3598 C   0  0  0  0  0  0
  -30.4538  -21.0849   15.4632 C   0  0  0  0  0  0
  -25.7726  -20.1668   19.6985 C   0  0  0  0  0  0
  -31.5529  -21.6730   16.3802 C   0  0  0  0  0  0
  -26.3760  -20.8630   18.4662 C   0  0  0  0  0  0
  -32.9971  -21.2561   15.9921 C   0  0  0  0  0  0
  -29.0550  -24.7986   18.5581 C   0  0  0  0  0  0
  -33.7717  -20.4713   17.0814 C   0  0  0  0  0  0
  -27.7103  -21.5729   18.7752 C   0  0  0  0  0  0
  -27.7507  -24.0058   18.2645 C   0  0  0  0  0  0
  -28.9010  -26.3251   18.7460 C   0  0  0  0  0  0
  -29.9444  -15.5165   20.0203 N   0  0  0  0  0  0
  -33.0265  -19.3042   17.5303 N   0  0  0  0  0  0
  -28.0285  -22.6291   17.7933 N   0  0  0  0  0  0
  -33.8975  -17.6538   16.2204 O   0  0  0  0  0  0
  -28.6213  -23.3541   15.7308 O   0  0  0  0  0  0
  -31.4739  -12.3435   19.0842 H   0  0  0  0  0  0
  -30.3345  -11.2606   19.8437 H   0  0  0  0  0  0
  -29.7072  -11.6652   17.4391 H   0  0  0  0  0  0
  -29.6581  -13.3843   17.7129 H   0  0  0  0  0  0
  -27.8307  -11.2459   18.8479 H   0  0  0  0  0  0
  -27.3527  -12.5374   17.7877 H   0  0  0  0  0  0
  -27.6713  -14.1901   19.5229 H   0  0  0  0  0  0
  -28.7015  -12.0166   21.3825 H   0  0  0  0  0  0
  -28.5319  -13.7021   21.8053 H   0  0  0  0  0  0
  -25.2687   -9.5698   22.4768 H   0  0  0  0  0  0
  -24.0006   -7.4603   22.7486 H   0  0  0  0  0  0
  -21.0758   -8.8645   19.8973 H   0  0  0  0  0  0
  -22.3558  -10.9607   19.6160 H   0  0  0  0  0  0
  -21.1882   -7.6131   23.9646 H   0  0  0  0  0  0
  -21.1490   -6.0583   25.9080 H   0  0  0  0  0  0
  -22.0598   -2.7589   23.2932 H   0  0  0  0  0  0
  -22.3943  -11.9827   22.4804 H   0  0  0  0  0  0
  -21.1065  -13.1302   22.2631 H   0  0  0  0  0  0
  -24.6513  -15.8221   20.4986 H   0  0  0  0  0  0
  -26.2768  -15.6165   20.0935 H   0  0  0  0  0  0
  -26.7096  -32.5511   23.1119 H   0  0  0  0  0  0
  -24.9834  -33.9748   25.0317 H   0  0  0  0  0  0
  -22.6860  -31.2996   21.4228 H   0  0  0  0  0  0
  -23.3741  -35.9650   23.3249 H   0  0  0  0  0  0
  -24.3562  -36.9017   22.2063 H   0  0  0  0  0  0
  -23.7251  -37.6502   23.6696 H   0  0  0  0  0  0
  -26.0471  -31.5910   20.6060 H   0  0  0  0  0  0
  -26.8164  -30.8767   21.9925 H   0  0  0  0  0  0
  -28.0971  -29.0946   21.1778 H   0  0  0  0  0  0
  -26.0823  -25.9989   18.9592 H   0  0  0  0  0  0
  -23.9835  -27.2821   19.0306 H   0  0  0  0  0  0
  -23.7144  -30.5838   19.4146 H   0  0  0  0  0  0
  -22.7327  -29.2295   19.8864 H   0  0  0  0  0  0
  -25.1297  -36.1878   25.0823 H   0  0  0  0  0  0
  -20.9912  -28.3109   24.1502 H   0  0  0  0  0  0
  -20.5536  -26.2192   23.3624 H   0  0  0  0  0  0
  -21.6584  -26.7319   22.1289 H   0  0  0  0  0  0
  -19.6828  -25.6278   21.1224 H   0  0  0  0  0  0
  -19.6622  -27.3199   20.6779 H   0  0  0  0  0  0
  -17.4148  -26.6608   21.4075 H   0  0  0  0  0  0
  -18.0282  -26.0052   22.9056 H   0  0  0  0  0  0
  -19.7897  -30.7244   24.2272 H   0  0  0  0  0  0
  -17.4971  -31.6219   24.5204 H   0  0  0  0  0  0
  -15.5314  -30.2975   23.7641 H   0  0  0  0  0  0
  -15.8625  -28.0851   22.6984 H   0  0  0  0  0  0
  -24.5812  -30.7196   25.7852 H   0  0  0  0  0  0
  -24.9024  -32.2953   26.4983 H   0  0  0  0  0  0
  -25.8095  -30.8863   27.0210 H   0  0  0  0  0  0
  -26.2744  -29.6842   24.1113 H   0  0  0  0  0  0
  -27.3905  -29.7180   25.4565 H   0  0  0  0  0  0
  -27.8626  -30.4316   23.9293 H   0  0  0  0  0  0
  -27.2436  -33.3658   26.2100 H   0  0  0  0  0  0
  -28.3709  -32.7103   25.0327 H   0  0  0  0  0  0
  -28.0648  -31.8560   26.5431 H   0  0  0  0  0  0
  -28.2516  -38.0151   24.7583 H   0  0  0  0  0  0
  -28.1175  -36.2682   24.6108 H   0  0  0  0  0  0
  -27.2321  -37.1271   25.8832 H   0  0  0  0  0  0
  -20.9253  -29.8819   21.7181 H   0  0  0  0  0  0
  -26.0131  -38.2840   24.1494 H   0  0  0  0  0  0
  -30.9682  -17.8579   15.3319 H   0  0  0  0  0  0
  -28.6337  -17.3441   15.9735 H   0  0  0  0  0  0
  -32.3159  -16.6989   19.2495 H   0  0  0  0  0  0
  -27.1263  -17.3486   18.0201 H   0  0  0  0  0  0
  -27.5857  -16.4024   19.4055 H   0  0  0  0  0  0
  -27.2613  -15.5986   17.8348 H   0  0  0  0  0  0
  -23.0210  -18.0989   20.3438 H   0  0  0  0  0  0
  -23.2945  -19.6508   21.1249 H   0  0  0  0  0  0
  -24.4628  -18.3463   21.3211 H   0  0  0  0  0  0
  -28.3382  -20.6749   15.3314 H   0  0  0  0  0  0
  -29.0117  -20.3032   16.8804 H   0  0  0  0  0  0
  -23.8512  -19.8842   18.7328 H   0  0  0  0  0  0
  -24.8474  -18.4523   18.7673 H   0  0  0  0  0  0
  -30.4285  -21.6378   14.5227 H   0  0  0  0  0  0
  -30.7298  -20.0698   15.1861 H   0  0  0  0  0  0
  -26.5237  -19.5327   20.1743 H   0  0  0  0  0  0
  -25.5021  -20.9290   20.4342 H   0  0  0  0  0  0
  -31.3500  -21.4081   17.4168 H   0  0  0  0  0  0
  -31.4774  -22.7607   16.3456 H   0  0  0  0  0  0
  -25.6516  -21.5857   18.0913 H   0  0  0  0  0  0
  -26.5197  -20.1344   17.6690 H   0  0  0  0  0  0
  -33.5722  -22.1516   15.7535 H   0  0  0  0  0  0
  -32.9780  -20.6790   15.0662 H   0  0  0  0  0  0
  -29.7327  -24.6706   17.7135 H   0  0  0  0  0  0
  -29.5779  -24.3559   19.4083 H   0  0  0  0  0  0
  -33.9424  -21.1056   17.9524 H   0  0  0  0  0  0
  -34.7600  -20.1861   16.7166 H   0  0  0  0  0  0
  -28.5196  -20.8496   18.8617 H   0  0  0  0  0  0
  -27.6558  -22.0116   19.7718 H   0  0  0  0  0  0
  -27.1454  -24.5133   17.5091 H   0  0  0  0  0  0
  -27.1327  -23.9994   19.1645 H   0  0  0  0  0  0
  -28.3368  -26.7555   17.9179 H   0  0  0  0  0  0
  -29.8958  -26.7650   18.6687 H   0  0  0  0  0  0
  -28.9672  -15.3587   20.2072 H   0  0  0  0  0  0
  -32.2507  -19.4842   18.1531 H   0  0  0  0  0  0
  1 25  1  0  0  0
  1 30  2  0  0  0
  1 93  1  0  0  0
  2  3  1  0  0  0
  2 25  1  0  0  0
  2 98  1  0  0  0
  2 99  1  0  0  0
  3  4  1  0  0  0
  3100  1  0  0  0
  3101  1  0  0  0
  4  5  1  0  0  0
  4102  1  0  0  0
  4103  1  0  0  0
  5  6  1  0  0  0
  5 26  1  0  0  0
  5104  1  0  0  0
  6 25  1  0  0  0
  6105  1  0  0  0
  6106  1  0  0  0
  7  8  2  0  0  0
  7 26  1  0  0  0
  7 29  1  0  0  0
  8  9  1  0  0  0
  8 22  1  0  0  0
  9 10  1  0  0  0
  9 27  2  0  0  0
 10 11  2  0  0  0
 10 15  1  0  0  0
 11 12  1  0  0  0
 11107  1  0  0  0
 12 13  2  0  0  0
 12108  1  0  0  0
 13 14  1  0  0  0
 13 31  1  0  0  0
 14 15  2  0  0  0
 14109  1  0  0  0
 15110  1  0  0  0
 16 17  2  0  0  0
 16 21  1  0  0  0
 16 31  1  0  0  0
 17 18  1  0  0  0
 17111  1  0  0  0
 18 19  2  0  0  0
 18112  1  0  0  0
 19 20  1  0  0  0
 19 24  1  0  0  0
 20 21  2  0  0  0
 20113  1  0  0  0
 21 23  1  0  0  0
 22 28  1  0  0  0
 22 32  2  0  0  0
 26 27  1  0  0  0
 28114  1  0  0  0
 28115  1  0  0  0
 29116  1  0  0  0
 29117  1  0  0  0
 33 34  1  0  0  0
 33 66  1  0  0  0
 33 70  2  0  0  0
 34 36  1  0  0  0
 34 59  1  0  0  0
 34118  1  0  0  0
 35 44  2  0  0  0
 35 45  1  0  0  0
 35 68  1  0  0  0
 36 56  1  0  0  0
 36119  1  0  0  0
 37 39  1  0  0  0
 37 47  1  0  0  0
 37 66  1  0  0  0
 37120  1  0  0  0
 38 43  2  0  0  0
 38 46  1  0  0  0
 38 47  1  0  0  0
 39 64  1  0  0  0
 39 67  2  0  0  0
 40 52  1  0  0  0
 40 53  2  0  0  0
 40 58  1  0  0  0
 41121  1  0  0  0
 41122  1  0  0  0
 41123  1  0  0  0
 41 48  1  0  0  0
 42 43  1  0  0  0
 42 66  1  0  0  0
 42124  1  0  0  0
 42125  1  0  0  0
 43 44  1  0  0  0
 44126  1  0  0  0
 45 46  2  0  0  0
 45127  1  0  0  0
 46128  1  0  0  0
 47129  1  0  0  0
 47130  1  0  0  0
 48 56  1  0  0  0
 48 65  1  0  0  0
 48131  1  0  0  0
 49 50  1  0  0  0
 49 53  1  0  0  0
 49 64  1  0  0  0
 49132  1  0  0  0
 50 51  1  0  0  0
 50133  1  0  0  0
 50134  1  0  0  0
 51 52  1  0  0  0
 51135  1  0  0  0
 51136  1  0  0  0
 52137  1  0  0  0
 52138  1  0  0  0
 53 54  1  0  0  0
 54 55  2  0  0  0
 54139  1  0  0  0
 55 57  1  0  0  0
 55140  1  0  0  0
 56 69  2  0  0  0
 57 58  2  0  0  0
 57141  1  0  0  0
 58142  1  0  0  0
 59 60  1  0  0  0
 59 61  1  0  0  0
 59 62  1  0  0  0
 60143  1  0  0  0
 60144  1  0  0  0
 60145  1  0  0  0
 61146  1  0  0  0
 61147  1  0  0  0
 61148  1  0  0  0
 62149  1  0  0  0
 62150  1  0  0  0
 62151  1  0  0  0
 63 65  1  0  0  0
 63152  1  0  0  0
 63153  1  0  0  0
 63154  1  0  0  0
 64155  1  0  0  0
 65156  1  0  0  0
 68 92  1  0  0  0
 71 72  2  0  0  0
 71 74  1  0  0  0
 71157  1  0  0  0
 72 75  1  0  0  0
 72158  1  0  0  0
 73 74  2  0  0  0
 73 76  1  0  0  0
 73159  1  0  0  0
 74 77  1  0  0  0
 75 76  2  0  0  0
 75 79  1  0  0  0
 76 93  1  0  0  0
 77 94  1  0  0  0
 77 96  2  0  0  0
 78 81  1  0  0  0
 78 95  1  0  0  0
 78 97  2  0  0  0
 79160  1  0  0  0
 79161  1  0  0  0
 79162  1  0  0  0
 80 82  1  0  0  0
 80163  1  0  0  0
 80164  1  0  0  0
 80165  1  0  0  0
 81 83  1  0  0  0
 81166  1  0  0  0
 81167  1  0  0  0
 82 84  1  0  0  0
 82168  1  0  0  0
 82169  1  0  0  0
 83 85  1  0  0  0
 83170  1  0  0  0
 83171  1  0  0  0
 84 86  1  0  0  0
 84172  1  0  0  0
 84173  1  0  0  0
 85 87  1  0  0  0
 85174  1  0  0  0
 85175  1  0  0  0
 86 90  1  0  0  0
 86176  1  0  0  0
 86177  1  0  0  0
 87 89  1  0  0  0
 87178  1  0  0  0
 87179  1  0  0  0
 88 91  1  0  0  0
 88 92  1  0  0  0
 88180  1  0  0  0
 88181  1  0  0  0
 89 94  1  0  0  0
 89182  1  0  0  0
 89183  1  0  0  0
 90 95  1  0  0  0
 90184  1  0  0  0
 90185  1  0  0  0
 91 95  1  0  0  0
 91186  1  0  0  0
 91187  1  0  0  0
 92188  1  0  0  0
 92189  1  0  0  0
 93190  1  0  0  0
 94191  1  0  0  0
M  ISO  4   1 100  68 101  92 101  93 100
M  END
> <chiral flag>
0

> <version>
0

> <s_m_source_file>
/data/baiqing/PycharmProjects/Reinvent-master-3.2/result/LINK_invent/BTK/process_docking_weight1_custom_sum_contain_oxygen_bond_distance_aromatic_linkinvent_7_9_3/rearranged_h_0004.sdf

> <i_m_source_file_index>
53

> <r_mmod_Potential_Energy-OPLS-2005>
44.4654731750488

> <r_mmod_Stretch_Energy-OPLS-2005>
41.5892295837402

> <r_mmod_Bend_Energy-OPLS-2005>
116.230697631836

> <r_mmod_Torsional_Energy-OPLS-2005>
369.5322265625

> <r_mmod_Improper_Torsional_Energy-OPLS-2005>
18.8493099212646

> <r_mmod_Van_der_Waal_Energy-OPLS-2005>
139.085357666016

> <r_mmod_Electrostatic_Energy-OPLS-2005>
-429.467834472656

> <r_mmod_Solvation_Energy-OPLS-2005>
-243.517227172852

> <b_mmod_Minimization_Converged-OPLS-2005>
0

> <r_mmod_RMS_Derivative-OPLS-2005>
5.70140981674194

$$$$
53
                    3D
 Structure written by MMmdl.
154162  0  0  1  0            999 V2000
  -30.2172  -15.7484   20.3196 C   0  0  0  0  0  0
  -30.4164  -13.1640   19.5395 C   0  0  0  0  0  0
  -29.5461  -12.6878   18.3353 C   0  0  0  0  0  0
  -28.1279  -12.3062   18.7841 C   0  0  0  0  0  0
  -27.5882  -13.3176   19.8180 C   0  0  2  0  0  0
  -28.6001  -13.6765   20.9323 C   0  0  0  0  0  0
  -25.2281  -13.8281   20.5860 C   0  0  0  0  0  0
  -24.1666  -13.0419   20.9316 C   0  0  0  0  0  0
  -24.6388  -11.6939   20.8768 C   0  0  0  0  0  0
  -23.9107  -10.4277   21.0391 C   0  0  0  0  0  0
  -24.3649   -9.4205   21.9180 C   0  0  0  0  0  0
  -23.6319   -8.2234   22.0750 C   0  0  0  0  0  0
  -22.4300   -8.0273   21.3537 C   0  0  0  0  0  0
  -21.9930   -9.0242   20.4637 C   0  0  0  0  0  0
  -22.7261  -10.2123   20.3047 C   0  0  0  0  0  0
  -21.6858   -6.0744   22.5283 C   0  0  0  0  0  0
  -21.4014   -6.5651   23.8214 C   0  0  0  0  0  0
  -21.3657   -5.6801   24.9176 C   0  0  0  0  0  0
  -21.6048   -4.3061   24.7229 C   0  0  0  0  0  0
  -21.8813   -3.8150   23.4348 C   0  0  0  0  0  0
  -21.9191   -4.6969   22.3406 C   0  0  0  0  0  0
  -22.7685  -13.5150   21.1930 C   0  0  0  0  0  0
  -22.1652   -4.2160   21.0979 F   0  0  0  0  0  0
  -21.5635   -3.4539   25.7735 F   0  0  0  0  0  0
  -29.7568  -14.3431   20.2798 N   0  0  0  0  0  0
  -26.2735  -12.9632   20.3275 N   0  0  0  0  0  0
  -25.9340  -11.6695   20.5707 N   0  0  0  0  0  0
  -22.0358  -12.8131   22.0503 N   0  0  0  0  0  0
  -25.3826  -15.2025   20.4340 N   0  0  0  0  0  0
  -31.4542  -15.7194   20.1404 O   0  0  0  0  0  0
  -21.6654   -6.8875   21.4240 O   0  0  0  0  0  0
  -22.3361  -14.5433   20.6733 O   0  0  0  0  0  0
  -24.6916  -31.7861   23.1423 C   0  0  0  0  0  0
  -25.9469  -32.4392   23.8002 C   0  0  1  0  0  0
  -27.2275  -26.6046   20.2130 C   0  0  0  0  0  0
  -25.6018  -33.8229   24.1889 N   0  0  0  0  0  0
  -23.5232  -30.3853   21.4966 C   0  0  2  0  0  0
  -24.9838  -28.7064   20.1081 C   0  0  0  0  0  0
  -22.7809  -29.4260   22.4672 C   0  0  0  0  0  0
  -18.0348  -28.1431   22.8451 C   0  0  0  0  0  0
  -24.1488  -36.7111   23.2652 C   0  0  0  0  0  0
  -26.1065  -30.4846   21.4239 C   0  0  0  0  0  0
  -26.1680  -29.0402   20.7735 C   0  0  0  0  0  0
  -27.2623  -28.0138   20.8029 C   0  0  0  0  0  0
  -26.0229  -26.5140   19.4633 C   0  0  0  0  0  0
  -24.9564  -27.4729   19.4301 C   0  0  0  0  0  0
  -23.7821  -29.6718   20.1341 C   0  0  0  0  0  0
  -25.4146  -36.2854   24.0270 C   0  0  1  0  0  0
  -20.5984  -28.3806   23.1119 C   0  0  2  0  0  0
  -20.6807  -26.9457   22.5422 C   0  0  0  0  0  0
  -19.5787  -26.6368   21.5231 C   0  0  0  0  0  0
  -18.1959  -26.7955   22.1613 C   0  0  0  0  0  0
  -19.1615  -28.8947   23.2754 C   0  0  0  0  0  0
  -18.9523  -30.1523   23.8815 C   0  0  0  0  0  0
  -17.6510  -30.6613   24.0546 C   0  0  0  0  0  0
  -25.9136  -34.9252   23.4915 C   0  0  0  0  0  0
  -16.5394  -29.9102   23.6354 C   0  0  0  0  0  0
  -16.7323  -28.6520   23.0371 C   0  0  0  0  0  0
  -26.4618  -31.6481   25.0675 C   0  0  0  0  0  0
  -25.3660  -31.3850   26.1275 C   0  0  0  0  0  0
  -27.0554  -30.2800   24.6669 C   0  0  0  0  0  0
  -27.6051  -32.4367   25.7490 C   0  0  0  0  0  0
  -27.5550  -37.1710   24.8455 C   0  0  0  0  0  0
  -21.4449  -29.3023   22.3422 N   0  0  0  0  0  0
  -26.4250  -37.3644   23.9413 N   0  0  0  0  0  0
  -24.7981  -30.9213   22.0728 N   0  0  0  0  0  0
  -23.4201  -28.7880   23.3060 O   0  0  0  0  0  0
  -28.1512  -25.3364   20.4036 O   0  0  0  0  0  0
  -26.5782  -34.8850   22.4537 O   0  0  0  0  0  0
  -23.5922  -32.1010   23.6324 O   0  0  0  0  0  0
  -27.0204  -21.3115   20.2702 C   0  0  0  0  0  0
  -27.4785  -18.8050   20.3439 C   0  0  0  0  0  0
  -29.2604  -20.3878   20.2558 C   0  0  0  0  0  0
  -26.6133  -19.9407   20.2562 C   0  0  0  0  0  0
  -28.3580  -21.7717   20.2407 C   0  0  0  0  0  0
  -28.8979  -18.7868   20.3411 C   0  0  0  0  0  0
  -22.9241  -19.7486   20.9941 C   0  0  0  0  0  0
  -22.0756  -19.5825   22.2469 C   0  0  0  0  0  0
  -25.1463  -19.6503   19.9540 C   0  0  0  0  0  0
  -28.4305  -23.6418   19.8311 C   0  0  0  0  0  0
  -29.3392  -17.0651   20.4044 N   0  0  0  0  0  0
  -24.2557  -19.6403   21.1082 N   0  0  0  0  0  0
  -22.3653  -19.9623   19.9179 O   0  0  0  0  0  0
  -31.3932  -13.4592   19.1572 H   0  0  0  0  0  0
  -30.6189  -12.3343   20.2192 H   0  0  0  0  0  0
  -30.0172  -11.8456   17.8271 H   0  0  0  0  0  0
  -29.4834  -13.4939   17.6027 H   0  0  0  0  0  0
  -28.1693  -11.3133   19.2344 H   0  0  0  0  0  0
  -27.4560  -12.2285   17.9294 H   0  0  0  0  0  0
  -27.4381  -14.2325   19.2428 H   0  0  0  0  0  0
  -28.8840  -12.7992   21.5135 H   0  0  0  0  0  0
  -28.1477  -14.3714   21.6404 H   0  0  0  0  0  0
  -25.2779   -9.5704   22.4773 H   0  0  0  0  0  0
  -24.0031   -7.4634   22.7471 H   0  0  0  0  0  0
  -21.0854   -8.8751   19.8957 H   0  0  0  0  0  0
  -22.3685  -10.9670   19.6169 H   0  0  0  0  0  0
  -21.2000   -7.6150   23.9720 H   0  0  0  0  0  0
  -21.1491   -6.0527   25.9078 H   0  0  0  0  0  0
  -22.0597   -2.7623   23.2838 H   0  0  0  0  0  0
  -22.4037  -11.9841   22.4932 H   0  0  0  0  0  0
  -21.0969  -13.1125   22.2699 H   0  0  0  0  0  0
  -24.5998  -15.8383   20.5427 H   0  0  0  0  0  0
  -26.2107  -15.6458   20.0648 H   0  0  0  0  0  0
  -26.7550  -32.4833   23.0703 H   0  0  0  0  0  0
  -25.0107  -33.9260   25.0007 H   0  0  0  0  0  0
  -22.8552  -31.2254   21.2971 H   0  0  0  0  0  0
  -23.3780  -35.9406   23.3250 H   0  0  0  0  0  0
  -24.3552  -36.8842   22.2076 H   0  0  0  0  0  0
  -23.7211  -37.6258   23.6772 H   0  0  0  0  0  0
  -26.3237  -31.2052   20.6339 H   0  0  0  0  0  0
  -26.9518  -30.5519   22.0952 H   0  0  0  0  0  0
  -28.1402  -28.2683   21.3806 H   0  0  0  0  0  0
  -25.8464  -25.5823   18.9439 H   0  0  0  0  0  0
  -24.0656  -27.2134   18.8754 H   0  0  0  0  0  0
  -23.9603  -30.4276   19.3691 H   0  0  0  0  0  0
  -22.8856  -29.1400   19.8092 H   0  0  0  0  0  0
  -25.1357  -36.1587   25.0758 H   0  0  0  0  0  0
  -21.0054  -28.3436   24.1249 H   0  0  0  0  0  0
  -20.5668  -26.2430   23.3691 H   0  0  0  0  0  0
  -21.6657  -26.7380   22.1236 H   0  0  0  0  0  0
  -19.6931  -25.6261   21.1309 H   0  0  0  0  0  0
  -19.6720  -27.3133   20.6719 H   0  0  0  0  0  0
  -17.4234  -26.6720   21.3999 H   0  0  0  0  0  0
  -18.0319  -26.0122   22.9030 H   0  0  0  0  0  0
  -19.7998  -30.7361   24.2133 H   0  0  0  0  0  0
  -17.5062  -31.6281   24.5173 H   0  0  0  0  0  0
  -15.5394  -30.2970   23.7732 H   0  0  0  0  0  0
  -15.8714  -28.0800   22.7138 H   0  0  0  0  0  0
  -24.5904  -30.7112   25.7601 H   0  0  0  0  0  0
  -24.8786  -32.3083   26.4410 H   0  0  0  0  0  0
  -25.7828  -30.9235   27.0234 H   0  0  0  0  0  0
  -26.3287  -29.6389   24.1667 H   0  0  0  0  0  0
  -27.3920  -29.7278   25.5454 H   0  0  0  0  0  0
  -27.9293  -30.3879   24.0245 H   0  0  0  0  0  0
  -27.2588  -33.3760   26.1811 H   0  0  0  0  0  0
  -28.3996  -32.6782   25.0415 H   0  0  0  0  0  0
  -28.0569  -31.8671   26.5623 H   0  0  0  0  0  0
  -28.2516  -38.0055   24.7551 H   0  0  0  0  0  0
  -28.1096  -36.2584   24.6218 H   0  0  0  0  0  0
  -27.2272  -37.1261   25.8858 H   0  0  0  0  0  0
  -20.9780  -29.8654   21.6450 H   0  0  0  0  0  0
  -26.0052  -38.2666   24.1486 H   0  0  0  0  0  0
  -26.2434  -22.0585   20.1689 H   0  0  0  0  0  0
  -26.9836  -17.8457   20.3488 H   0  0  0  0  0  0
  -30.3198  -20.5799   20.1647 H   0  0  0  0  0  0
  -21.6993  -20.5501   22.5791 H   0  0  0  0  0  0
  -22.6325  -19.1248   23.0640 H   0  0  0  0  0  0
  -21.2147  -18.9488   22.0274 H   0  0  0  0  0  0
  -25.0575  -18.6856   19.4500 H   0  0  0  0  0  0
  -24.8056  -20.3858   19.2240 H   0  0  0  0  0  0
  -27.8501  -23.6593   18.9080 H   0  0  0  0  0  0
  -29.4577  -23.7216   19.4786 H   0  0  0  0  0  0
  -28.4557  -16.6060   20.5702 H   0  0  0  0  0  0
  -24.6580  -19.4580   22.0165 H   0  0  0  0  0  0
  1 25  1  0  0  0
  1 30  2  0  0  0
  1 81  1  0  0  0
  2  3  1  0  0  0
  2 25  1  0  0  0
  2 84  1  0  0  0
  2 85  1  0  0  0
  3  4  1  0  0  0
  3 86  1  0  0  0
  3 87  1  0  0  0
  4  5  1  0  0  0
  4 88  1  0  0  0
  4 89  1  0  0  0
  5  6  1  0  0  0
  5 26  1  0  0  0
  5 90  1  0  0  0
  6 25  1  0  0  0
  6 91  1  0  0  0
  6 92  1  0  0  0
  7  8  2  0  0  0
  7 26  1  0  0  0
  7 29  1  0  0  0
  8  9  1  0  0  0
  8 22  1  0  0  0
  9 10  1  0  0  0
  9 27  2  0  0  0
 10 11  2  0  0  0
 10 15  1  0  0  0
 11 12  1  0  0  0
 11 93  1  0  0  0
 12 13  2  0  0  0
 12 94  1  0  0  0
 13 14  1  0  0  0
 13 31  1  0  0  0
 14 15  2  0  0  0
 14 95  1  0  0  0
 15 96  1  0  0  0
 16 17  2  0  0  0
 16 21  1  0  0  0
 16 31  1  0  0  0
 17 18  1  0  0  0
 17 97  1  0  0  0
 18 19  2  0  0  0
 18 98  1  0  0  0
 19 20  1  0  0  0
 19 24  1  0  0  0
 20 21  2  0  0  0
 20 99  1  0  0  0
 21 23  1  0  0  0
 22 28  1  0  0  0
 22 32  2  0  0  0
 26 27  1  0  0  0
 28100  1  0  0  0
 28101  1  0  0  0
 29102  1  0  0  0
 29103  1  0  0  0
 33 34  1  0  0  0
 33 66  1  0  0  0
 33 70  2  0  0  0
 34 36  1  0  0  0
 34 59  1  0  0  0
 34104  1  0  0  0
 35 44  2  0  0  0
 35 45  1  0  0  0
 35 68  1  0  0  0
 36 56  1  0  0  0
 36105  1  0  0  0
 37 39  1  0  0  0
 37 47  1  0  0  0
 37 66  1  0  0  0
 37106  1  0  0  0
 38 43  2  0  0  0
 38 46  1  0  0  0
 38 47  1  0  0  0
 39 64  1  0  0  0
 39 67  2  0  0  0
 40 52  1  0  0  0
 40 53  2  0  0  0
 40 58  1  0  0  0
 41107  1  0  0  0
 41108  1  0  0  0
 41109  1  0  0  0
 41 48  1  0  0  0
 42 43  1  0  0  0
 42 66  1  0  0  0
 42110  1  0  0  0
 42111  1  0  0  0
 43 44  1  0  0  0
 44112  1  0  0  0
 45 46  2  0  0  0
 45113  1  0  0  0
 46114  1  0  0  0
 47115  1  0  0  0
 47116  1  0  0  0
 48 56  1  0  0  0
 48 65  1  0  0  0
 48117  1  0  0  0
 49 50  1  0  0  0
 49 53  1  0  0  0
 49 64  1  0  0  0
 49118  1  0  0  0
 50 51  1  0  0  0
 50119  1  0  0  0
 50120  1  0  0  0
 51 52  1  0  0  0
 51121  1  0  0  0
 51122  1  0  0  0
 52123  1  0  0  0
 52124  1  0  0  0
 53 54  1  0  0  0
 54 55  2  0  0  0
 54125  1  0  0  0
 55 57  1  0  0  0
 55126  1  0  0  0
 56 69  2  0  0  0
 57 58  2  0  0  0
 57127  1  0  0  0
 58128  1  0  0  0
 59 60  1  0  0  0
 59 61  1  0  0  0
 59 62  1  0  0  0
 60129  1  0  0  0
 60130  1  0  0  0
 60131  1  0  0  0
 61132  1  0  0  0
 61133  1  0  0  0
 61134  1  0  0  0
 62135  1  0  0  0
 62136  1  0  0  0
 62137  1  0  0  0
 63 65  1  0  0  0
 63138  1  0  0  0
 63139  1  0  0  0
 63140  1  0  0  0
 64141  1  0  0  0
 65142  1  0  0  0
 68 80  1  0  0  0
 71 74  2  0  0  0
 71 75  1  0  0  0
 71143  1  0  0  0
 72 74  1  0  0  0
 72 76  2  0  0  0
 72144  1  0  0  0
 73 75  2  0  0  0
 73 76  1  0  0  0
 73145  1  0  0  0
 74 79  1  0  0  0
 75 80  1  0  0  0
 76 81  1  0  0  0
 77 78  1  0  0  0
 77 82  1  0  0  0
 77 83  2  0  0  0
 78146  1  0  0  0
 78147  1  0  0  0
 78148  1  0  0  0
 79 82  1  0  0  0
 79149  1  0  0  0
 79150  1  0  0  0
 80151  1  0  0  0
 80152  1  0  0  0
 81153  1  0  0  0
 82154  1  0  0  0
M  ISO  4   1 100  68 101  80 101  81 100
M  END
> <chiral flag>
0

> <version>
0

> <s_m_source_file>
/data/baiqing/PycharmProjects/Reinvent-master-3.2/result/LINK_invent/BTK/process_docking_weight1_custom_sum_contain_oxygen_bond_distance_aromatic_linkinvent_7_9_3/rearranged_h_0004.sdf

> <i_m_source_file_index>
54

> <r_mmod_Potential_Energy-OPLS-2005>
2951.38256835938

> <r_mmod_Stretch_Energy-OPLS-2005>
1266.17529296875

> <r_mmod_Bend_Energy-OPLS-2005>
883.446716308594

> <r_mmod_Torsional_Energy-OPLS-2005>
247.075378417969

> <r_mmod_Improper_Torsional_Energy-OPLS-2005>
8.2421236038208

> <r_mmod_Van_der_Waal_Energy-OPLS-2005>
122.669609069824

> <r_mmod_Electrostatic_Energy-OPLS-2005>
-442.460571289062

> <r_mmod_Solvation_Energy-OPLS-2005>
-248.202194213867

> <b_mmod_Minimization_Converged-OPLS-2005>
0

> <r_mmod_RMS_Derivative-OPLS-2005>
2.7174608707428

$$$$
54
                    3D
 Structure written by MMmdl.
157164  0  0  1  0            999 V2000
  -30.6753  -14.4341   20.6025 C   0  0  0  0  0  0
  -30.4386  -12.3022   19.3972 C   0  0  0  0  0  0
  -29.4950  -12.5280   18.1964 C   0  0  0  0  0  0
  -28.0121  -12.4020   18.6046 C   0  0  0  0  0  0
  -27.6729  -13.1987   19.8933 C   0  0  2  0  0  0
  -28.7140  -12.9032   20.9968 C   0  0  0  0  0  0
  -25.2647  -13.8137   20.5672 C   0  0  0  0  0  0
  -24.1862  -13.0437   20.9150 C   0  0  0  0  0  0
  -24.6400  -11.6905   20.8729 C   0  0  0  0  0  0
  -23.9051  -10.4291   21.0398 C   0  0  0  0  0  0
  -24.3605   -9.4203   21.9169 C   0  0  0  0  0  0
  -23.6286   -8.2234   22.0738 C   0  0  0  0  0  0
  -22.4269   -8.0277   21.3533 C   0  0  0  0  0  0
  -21.9889   -9.0252   20.4649 C   0  0  0  0  0  0
  -22.7213  -10.2139   20.3059 C   0  0  0  0  0  0
  -21.6852   -6.0725   22.5273 C   0  0  0  0  0  0
  -21.4011   -6.5628   23.8208 C   0  0  0  0  0  0
  -21.3660   -5.6786   24.9167 C   0  0  0  0  0  0
  -21.6052   -4.3047   24.7227 C   0  0  0  0  0  0
  -21.8820   -3.8139   23.4345 C   0  0  0  0  0  0
  -21.9196   -4.6952   22.3408 C   0  0  0  0  0  0
  -22.7891  -13.5270   21.1802 C   0  0  0  0  0  0
  -22.1660   -4.2143   21.0982 F   0  0  0  0  0  0
  -21.5638   -3.4531   25.7733 F   0  0  0  0  0  0
  -30.0484  -13.2358   20.4638 N   0  0  0  0  0  0
  -26.3090  -12.9293   20.3440 N   0  0  0  0  0  0
  -25.9335  -11.6459   20.5780 N   0  0  0  0  0  0
  -22.0514  -12.8304   22.0378 N   0  0  0  0  0  0
  -25.4414  -15.1835   20.4059 N   0  0  0  0  0  0
  -31.7573  -14.7026   20.0700 O   0  0  0  0  0  0
  -21.6639   -6.8866   21.4236 O   0  0  0  0  0  0
  -22.3591  -14.5555   20.6617 O   0  0  0  0  0  0
  -24.6128  -31.8682   23.2095 C   0  0  0  0  0  0
  -25.9011  -32.4834   23.8396 C   0  0  1  0  0  0
  -27.2510  -27.4694   20.0959 C   0  0  0  0  0  0
  -25.5886  -33.8631   24.2348 N   0  0  0  0  0  0
  -23.3998  -30.4882   21.5482 C   0  0  2  0  0  0
  -24.8484  -28.9509   20.1177 C   0  0  0  0  0  0
  -22.7410  -29.4651   22.5006 C   0  0  0  0  0  0
  -18.0258  -28.1412   22.8498 C   0  0  0  0  0  0
  -24.1476  -36.7331   23.2641 C   0  0  0  0  0  0
  -25.9187  -30.8506   21.3441 C   0  0  0  0  0  0
  -26.0029  -29.4811   20.7060 C   0  0  0  0  0  0
  -27.2062  -28.7492   20.6844 C   0  0  0  0  0  0
  -26.0794  -26.9364   19.5137 C   0  0  0  0  0  0
  -24.8805  -27.6783   19.5174 C   0  0  0  0  0  0
  -23.6068  -29.8120   20.1649 C   0  0  0  0  0  0
  -25.4088  -36.3132   24.0357 C   0  0  1  0  0  0
  -20.5848  -28.3674   23.1357 C   0  0  2  0  0  0
  -20.6751  -26.9419   22.5434 C   0  0  0  0  0  0
  -19.5727  -26.6418   21.5230 C   0  0  0  0  0  0
  -18.1898  -26.7959   22.1626 C   0  0  0  0  0  0
  -19.1511  -28.8855   23.2928 C   0  0  0  0  0  0
  -18.9444  -30.1461   23.8942 C   0  0  0  0  0  0
  -17.6446  -30.6606   24.0595 C   0  0  0  0  0  0
  -25.9011  -34.9491   23.5150 C   0  0  0  0  0  0
  -16.5338  -29.9120   23.6330 C   0  0  0  0  0  0
  -16.7252  -28.6553   23.0326 C   0  0  0  0  0  0
  -26.4449  -31.6604   25.0704 C   0  0  0  0  0  0
  -25.3746  -31.3711   26.1491 C   0  0  0  0  0  0
  -27.0231  -30.3062   24.5981 C   0  0  0  0  0  0
  -27.6069  -32.4290   25.7430 C   0  0  0  0  0  0
  -27.5572  -37.1816   24.8474 C   0  0  0  0  0  0
  -21.4133  -29.3047   22.3775 N   0  0  0  0  0  0
  -26.4289  -37.3806   23.9420 N   0  0  0  0  0  0
  -24.6630  -31.0820   22.0960 N   0  0  0  0  0  0
  -23.4206  -28.8190   23.3018 O   0  0  0  0  0  0
  -28.4550  -26.8115   20.0690 O   0  0  0  0  0  0
  -26.5570  -34.8944   22.4705 O   0  0  0  0  0  0
  -23.5333  -32.1381   23.7538 O   0  0  0  0  0  0
  -31.2304  -21.8355   20.5379 C   0  0  0  0  0  0
  -29.8433  -22.5258   20.2424 C   0  0  0  0  0  0
  -29.5639  -19.1538   21.7447 C   0  0  0  0  0  0
  -30.1515  -17.7504   22.0221 C   0  0  0  0  0  0
  -30.3379  -20.3255   22.3846 C   0  0  0  0  0  0
  -29.9017  -16.7915   20.8448 C   0  0  0  0  0  0
  -28.8616  -24.5714   19.2029 C   0  0  0  0  0  0
  -28.4705  -25.4330   20.4191 C   0  0  0  0  0  0
  -31.3417  -20.8671   21.4677 N   0  0  0  0  0  0
  -29.9478  -23.6526   19.5312 N   0  0  0  0  0  0
  -29.9322  -15.3725   21.2100 N   0  0  0  0  0  0
  -32.2230  -22.2067   19.9035 O   0  0  0  0  0  0
  -28.7603  -22.0749   20.6280 O   0  0  0  0  0  0
  -31.4743  -12.4447   19.0826 H   0  0  0  0  0  0
  -30.3757  -11.2720   19.7513 H   0  0  0  0  0  0
  -29.7271  -11.8208   17.3981 H   0  0  0  0  0  0
  -29.6695  -13.5198   17.7765 H   0  0  0  0  0  0
  -27.7929  -11.3438   18.7491 H   0  0  0  0  0  0
  -27.3724  -12.7345   17.7859 H   0  0  0  0  0  0
  -27.7385  -14.2595   19.6473 H   0  0  0  0  0  0
  -28.6861  -11.8435   21.2563 H   0  0  0  0  0  0
  -28.4782  -13.4275   21.9243 H   0  0  0  0  0  0
  -25.2758   -9.5685   22.4723 H   0  0  0  0  0  0
  -24.0009   -7.4631   22.7453 H   0  0  0  0  0  0
  -21.0804   -8.8780   19.8970 H   0  0  0  0  0  0
  -22.3657  -10.9678   19.6177 H   0  0  0  0  0  0
  -21.1986   -7.6137   23.9708 H   0  0  0  0  0  0
  -21.1483   -6.0512   25.9074 H   0  0  0  0  0  0
  -22.0596   -2.7602   23.2852 H   0  0  0  0  0  0
  -22.4143  -12.0024   22.4855 H   0  0  0  0  0  0
  -21.1124  -13.1354   22.2536 H   0  0  0  0  0  0
  -24.6812  -15.8464   20.5098 H   0  0  0  0  0  0
  -26.3025  -15.6113   20.0897 H   0  0  0  0  0  0
  -26.7087  -32.5571   23.1185 H   0  0  0  0  0  0
  -25.0114  -33.9792   25.0547 H   0  0  0  0  0  0
  -22.6873  -31.3038   21.4057 H   0  0  0  0  0  0
  -23.3732  -35.9673   23.3334 H   0  0  0  0  0  0
  -24.3572  -36.8891   22.2049 H   0  0  0  0  0  0
  -23.7231  -37.6556   23.6607 H   0  0  0  0  0  0
  -25.9958  -31.6022   20.5579 H   0  0  0  0  0  0
  -26.8225  -30.9351   21.9361 H   0  0  0  0  0  0
  -28.1052  -29.1620   21.1196 H   0  0  0  0  0  0
  -26.0958  -25.9656   19.0395 H   0  0  0  0  0  0
  -23.9934  -27.2690   19.0537 H   0  0  0  0  0  0
  -23.7094  -30.5805   19.3984 H   0  0  0  0  0  0
  -22.7335  -29.2233   19.8762 H   0  0  0  0  0  0
  -25.1248  -36.2020   25.0853 H   0  0  0  0  0  0
  -20.9936  -28.3227   24.1482 H   0  0  0  0  0  0
  -20.5663  -26.2277   23.3605 H   0  0  0  0  0  0
  -21.6615  -26.7466   22.1213 H   0  0  0  0  0  0
  -19.6884  -25.6347   21.1214 H   0  0  0  0  0  0
  -19.6673  -27.3275   20.6802 H   0  0  0  0  0  0
  -17.4177  -26.6749   21.4015 H   0  0  0  0  0  0
  -18.0266  -26.0091   22.9009 H   0  0  0  0  0  0
  -19.7915  -30.7270   24.2329 H   0  0  0  0  0  0
  -17.5000  -31.6273   24.5220 H   0  0  0  0  0  0
  -15.5345  -30.3047   23.7625 H   0  0  0  0  0  0
  -15.8645  -28.0907   22.6988 H   0  0  0  0  0  0
  -24.5994  -30.6925   25.7906 H   0  0  0  0  0  0
  -24.8834  -32.2852   26.4850 H   0  0  0  0  0  0
  -25.8160  -30.9029   27.0303 H   0  0  0  0  0  0
  -26.2719  -29.6870   24.1062 H   0  0  0  0  0  0
  -27.4082  -29.7241   25.4364 H   0  0  0  0  0  0
  -27.8515  -30.4412   23.9018 H   0  0  0  0  0  0
  -27.2753  -33.3629   26.1983 H   0  0  0  0  0  0
  -28.3883  -32.6775   25.0234 H   0  0  0  0  0  0
  -28.0717  -31.8405   26.5353 H   0  0  0  0  0  0
  -28.2632  -38.0075   24.7495 H   0  0  0  0  0  0
  -28.1025  -36.2614   24.6322 H   0  0  0  0  0  0
  -27.2306  -37.1513   25.8886 H   0  0  0  0  0  0
  -20.9296  -29.8820   21.7039 H   0  0  0  0  0  0
  -26.0194  -38.2892   24.1431 H   0  0  0  0  0  0
  -28.5387  -19.1755   22.1175 H   0  0  0  0  0  0
  -29.4683  -19.3213   20.6699 H   0  0  0  0  0  0
  -29.7002  -17.3580   22.9353 H   0  0  0  0  0  0
  -31.2253  -17.8056   22.2102 H   0  0  0  0  0  0
  -30.8360  -19.9973   23.2968 H   0  0  0  0  0  0
  -29.6579  -21.1128   22.7115 H   0  0  0  0  0  0
  -30.6056  -17.0159   20.0399 H   0  0  0  0  0  0
  -28.9071  -16.9808   20.4364 H   0  0  0  0  0  0
  -29.2021  -25.2057   18.3840 H   0  0  0  0  0  0
  -27.9911  -24.0306   18.8267 H   0  0  0  0  0  0
  -29.2227  -25.3413   21.2042 H   0  0  0  0  0  0
  -27.5394  -25.0867   20.8701 H   0  0  0  0  0  0
  -32.2665  -20.4685   21.5538 H   0  0  0  0  0  0
  -30.8907  -23.8951   19.2505 H   0  0  0  0  0  0
  -29.1095  -15.0209   21.6786 H   0  0  0  0  0  0
  1 25  1  0  0  0
  1 30  2  0  0  0
  1 81  1  0  0  0
  2  3  1  0  0  0
  2 25  1  0  0  0
  2 84  1  0  0  0
  2 85  1  0  0  0
  3  4  1  0  0  0
  3 86  1  0  0  0
  3 87  1  0  0  0
  4  5  1  0  0  0
  4 88  1  0  0  0
  4 89  1  0  0  0
  5  6  1  0  0  0
  5 26  1  0  0  0
  5 90  1  0  0  0
  6 25  1  0  0  0
  6 91  1  0  0  0
  6 92  1  0  0  0
  7  8  2  0  0  0
  7 26  1  0  0  0
  7 29  1  0  0  0
  8  9  1  0  0  0
  8 22  1  0  0  0
  9 10  1  0  0  0
  9 27  2  0  0  0
 10 11  2  0  0  0
 10 15  1  0  0  0
 11 12  1  0  0  0
 11 93  1  0  0  0
 12 13  2  0  0  0
 12 94  1  0  0  0
 13 14  1  0  0  0
 13 31  1  0  0  0
 14 15  2  0  0  0
 14 95  1  0  0  0
 15 96  1  0  0  0
 16 17  2  0  0  0
 16 21  1  0  0  0
 16 31  1  0  0  0
 17 18  1  0  0  0
 17 97  1  0  0  0
 18 19  2  0  0  0
 18 98  1  0  0  0
 19 20  1  0  0  0
 19 24  1  0  0  0
 20 21  2  0  0  0
 20 99  1  0  0  0
 21 23  1  0  0  0
 22 28  1  0  0  0
 22 32  2  0  0  0
 26 27  1  0  0  0
 28100  1  0  0  0
 28101  1  0  0  0
 29102  1  0  0  0
 29103  1  0  0  0
 33 34  1  0  0  0
 33 66  1  0  0  0
 33 70  2  0  0  0
 34 36  1  0  0  0
 34 59  1  0  0  0
 34104  1  0  0  0
 35 44  2  0  0  0
 35 45  1  0  0  0
 35 68  1  0  0  0
 36 56  1  0  0  0
 36105  1  0  0  0
 37 39  1  0  0  0
 37 47  1  0  0  0
 37 66  1  0  0  0
 37106  1  0  0  0
 38 43  2  0  0  0
 38 46  1  0  0  0
 38 47  1  0  0  0
 39 64  1  0  0  0
 39 67  2  0  0  0
 40 52  1  0  0  0
 40 53  2  0  0  0
 40 58  1  0  0  0
 41107  1  0  0  0
 41108  1  0  0  0
 41109  1  0  0  0
 41 48  1  0  0  0
 42 43  1  0  0  0
 42 66  1  0  0  0
 42110  1  0  0  0
 42111  1  0  0  0
 43 44  1  0  0  0
 44112  1  0  0  0
 45 46  2  0  0  0
 45113  1  0  0  0
 46114  1  0  0  0
 47115  1  0  0  0
 47116  1  0  0  0
 48 56  1  0  0  0
 48 65  1  0  0  0
 48117  1  0  0  0
 49 50  1  0  0  0
 49 53  1  0  0  0
 49 64  1  0  0  0
 49118  1  0  0  0
 50 51  1  0  0  0
 50119  1  0  0  0
 50120  1  0  0  0
 51 52  1  0  0  0
 51121  1  0  0  0
 51122  1  0  0  0
 52123  1  0  0  0
 52124  1  0  0  0
 53 54  1  0  0  0
 54 55  2  0  0  0
 54125  1  0  0  0
 55 57  1  0  0  0
 55126  1  0  0  0
 56 69  2  0  0  0
 57 58  2  0  0  0
 57127  1  0  0  0
 58128  1  0  0  0
 59 60  1  0  0  0
 59 61  1  0  0  0
 59 62  1  0  0  0
 60129  1  0  0  0
 60130  1  0  0  0
 60131  1  0  0  0
 61132  1  0  0  0
 61133  1  0  0  0
 61134  1  0  0  0
 62135  1  0  0  0
 62136  1  0  0  0
 62137  1  0  0  0
 63 65  1  0  0  0
 63138  1  0  0  0
 63139  1  0  0  0
 63140  1  0  0  0
 64141  1  0  0  0
 65142  1  0  0  0
 68 78  1  0  0  0
 71 72  1  0  0  0
 71 79  1  0  0  0
 71 82  2  0  0  0
 72 80  1  0  0  0
 72 83  2  0  0  0
 73 74  1  0  0  0
 73 75  1  0  0  0
 73143  1  0  0  0
 73144  1  0  0  0
 74 76  1  0  0  0
 74145  1  0  0  0
 74146  1  0  0  0
 75 79  1  0  0  0
 75147  1  0  0  0
 75148  1  0  0  0
 76 81  1  0  0  0
 76149  1  0  0  0
 76150  1  0  0  0
 77 78  1  0  0  0
 77 80  1  0  0  0
 77151  1  0  0  0
 77152  1  0  0  0
 78153  1  0  0  0
 78154  1  0  0  0
 79155  1  0  0  0
 80156  1  0  0  0
 81157  1  0  0  0
M  ISO  4   1 100  68 101  78 101  81 100
M  END
> <chiral flag>
0

> <version>
0

> <s_m_source_file>
/data/baiqing/PycharmProjects/Reinvent-master-3.2/result/LINK_invent/BTK/process_docking_weight1_custom_sum_contain_oxygen_bond_distance_aromatic_linkinvent_7_9_3/rearranged_h_0004.sdf

> <i_m_source_file_index>
55

> <r_mmod_Potential_Energy-OPLS-2005>
-121.598358154297

> <r_mmod_Stretch_Energy-OPLS-2005>
34.0401649475098

> <r_mmod_Bend_Energy-OPLS-2005>
107.370300292969

> <r_mmod_Torsional_Energy-OPLS-2005>
259.258148193359

> <r_mmod_Improper_Torsional_Energy-OPLS-2005>
5.83604001998901

> <r_mmod_Van_der_Waal_Energy-OPLS-2005>
141.837341308594

> <r_mmod_Electrostatic_Energy-OPLS-2005>
-430.710906982422

> <r_mmod_Solvation_Energy-OPLS-2005>
-249.00178527832

> <b_mmod_Minimization_Converged-OPLS-2005>
0

> <r_mmod_RMS_Derivative-OPLS-2005>
2.77304673194885

$$$$
55
                    3D
 Structure written by MMmdl.
180188  0  0  1  0            999 V2000
  -30.7342  -14.3663   20.6676 C   0  0  0  0  0  0
  -30.4099  -12.2697   19.4152 C   0  0  0  0  0  0
  -29.4875  -12.5379   18.2095 C   0  0  0  0  0  0
  -28.0092  -12.3867   18.6163 C   0  0  0  0  0  0
  -27.6639  -13.2041   19.8890 C   0  0  2  0  0  0
  -28.6947  -12.9265   21.0084 C   0  0  0  0  0  0
  -25.2569  -13.8155   20.5707 C   0  0  0  0  0  0
  -24.1802  -13.0434   20.9179 C   0  0  0  0  0  0
  -24.6361  -11.6896   20.8730 C   0  0  0  0  0  0
  -23.9053  -10.4276   21.0403 C   0  0  0  0  0  0
  -24.3625   -9.4194   21.9174 C   0  0  0  0  0  0
  -23.6296   -8.2234   22.0748 C   0  0  0  0  0  0
  -22.4281   -8.0275   21.3536 C   0  0  0  0  0  0
  -21.9911   -9.0248   20.4641 C   0  0  0  0  0  0
  -22.7240  -10.2118   20.3044 C   0  0  0  0  0  0
  -21.6844   -6.0732   22.5281 C   0  0  0  0  0  0
  -21.3996   -6.5638   23.8214 C   0  0  0  0  0  0
  -21.3662   -5.6796   24.9181 C   0  0  0  0  0  0
  -21.6050   -4.3055   24.7237 C   0  0  0  0  0  0
  -21.8815   -3.8142   23.4354 C   0  0  0  0  0  0
  -21.9178   -4.6953   22.3411 C   0  0  0  0  0  0
  -22.7845  -13.5222   21.1881 C   0  0  0  0  0  0
  -22.1653   -4.2149   21.0985 F   0  0  0  0  0  0
  -21.5649   -3.4542   25.7747 F   0  0  0  0  0  0
  -30.0507  -13.2064   20.4894 N   0  0  0  0  0  0
  -26.3007  -12.9331   20.3418 N   0  0  0  0  0  0
  -25.9283  -11.6490   20.5782 N   0  0  0  0  0  0
  -22.0495  -12.8170   22.0421 N   0  0  0  0  0  0
  -25.4303  -15.1876   20.4176 N   0  0  0  0  0  0
  -31.7623  -14.6633   20.0468 O   0  0  0  0  0  0
  -21.6639   -6.8869   21.4241 O   0  0  0  0  0  0
  -22.3512  -14.5551   20.6759 O   0  0  0  0  0  0
  -24.6121  -31.8719   23.2171 C   0  0  0  0  0  0
  -25.9008  -32.4837   23.8481 C   0  0  1  0  0  0
  -27.2229  -27.4562   20.0798 C   0  0  0  0  0  0
  -25.5904  -33.8649   24.2420 N   0  0  0  0  0  0
  -23.3967  -30.5102   21.5492 C   0  0  2  0  0  0
  -24.8384  -28.9787   20.1199 C   0  0  0  0  0  0
  -22.7347  -29.4775   22.4877 C   0  0  0  0  0  0
  -18.0278  -28.1397   22.8375 C   0  0  0  0  0  0
  -24.1467  -36.7333   23.2627 C   0  0  0  0  0  0
  -25.9286  -30.8528   21.3598 C   0  0  0  0  0  0
  -26.0027  -29.4876   20.7073 C   0  0  0  0  0  0
  -27.1999  -28.7346   20.6799 C   0  0  0  0  0  0
  -26.0202  -26.9494   19.5498 C   0  0  0  0  0  0
  -24.8384  -27.7034   19.5404 C   0  0  0  0  0  0
  -23.6064  -29.8509   20.1614 C   0  0  0  0  0  0
  -25.4081  -36.3135   24.0346 C   0  0  1  0  0  0
  -20.5829  -28.3796   23.1257 C   0  0  2  0  0  0
  -20.6777  -26.9519   22.5404 C   0  0  0  0  0  0
  -19.5832  -26.6419   21.5156 C   0  0  0  0  0  0
  -18.1952  -26.7980   22.1441 C   0  0  0  0  0  0
  -19.1478  -28.8888   23.2848 C   0  0  0  0  0  0
  -18.9352  -30.1465   23.8896 C   0  0  0  0  0  0
  -17.6335  -30.6577   24.0487 C   0  0  0  0  0  0
  -25.9013  -34.9485   23.5180 C   0  0  0  0  0  0
  -16.5267  -29.9059   23.6178 C   0  0  0  0  0  0
  -16.7246  -28.6491   23.0205 C   0  0  0  0  0  0
  -26.4442  -31.6585   25.0788 C   0  0  0  0  0  0
  -25.3716  -31.3671   26.1546 C   0  0  0  0  0  0
  -27.0304  -30.3047   24.6126 C   0  0  0  0  0  0
  -27.6034  -32.4266   25.7566 C   0  0  0  0  0  0
  -27.5567  -37.1819   24.8467 C   0  0  0  0  0  0
  -21.4050  -29.3233   22.3686 N   0  0  0  0  0  0
  -26.4279  -37.3808   23.9411 N   0  0  0  0  0  0
  -24.6654  -31.0910   22.1023 N   0  0  0  0  0  0
  -23.4148  -28.8193   23.2806 O   0  0  0  0  0  0
  -28.4091  -26.7534   20.0315 O   0  0  0  0  0  0
  -26.5553  -34.8936   22.4729 O   0  0  0  0  0  0
  -23.5314  -32.1391   23.7622 O   0  0  0  0  0  0
  -29.2678  -16.8144   19.9543 C   0  0  0  0  0  0
  -28.6112  -18.0268   19.7119 C   0  0  0  0  0  0
  -29.6125  -17.4729   22.2756 C   0  0  0  0  0  0
  -29.0057  -18.7273   22.0269 C   0  0  0  0  0  0
  -29.7298  -16.5066   21.2537 C   0  0  0  0  0  0
  -28.4322  -18.9708   20.7470 C   0  0  0  0  0  0
  -26.4586  -24.3090   17.1519 C   0  0  0  0  0  0
  -28.1483  -20.9301   19.4274 C   0  0  0  0  0  0
  -27.4601  -25.4623   16.9791 C   0  0  0  0  0  0
  -28.6889  -25.4100   17.9286 C   0  0  0  0  0  0
  -23.7245  -22.6311   19.8538 C   0  0  0  0  0  0
  -25.0870  -21.9220   19.8126 C   0  0  0  0  0  0
  -23.6694  -23.9238   19.0185 C   0  0  0  0  0  0
  -25.2176  -20.7902   20.8413 C   0  0  0  0  0  0
  -24.0324  -23.7765   17.5193 C   0  0  0  0  0  0
  -26.2143  -19.6866   20.4432 C   0  0  0  0  0  0
  -28.4472  -25.4337   19.4626 C   0  0  0  0  0  0
  -28.9451  -19.7700   23.1462 C   0  0  0  0  0  0
  -30.2017  -15.2042   21.5652 N   0  0  0  0  0  0
  -25.1567  -24.6364   17.1454 N   0  0  0  0  0  0
  -27.6228  -20.0915   20.5011 N   0  0  0  0  0  0
  -26.8623  -23.1599   17.3203 O   0  0  0  0  0  0
  -29.8477  -19.5123   24.0953 F   0  0  0  0  0  0
  -29.2167  -20.9975   22.6948 F   0  0  0  0  0  0
  -27.7385  -19.7720   23.7162 F   0  0  0  0  0  0
  -31.4562  -12.3525   19.1211 H   0  0  0  0  0  0
  -30.2813  -11.2449   19.7667 H   0  0  0  0  0  0
  -29.7269  -11.8545   17.3950 H   0  0  0  0  0  0
  -29.6628  -13.5433   17.8243 H   0  0  0  0  0  0
  -27.8166  -11.3283   18.7934 H   0  0  0  0  0  0
  -27.3587  -12.6754   17.7920 H   0  0  0  0  0  0
  -27.7226  -14.2620   19.6286 H   0  0  0  0  0  0
  -28.6422  -11.8804   21.3182 H   0  0  0  0  0  0
  -28.4364  -13.4961   21.9015 H   0  0  0  0  0  0
  -25.2770   -9.5669   22.4751 H   0  0  0  0  0  0
  -24.0007   -7.4618   22.7456 H   0  0  0  0  0  0
  -21.0854   -8.8745   19.8948 H   0  0  0  0  0  0
  -22.3698  -10.9651   19.6147 H   0  0  0  0  0  0
  -21.1978   -7.6147   23.9712 H   0  0  0  0  0  0
  -21.1504   -6.0532   25.9085 H   0  0  0  0  0  0
  -22.0592   -2.7608   23.2853 H   0  0  0  0  0  0
  -22.4179  -11.9837   22.4750 H   0  0  0  0  0  0
  -21.1097  -13.1128   22.2674 H   0  0  0  0  0  0
  -24.6685  -15.8424   20.5471 H   0  0  0  0  0  0
  -26.2949  -15.6305   20.1357 H   0  0  0  0  0  0
  -26.7101  -32.5582   23.1276 H   0  0  0  0  0  0
  -25.0140  -33.9826   25.0626 H   0  0  0  0  0  0
  -22.6866  -31.3276   21.4148 H   0  0  0  0  0  0
  -23.3715  -35.9676   23.3301 H   0  0  0  0  0  0
  -24.3552  -36.8934   22.2042 H   0  0  0  0  0  0
  -23.7238  -37.6557   23.6626 H   0  0  0  0  0  0
  -26.0254  -31.6139   20.5867 H   0  0  0  0  0  0
  -26.8264  -30.9196   21.9631 H   0  0  0  0  0  0
  -28.1043  -29.1314   21.1203 H   0  0  0  0  0  0
  -25.9745  -25.9613   19.1482 H   0  0  0  0  0  0
  -23.9363  -27.2953   19.1072 H   0  0  0  0  0  0
  -23.7289  -30.6309   19.4091 H   0  0  0  0  0  0
  -22.7277  -29.2820   19.8479 H   0  0  0  0  0  0
  -25.1237  -36.2028   25.0837 H   0  0  0  0  0  0
  -20.9952  -28.3443   24.1370 H   0  0  0  0  0  0
  -20.5577  -26.2457   23.3618 H   0  0  0  0  0  0
  -21.6682  -26.7513   22.1306 H   0  0  0  0  0  0
  -19.7067  -25.6286   21.1301 H   0  0  0  0  0  0
  -19.6826  -27.3135   20.6626 H   0  0  0  0  0  0
  -17.4336  -26.6779   21.3720 H   0  0  0  0  0  0
  -18.0218  -26.0082   22.8756 H   0  0  0  0  0  0
  -19.7799  -30.7285   24.2329 H   0  0  0  0  0  0
  -17.4833  -31.6260   24.5053 H   0  0  0  0  0  0
  -15.5253  -30.2947   23.7416 H   0  0  0  0  0  0
  -15.8682  -28.0822   22.6831 H   0  0  0  0  0  0
  -24.5857  -30.7046   25.7910 H   0  0  0  0  0  0
  -24.8908  -32.2809   26.5052 H   0  0  0  0  0  0
  -25.8042  -30.8814   27.0300 H   0  0  0  0  0  0
  -26.2904  -29.6794   24.1115 H   0  0  0  0  0  0
  -27.4074  -29.7266   25.4587 H   0  0  0  0  0  0
  -27.8707  -30.4427   23.9303 H   0  0  0  0  0  0
  -27.2694  -33.3551   26.2198 H   0  0  0  0  0  0
  -28.3834  -32.6821   25.0389 H   0  0  0  0  0  0
  -28.0697  -31.8338   26.5443 H   0  0  0  0  0  0
  -28.2591  -38.0107   24.7471 H   0  0  0  0  0  0
  -28.1043  -36.2637   24.6311 H   0  0  0  0  0  0
  -27.2277  -37.1507   25.8868 H   0  0  0  0  0  0
  -20.9136  -29.9164   21.7120 H   0  0  0  0  0  0
  -26.0159  -38.2879   24.1440 H   0  0  0  0  0  0
  -29.3521  -16.1084   19.1403 H   0  0  0  0  0  0
  -28.2087  -18.2012   18.7240 H   0  0  0  0  0  0
  -29.9668  -17.2448   23.2712 H   0  0  0  0  0  0
  -29.2238  -20.7974   19.2991 H   0  0  0  0  0  0
  -27.9877  -21.9851   19.6489 H   0  0  0  0  0  0
  -27.6656  -20.6967   18.4772 H   0  0  0  0  0  0
  -26.9551  -26.4222   17.0735 H   0  0  0  0  0  0
  -27.8107  -25.4295   15.9475 H   0  0  0  0  0  0
  -29.3587  -26.2305   17.6726 H   0  0  0  0  0  0
  -29.2484  -24.5018   17.6906 H   0  0  0  0  0  0
  -23.4937  -22.8957   20.8879 H   0  0  0  0  0  0
  -22.9429  -21.9427   19.5309 H   0  0  0  0  0  0
  -25.8904  -22.6417   19.9676 H   0  0  0  0  0  0
  -25.2365  -21.5096   18.8164 H   0  0  0  0  0  0
  -24.3043  -24.6658   19.4970 H   0  0  0  0  0  0
  -22.6628  -24.3379   19.0952 H   0  0  0  0  0  0
  -24.2396  -20.3207   20.9530 H   0  0  0  0  0  0
  -25.4611  -21.1944   21.8264 H   0  0  0  0  0  0
  -23.1773  -24.0853   16.9188 H   0  0  0  0  0  0
  -24.2143  -22.7380   17.2410 H   0  0  0  0  0  0
  -25.9744  -19.3102   19.4465 H   0  0  0  0  0  0
  -26.0554  -18.8425   21.1202 H   0  0  0  0  0  0
  -29.3213  -24.9696   19.9237 H   0  0  0  0  0  0
  -27.6211  -24.7953   19.7776 H   0  0  0  0  0  0
  -29.6715  -14.7381   22.2886 H   0  0  0  0  0  0
  -24.9277  -25.6000   16.9392 H   0  0  0  0  0  0
  1 25  1  0  0  0
  1 30  2  0  0  0
  1 89  1  0  0  0
  2  3  1  0  0  0
  2 25  1  0  0  0
  2 96  1  0  0  0
  2 97  1  0  0  0
  3  4  1  0  0  0
  3 98  1  0  0  0
  3 99  1  0  0  0
  4  5  1  0  0  0
  4100  1  0  0  0
  4101  1  0  0  0
  5  6  1  0  0  0
  5 26  1  0  0  0
  5102  1  0  0  0
  6 25  1  0  0  0
  6103  1  0  0  0
  6104  1  0  0  0
  7  8  2  0  0  0
  7 26  1  0  0  0
  7 29  1  0  0  0
  8  9  1  0  0  0
  8 22  1  0  0  0
  9 10  1  0  0  0
  9 27  2  0  0  0
 10 11  2  0  0  0
 10 15  1  0  0  0
 11 12  1  0  0  0
 11105  1  0  0  0
 12 13  2  0  0  0
 12106  1  0  0  0
 13 14  1  0  0  0
 13 31  1  0  0  0
 14 15  2  0  0  0
 14107  1  0  0  0
 15108  1  0  0  0
 16 17  2  0  0  0
 16 21  1  0  0  0
 16 31  1  0  0  0
 17 18  1  0  0  0
 17109  1  0  0  0
 18 19  2  0  0  0
 18110  1  0  0  0
 19 20  1  0  0  0
 19 24  1  0  0  0
 20 21  2  0  0  0
 20111  1  0  0  0
 21 23  1  0  0  0
 22 28  1  0  0  0
 22 32  2  0  0  0
 26 27  1  0  0  0
 28112  1  0  0  0
 28113  1  0  0  0
 29114  1  0  0  0
 29115  1  0  0  0
 33 34  1  0  0  0
 33 66  1  0  0  0
 33 70  2  0  0  0
 34 36  1  0  0  0
 34 59  1  0  0  0
 34116  1  0  0  0
 35 44  2  0  0  0
 35 45  1  0  0  0
 35 68  1  0  0  0
 36 56  1  0  0  0
 36117  1  0  0  0
 37 39  1  0  0  0
 37 47  1  0  0  0
 37 66  1  0  0  0
 37118  1  0  0  0
 38 43  2  0  0  0
 38 46  1  0  0  0
 38 47  1  0  0  0
 39 64  1  0  0  0
 39 67  2  0  0  0
 40 52  1  0  0  0
 40 53  2  0  0  0
 40 58  1  0  0  0
 41119  1  0  0  0
 41120  1  0  0  0
 41121  1  0  0  0
 41 48  1  0  0  0
 42 43  1  0  0  0
 42 66  1  0  0  0
 42122  1  0  0  0
 42123  1  0  0  0
 43 44  1  0  0  0
 44124  1  0  0  0
 45 46  2  0  0  0
 45125  1  0  0  0
 46126  1  0  0  0
 47127  1  0  0  0
 47128  1  0  0  0
 48 56  1  0  0  0
 48 65  1  0  0  0
 48129  1  0  0  0
 49 50  1  0  0  0
 49 53  1  0  0  0
 49 64  1  0  0  0
 49130  1  0  0  0
 50 51  1  0  0  0
 50131  1  0  0  0
 50132  1  0  0  0
 51 52  1  0  0  0
 51133  1  0  0  0
 51134  1  0  0  0
 52135  1  0  0  0
 52136  1  0  0  0
 53 54  1  0  0  0
 54 55  2  0  0  0
 54137  1  0  0  0
 55 57  1  0  0  0
 55138  1  0  0  0
 56 69  2  0  0  0
 57 58  2  0  0  0
 57139  1  0  0  0
 58140  1  0  0  0
 59 60  1  0  0  0
 59 61  1  0  0  0
 59 62  1  0  0  0
 60141  1  0  0  0
 60142  1  0  0  0
 60143  1  0  0  0
 61144  1  0  0  0
 61145  1  0  0  0
 61146  1  0  0  0
 62147  1  0  0  0
 62148  1  0  0  0
 62149  1  0  0  0
 63 65  1  0  0  0
 63150  1  0  0  0
 63151  1  0  0  0
 63152  1  0  0  0
 64153  1  0  0  0
 65154  1  0  0  0
 68 87  1  0  0  0
 71 72  2  0  0  0
 71 75  1  0  0  0
 71155  1  0  0  0
 72 76  1  0  0  0
 72156  1  0  0  0
 73 74  1  0  0  0
 73 75  2  0  0  0
 73157  1  0  0  0
 74 76  2  0  0  0
 74 88  1  0  0  0
 75 89  1  0  0  0
 76 91  1  0  0  0
 77 79  1  0  0  0
 77 90  1  0  0  0
 77 92  2  0  0  0
 78 91  1  0  0  0
 78158  1  0  0  0
 78159  1  0  0  0
 78160  1  0  0  0
 79 80  1  0  0  0
 79161  1  0  0  0
 79162  1  0  0  0
 80 87  1  0  0  0
 80163  1  0  0  0
 80164  1  0  0  0
 81 82  1  0  0  0
 81 83  1  0  0  0
 81165  1  0  0  0
 81166  1  0  0  0
 82 84  1  0  0  0
 82167  1  0  0  0
 82168  1  0  0  0
 83 85  1  0  0  0
 83169  1  0  0  0
 83170  1  0  0  0
 84 86  1  0  0  0
 84171  1  0  0  0
 84172  1  0  0  0
 85 90  1  0  0  0
 85173  1  0  0  0
 85174  1  0  0  0
 86 91  1  0  0  0
 86175  1  0  0  0
 86176  1  0  0  0
 87177  1  0  0  0
 87178  1  0  0  0
 88 93  1  0  0  0
 88 94  1  0  0  0
 88 95  1  0  0  0
 89179  1  0  0  0
 90180  1  0  0  0
M  ISO  4   1 100  68 101  87 101  89 100
M  END
> <chiral flag>
0

> <version>
0

> <s_m_source_file>
/data/baiqing/PycharmProjects/Reinvent-master-3.2/result/LINK_invent/BTK/process_docking_weight1_custom_sum_contain_oxygen_bond_distance_aromatic_linkinvent_7_9_3/rearranged_h_0004.sdf

> <i_m_source_file_index>
56

> <r_mmod_Potential_Energy-OPLS-2005>
-0.225097239017487

> <r_mmod_Stretch_Energy-OPLS-2005>
38.1115531921387

> <r_mmod_Bend_Energy-OPLS-2005>
114.718605041504

> <r_mmod_Torsional_Energy-OPLS-2005>
285.281066894531

> <r_mmod_Improper_Torsional_Energy-OPLS-2005>
9.65640735626221

> <r_mmod_Van_der_Waal_Energy-OPLS-2005>
150.667037963867

> <r_mmod_Electrostatic_Energy-OPLS-2005>
-374.472137451172

> <r_mmod_Solvation_Energy-OPLS-2005>
-232.323532104492

> <b_mmod_Minimization_Converged-OPLS-2005>
0

> <r_mmod_RMS_Derivative-OPLS-2005>
4.30993843078613

$$$$
56
                    3D
 Structure written by MMmdl.
152160  0  0  1  0            999 V2000
  -30.2540  -15.6521   20.3258 C   0  0  0  0  0  0
  -30.4365  -13.0793   19.5652 C   0  0  0  0  0  0
  -29.5678  -12.6701   18.3373 C   0  0  0  0  0  0
  -28.1334  -12.3115   18.7594 C   0  0  0  0  0  0
  -27.5985  -13.3111   19.8093 C   0  0  2  0  0  0
  -28.6054  -13.6304   20.9364 C   0  0  0  0  0  0
  -25.2342  -13.8290   20.5761 C   0  0  0  0  0  0
  -24.1727  -13.0444   20.9256 C   0  0  0  0  0  0
  -24.6421  -11.6953   20.8717 C   0  0  0  0  0  0
  -23.9122  -10.4300   21.0360 C   0  0  0  0  0  0
  -24.3660   -9.4222   21.9151 C   0  0  0  0  0  0
  -23.6330   -8.2255   22.0733 C   0  0  0  0  0  0
  -22.4308   -8.0278   21.3526 C   0  0  0  0  0  0
  -21.9945   -9.0254   20.4626 C   0  0  0  0  0  0
  -22.7280  -10.2134   20.3024 C   0  0  0  0  0  0
  -21.6865   -6.0737   22.5275 C   0  0  0  0  0  0
  -21.4020   -6.5640   23.8213 C   0  0  0  0  0  0
  -21.3673   -5.6787   24.9176 C   0  0  0  0  0  0
  -21.6054   -4.3047   24.7217 C   0  0  0  0  0  0
  -21.8823   -3.8144   23.4334 C   0  0  0  0  0  0
  -21.9197   -4.6964   22.3392 C   0  0  0  0  0  0
  -22.7743  -13.5178   21.1918 C   0  0  0  0  0  0
  -22.1662   -4.2153   21.0969 F   0  0  0  0  0  0
  -21.5643   -3.4524   25.7727 F   0  0  0  0  0  0
  -29.7975  -14.2554   20.3155 N   0  0  0  0  0  0
  -26.2779  -12.9624   20.3152 N   0  0  0  0  0  0
  -25.9369  -11.6691   20.5632 N   0  0  0  0  0  0
  -22.0411  -12.8150   22.0466 N   0  0  0  0  0  0
  -25.3963  -15.2029   20.4264 N   0  0  0  0  0  0
  -31.4860  -15.6107   20.1345 O   0  0  0  0  0  0
  -21.6661   -6.8876   21.4233 O   0  0  0  0  0  0
  -22.3414  -14.5475   20.6759 O   0  0  0  0  0  0
  -24.6863  -31.7974   23.1494 C   0  0  0  0  0  0
  -25.9431  -32.4455   23.8059 C   0  0  1  0  0  0
  -27.2266  -26.6757   20.2234 C   0  0  0  0  0  0
  -25.6002  -33.8283   24.1939 N   0  0  0  0  0  0
  -23.5140  -30.3970   21.5047 C   0  0  2  0  0  0
  -24.9722  -28.7328   20.1198 C   0  0  0  0  0  0
  -22.7784  -29.4296   22.4710 C   0  0  0  0  0  0
  -18.0342  -28.1419   22.8462 C   0  0  0  0  0  0
  -24.1490  -36.7142   23.2650 C   0  0  0  0  0  0
  -26.0960  -30.5215   21.4187 C   0  0  0  0  0  0
  -26.1608  -29.0829   20.7709 C   0  0  0  0  0  0
  -27.2724  -28.0840   20.7876 C   0  0  0  0  0  0
  -26.0048  -26.5413   19.5138 C   0  0  0  0  0  0
  -24.9351  -27.4882   19.4662 C   0  0  0  0  0  0
  -23.7698  -29.6919   20.1409 C   0  0  0  0  0  0
  -25.4146  -36.2896   24.0279 C   0  0  1  0  0  0
  -20.5981  -28.3776   23.1140 C   0  0  2  0  0  0
  -20.6808  -26.9432   22.5408 C   0  0  0  0  0  0
  -19.5780  -26.6366   21.5225 C   0  0  0  0  0  0
  -18.1962  -26.7948   22.1626 C   0  0  0  0  0  0
  -19.1609  -28.8927   23.2782 C   0  0  0  0  0  0
  -18.9511  -30.1509   23.8828 C   0  0  0  0  0  0
  -17.6499  -30.6604   24.0547 C   0  0  0  0  0  0
  -25.9129  -34.9281   23.4951 C   0  0  0  0  0  0
  -16.5389  -29.9083   23.6349 C   0  0  0  0  0  0
  -16.7321  -28.6503   23.0375 C   0  0  0  0  0  0
  -26.4606  -31.6496   25.0685 C   0  0  0  0  0  0
  -25.3662  -31.3830   26.1293 C   0  0  0  0  0  0
  -27.0540  -30.2830   24.6599 C   0  0  0  0  0  0
  -27.6053  -32.4362   25.7506 C   0  0  0  0  0  0
  -27.5555  -37.1743   24.8474 C   0  0  0  0  0  0
  -21.4431  -29.3015   22.3464 N   0  0  0  0  0  0
  -26.4277  -37.3652   23.9395 N   0  0  0  0  0  0
  -24.7895  -30.9390   22.0763 N   0  0  0  0  0  0
  -23.4217  -28.7906   23.3068 O   0  0  0  0  0  0
  -28.1837  -25.4436   20.3036 O   0  0  0  0  0  0
  -26.5772  -34.8865   22.4569 O   0  0  0  0  0  0
  -23.5872  -32.1063   23.6423 O   0  0  0  0  0  0
  -30.2633  -22.1859   20.6720 C   0  0  0  0  0  0
  -31.1446  -21.0699   20.8619 C   0  0  0  0  0  0
  -28.6304  -20.4943   20.2424 C   0  0  0  0  0  0
  -28.8925  -22.0851   20.3494 C   0  0  0  0  0  0
  -29.5493  -19.1736   20.4188 C   0  0  0  0  0  0
  -30.8403  -19.6598   20.7610 C   0  0  0  0  0  0
  -29.3341  -17.3055   20.3893 C   0  0  0  0  0  0
  -27.9384  -23.6940   20.1757 C   0  0  0  0  0  0
  -33.0012  -19.0512   21.6548 C   0  0  0  0  0  0
  -33.8312  -17.7956   21.9450 C   0  0  0  0  0  0
  -31.7853  -18.6844   21.0047 O   0  0  0  0  0  0
  -34.3353  -17.2909   20.8169 F   0  0  0  0  0  0
  -31.4335  -13.3452   19.2126 H   0  0  0  0  0  0
  -30.5906  -12.2279   20.2306 H   0  0  0  0  0  0
  -30.0265  -11.8346   17.8071 H   0  0  0  0  0  0
  -29.5382  -13.5018   17.6325 H   0  0  0  0  0  0
  -28.1473  -11.3072   19.1838 H   0  0  0  0  0  0
  -27.4761  -12.2714   17.8897 H   0  0  0  0  0  0
  -27.4678  -14.2394   19.2514 H   0  0  0  0  0  0
  -28.8508  -12.7417   21.5191 H   0  0  0  0  0  0
  -28.1663  -14.3404   21.6387 H   0  0  0  0  0  0
  -25.2794   -9.5715   22.4742 H   0  0  0  0  0  0
  -24.0038   -7.4655   22.7462 H   0  0  0  0  0  0
  -21.0871   -8.8778   19.8936 H   0  0  0  0  0  0
  -22.3715  -10.9677   19.6146 H   0  0  0  0  0  0
  -21.1995   -7.6145   23.9717 H   0  0  0  0  0  0
  -21.1506   -6.0512   25.9083 H   0  0  0  0  0  0
  -22.0584   -2.7602   23.2833 H   0  0  0  0  0  0
  -22.4049  -11.9841   22.4893 H   0  0  0  0  0  0
  -21.1009  -13.1127   22.2640 H   0  0  0  0  0  0
  -24.6287  -15.8532   20.5511 H   0  0  0  0  0  0
  -26.2481  -15.6491   20.1112 H   0  0  0  0  0  0
  -26.7516  -32.4928   23.0776 H   0  0  0  0  0  0
  -25.0079  -33.9330   25.0046 H   0  0  0  0  0  0
  -22.8400  -31.2347   21.3133 H   0  0  0  0  0  0
  -23.3769  -35.9459   23.3321 H   0  0  0  0  0  0
  -24.3530  -36.8797   22.2058 H   0  0  0  0  0  0
  -23.7247  -37.6322   23.6728 H   0  0  0  0  0  0
  -26.3023  -31.2441   20.6283 H   0  0  0  0  0  0
  -26.9450  -30.5888   22.0863 H   0  0  0  0  0  0
  -28.1665  -28.3589   21.3294 H   0  0  0  0  0  0
  -25.8326  -25.5992   19.0124 H   0  0  0  0  0  0
  -24.0399  -27.2116   18.9261 H   0  0  0  0  0  0
  -23.9482  -30.4514   19.3793 H   0  0  0  0  0  0
  -22.8743  -29.1606   19.8142 H   0  0  0  0  0  0
  -25.1362  -36.1669   25.0771 H   0  0  0  0  0  0
  -21.0058  -28.3400   24.1271 H   0  0  0  0  0  0
  -20.5669  -26.2400   23.3674 H   0  0  0  0  0  0
  -21.6666  -26.7373   22.1222 H   0  0  0  0  0  0
  -19.6933  -25.6260   21.1297 H   0  0  0  0  0  0
  -19.6726  -27.3138   20.6725 H   0  0  0  0  0  0
  -17.4235  -26.6699   21.4023 H   0  0  0  0  0  0
  -18.0343  -26.0103   22.9031 H   0  0  0  0  0  0
  -19.7985  -30.7343   24.2165 H   0  0  0  0  0  0
  -17.5048  -31.6275   24.5158 H   0  0  0  0  0  0
  -15.5384  -30.2959   23.7714 H   0  0  0  0  0  0
  -15.8723  -28.0789   22.7139 H   0  0  0  0  0  0
  -24.5851  -30.7187   25.7583 H   0  0  0  0  0  0
  -24.8852  -32.3061   26.4530 H   0  0  0  0  0  0
  -25.7812  -30.9098   27.0201 H   0  0  0  0  0  0
  -26.3260  -29.6441   24.1587 H   0  0  0  0  0  0
  -27.3962  -29.7277   25.5344 H   0  0  0  0  0  0
  -27.9249  -30.3957   24.0138 H   0  0  0  0  0  0
  -27.2588  -33.3728   26.1890 H   0  0  0  0  0  0
  -28.3959  -32.6820   25.0402 H   0  0  0  0  0  0
  -28.0625  -31.8625   26.5579 H   0  0  0  0  0  0
  -28.2586  -38.0021   24.7465 H   0  0  0  0  0  0
  -28.1046  -36.2547   24.6397 H   0  0  0  0  0  0
  -27.2261  -37.1479   25.8875 H   0  0  0  0  0  0
  -20.9747  -29.8667   21.6521 H   0  0  0  0  0  0
  -26.0118  -38.2713   24.1380 H   0  0  0  0  0  0
  -30.6745  -23.1792   20.7918 H   0  0  0  0  0  0
  -32.1521  -21.3663   21.1100 H   0  0  0  0  0  0
  -27.6015  -20.2595   20.0082 H   0  0  0  0  0  0
  -28.6372  -17.1829   19.5609 H   0  0  0  0  0  0
  -28.7109  -17.1520   21.2700 H   0  0  0  0  0  0
  -27.0965  -23.5323   20.8490 H   0  0  0  0  0  0
  -27.4969  -23.5920   19.1846 H   0  0  0  0  0  0
  -33.5887  -19.7314   21.0372 H   0  0  0  0  0  0
  -32.7736  -19.5554   22.5955 H   0  0  0  0  0  0
  -33.2392  -17.0228   22.4357 H   0  0  0  0  0  0
  -34.6776  -18.0331   22.5899 H   0  0  0  0  0  0
  1 25  1  0  0  0
  1 30  2  0  0  0
  1 77  1  0  0  0
  2  3  1  0  0  0
  2 25  1  0  0  0
  2 83  1  0  0  0
  2 84  1  0  0  0
  3  4  1  0  0  0
  3 85  1  0  0  0
  3 86  1  0  0  0
  4  5  1  0  0  0
  4 87  1  0  0  0
  4 88  1  0  0  0
  5  6  1  0  0  0
  5 26  1  0  0  0
  5 89  1  0  0  0
  6 25  1  0  0  0
  6 90  1  0  0  0
  6 91  1  0  0  0
  7  8  2  0  0  0
  7 26  1  0  0  0
  7 29  1  0  0  0
  8  9  1  0  0  0
  8 22  1  0  0  0
  9 10  1  0  0  0
  9 27  2  0  0  0
 10 11  2  0  0  0
 10 15  1  0  0  0
 11 12  1  0  0  0
 11 92  1  0  0  0
 12 13  2  0  0  0
 12 93  1  0  0  0
 13 14  1  0  0  0
 13 31  1  0  0  0
 14 15  2  0  0  0
 14 94  1  0  0  0
 15 95  1  0  0  0
 16 17  2  0  0  0
 16 21  1  0  0  0
 16 31  1  0  0  0
 17 18  1  0  0  0
 17 96  1  0  0  0
 18 19  2  0  0  0
 18 97  1  0  0  0
 19 20  1  0  0  0
 19 24  1  0  0  0
 20 21  2  0  0  0
 20 98  1  0  0  0
 21 23  1  0  0  0
 22 28  1  0  0  0
 22 32  2  0  0  0
 26 27  1  0  0  0
 28 99  1  0  0  0
 28100  1  0  0  0
 29101  1  0  0  0
 29102  1  0  0  0
 33 34  1  0  0  0
 33 66  1  0  0  0
 33 70  2  0  0  0
 34 36  1  0  0  0
 34 59  1  0  0  0
 34103  1  0  0  0
 35 44  2  0  0  0
 35 45  1  0  0  0
 35 68  1  0  0  0
 36 56  1  0  0  0
 36104  1  0  0  0
 37 39  1  0  0  0
 37 47  1  0  0  0
 37 66  1  0  0  0
 37105  1  0  0  0
 38 43  2  0  0  0
 38 46  1  0  0  0
 38 47  1  0  0  0
 39 64  1  0  0  0
 39 67  2  0  0  0
 40 52  1  0  0  0
 40 53  2  0  0  0
 40 58  1  0  0  0
 41106  1  0  0  0
 41107  1  0  0  0
 41108  1  0  0  0
 41 48  1  0  0  0
 42 43  1  0  0  0
 42 66  1  0  0  0
 42109  1  0  0  0
 42110  1  0  0  0
 43 44  1  0  0  0
 44111  1  0  0  0
 45 46  2  0  0  0
 45112  1  0  0  0
 46113  1  0  0  0
 47114  1  0  0  0
 47115  1  0  0  0
 48 56  1  0  0  0
 48 65  1  0  0  0
 48116  1  0  0  0
 49 50  1  0  0  0
 49 53  1  0  0  0
 49 64  1  0  0  0
 49117  1  0  0  0
 50 51  1  0  0  0
 50118  1  0  0  0
 50119  1  0  0  0
 51 52  1  0  0  0
 51120  1  0  0  0
 51121  1  0  0  0
 52122  1  0  0  0
 52123  1  0  0  0
 53 54  1  0  0  0
 54 55  2  0  0  0
 54124  1  0  0  0
 55 57  1  0  0  0
 55125  1  0  0  0
 56 69  2  0  0  0
 57 58  2  0  0  0
 57126  1  0  0  0
 58127  1  0  0  0
 59 60  1  0  0  0
 59 61  1  0  0  0
 59 62  1  0  0  0
 60128  1  0  0  0
 60129  1  0  0  0
 60130  1  0  0  0
 61131  1  0  0  0
 61132  1  0  0  0
 61133  1  0  0  0
 62134  1  0  0  0
 62135  1  0  0  0
 62136  1  0  0  0
 63 65  1  0  0  0
 63137  1  0  0  0
 63138  1  0  0  0
 63139  1  0  0  0
 64140  1  0  0  0
 65141  1  0  0  0
 68 78  1  0  0  0
 71 72  2  0  0  0
 71 74  1  0  0  0
 71142  1  0  0  0
 72 76  1  0  0  0
 72143  1  0  0  0
 73 74  2  0  0  0
 73 75  1  0  0  0
 73144  1  0  0  0
 74 78  1  0  0  0
 75 76  2  0  0  0
 75 77  1  0  0  0
 76 81  1  0  0  0
 77145  1  0  0  0
 77146  1  0  0  0
 78147  1  0  0  0
 78148  1  0  0  0
 79 80  1  0  0  0
 79 81  1  0  0  0
 79149  1  0  0  0
 79150  1  0  0  0
 80 82  1  0  0  0
 80151  1  0  0  0
 80152  1  0  0  0
M  ISO  4   1 100  68 101  77 100  78 101
M  END
> <chiral flag>
0

> <version>
0

> <s_m_source_file>
/data/baiqing/PycharmProjects/Reinvent-master-3.2/result/LINK_invent/BTK/process_docking_weight1_custom_sum_contain_oxygen_bond_distance_aromatic_linkinvent_7_9_3/rearranged_h_0004.sdf

> <i_m_source_file_index>
57

> <r_mmod_Potential_Energy-OPLS-2005>
2488.05590820312

> <r_mmod_Stretch_Energy-OPLS-2005>
1127.783203125

> <r_mmod_Bend_Energy-OPLS-2005>
615.658630371094

> <r_mmod_Torsional_Energy-OPLS-2005>
192.167999267578

> <r_mmod_Improper_Torsional_Energy-OPLS-2005>
3.24186062812805

> <r_mmod_Van_der_Waal_Energy-OPLS-2005>
127.240257263184

> <r_mmod_Electrostatic_Energy-OPLS-2005>
-300.974853515625

> <r_mmod_Solvation_Energy-OPLS-2005>
-217.544921875

> <b_mmod_Minimization_Converged-OPLS-2005>
0

> <r_mmod_RMS_Derivative-OPLS-2005>
1.48600673675537

$$$$
57
                    3D
 Structure written by MMmdl.
158166  0  0  1  0            999 V2000
  -30.6754  -14.4077   20.5761 C   0  0  0  0  0  0
  -30.4301  -12.2734   19.3801 C   0  0  0  0  0  0
  -29.4849  -12.5328   18.1864 C   0  0  0  0  0  0
  -28.0037  -12.4070   18.6030 C   0  0  0  0  0  0
  -27.6728  -13.1940   19.8979 C   0  0  2  0  0  0
  -28.7208  -12.8794   20.9911 C   0  0  0  0  0  0
  -25.2656  -13.8116   20.5734 C   0  0  0  0  0  0
  -24.1868  -13.0409   20.9175 C   0  0  0  0  0  0
  -24.6403  -11.6870   20.8697 C   0  0  0  0  0  0
  -23.9047  -10.4270   21.0373 C   0  0  0  0  0  0
  -24.3603   -9.4191   21.9156 C   0  0  0  0  0  0
  -23.6281   -8.2219   22.0731 C   0  0  0  0  0  0
  -22.4255   -8.0251   21.3534 C   0  0  0  0  0  0
  -21.9876   -9.0219   20.4636 C   0  0  0  0  0  0
  -22.7205  -10.2103   20.3038 C   0  0  0  0  0  0
  -21.6847   -6.0714   22.5282 C   0  0  0  0  0  0
  -21.3986   -6.5630   23.8201 C   0  0  0  0  0  0
  -21.3653   -5.6794   24.9168 C   0  0  0  0  0  0
  -21.6049   -4.3055   24.7235 C   0  0  0  0  0  0
  -21.8826   -3.8135   23.4361 C   0  0  0  0  0  0
  -21.9214   -4.6943   22.3409 C   0  0  0  0  0  0
  -22.7904  -13.5223   21.1872 C   0  0  0  0  0  0
  -22.1684   -4.2122   21.0992 F   0  0  0  0  0  0
  -21.5631   -3.4553   25.7755 F   0  0  0  0  0  0
  -30.0511  -13.2101   20.4464 N   0  0  0  0  0  0
  -26.3102  -12.9273   20.3507 N   0  0  0  0  0  0
  -25.9340  -11.6432   20.5765 N   0  0  0  0  0  0
  -22.0583  -12.8168   22.0439 N   0  0  0  0  0  0
  -25.4385  -15.1835   20.4195 N   0  0  0  0  0  0
  -31.7870  -14.6632   20.1041 O   0  0  0  0  0  0
  -21.6640   -6.8842   21.4233 O   0  0  0  0  0  0
  -22.3573  -14.5564   20.6795 O   0  0  0  0  0  0
  -24.6103  -31.8702   23.2124 C   0  0  0  0  0  0
  -25.9014  -32.4848   23.8403 C   0  0  1  0  0  0
  -27.2503  -27.4834   20.0868 C   0  0  0  0  0  0
  -25.5906  -33.8644   24.2335 N   0  0  0  0  0  0
  -23.3993  -30.4906   21.5501 C   0  0  2  0  0  0
  -24.8533  -28.9660   20.1090 C   0  0  0  0  0  0
  -22.7398  -29.4650   22.4989 C   0  0  0  0  0  0
  -18.0273  -28.1371   22.8466 C   0  0  0  0  0  0
  -24.1420  -36.7269   23.2553 C   0  0  0  0  0  0
  -25.9216  -30.8530   21.3578 C   0  0  0  0  0  0
  -26.0078  -29.4923   20.7006 C   0  0  0  0  0  0
  -27.2123  -28.7569   20.6885 C   0  0  0  0  0  0
  -26.0808  -26.9534   19.5042 C   0  0  0  0  0  0
  -24.8825  -27.6952   19.5057 C   0  0  0  0  0  0
  -23.6077  -29.8225   20.1636 C   0  0  0  0  0  0
  -25.4005  -36.3108   24.0342 C   0  0  1  0  0  0
  -20.5856  -28.3631   23.1317 C   0  0  2  0  0  0
  -20.6760  -26.9346   22.5463 C   0  0  0  0  0  0
  -19.5786  -26.6348   21.5218 C   0  0  0  0  0  0
  -18.1909  -26.7958   22.1506 C   0  0  0  0  0  0
  -19.1525  -28.8814   23.2895 C   0  0  0  0  0  0
  -18.9459  -30.1424   23.8914 C   0  0  0  0  0  0
  -17.6459  -30.6573   24.0570 C   0  0  0  0  0  0
  -25.9043  -34.9515   23.5150 C   0  0  0  0  0  0
  -16.5345  -29.9072   23.6347 C   0  0  0  0  0  0
  -16.7267  -28.6492   23.0358 C   0  0  0  0  0  0
  -26.4464  -31.6631   25.0720 C   0  0  0  0  0  0
  -25.3770  -31.3807   26.1527 C   0  0  0  0  0  0
  -27.0201  -30.3027   24.6100 C   0  0  0  0  0  0
  -27.6114  -32.4309   25.7420 C   0  0  0  0  0  0
  -27.5737  -37.1494   24.8207 C   0  0  0  0  0  0
  -21.4126  -29.2997   22.3724 N   0  0  0  0  0  0
  -26.4057  -37.3962   23.9798 N   0  0  0  0  0  0
  -24.6614  -31.0833   22.1004 N   0  0  0  0  0  0
  -23.4188  -28.8222   23.3034 O   0  0  0  0  0  0
  -28.3785  -26.7091   20.1442 O   0  0  0  0  0  0
  -26.5647  -34.8993   22.4734 O   0  0  0  0  0  0
  -23.5316  -32.1436   23.7546 O   0  0  0  0  0  0
  -31.5845  -21.7921   21.5040 C   0  0  0  0  0  0
  -29.3509  -21.8530   20.5332 C   0  0  0  0  0  0
  -31.3465  -20.4880   21.9812 C   0  0  0  0  0  0
  -29.1083  -20.5535   21.0266 C   0  0  0  0  0  0
  -30.5845  -22.4940   20.7965 C   0  0  0  0  0  0
  -30.0944  -19.8696   21.7660 C   0  0  0  0  0  0
  -30.3388  -24.5894   19.4563 C   0  0  0  0  0  0
  -30.6110  -26.0996   19.5096 C   0  0  0  0  0  0
  -30.0298  -16.8028   20.8389 C   0  0  0  0  0  0
  -29.3791  -26.9656   19.1697 C   0  0  0  0  0  0
  -30.6109  -17.5505   22.0521 C   0  0  0  0  0  0
  -30.8205  -23.8605   20.4795 N   0  0  0  0  0  0
  -29.8885  -15.3670   21.0740 N   0  0  0  0  0  0
  -29.7458  -24.1003   18.4905 O   0  0  0  0  0  0
  -29.7670  -18.6632   22.3344 O   0  0  0  0  0  0
  -31.4700  -12.3925   19.0737 H   0  0  0  0  0  0
  -30.3372  -11.2423   19.7216 H   0  0  0  0  0  0
  -29.6993  -11.8383   17.3748 H   0  0  0  0  0  0
  -29.6633  -13.5350   17.7892 H   0  0  0  0  0  0
  -27.7846  -11.3485   18.7443 H   0  0  0  0  0  0
  -27.3562  -12.7429   17.7923 H   0  0  0  0  0  0
  -27.7403  -14.2556   19.6608 H   0  0  0  0  0  0
  -28.6925  -11.8165   21.2353 H   0  0  0  0  0  0
  -28.5075  -13.3934   21.9290 H   0  0  0  0  0  0
  -25.2746   -9.5669   22.4733 H   0  0  0  0  0  0
  -24.0004   -7.4614   22.7434 H   0  0  0  0  0  0
  -21.0807   -8.8736   19.8943 H   0  0  0  0  0  0
  -22.3663  -10.9649   19.6148 H   0  0  0  0  0  0
  -21.1926   -7.6141   23.9692 H   0  0  0  0  0  0
  -21.1461   -6.0526   25.9063 H   0  0  0  0  0  0
  -22.0602   -2.7602   23.2887 H   0  0  0  0  0  0
  -22.4208  -11.9762   22.4696 H   0  0  0  0  0  0
  -21.1217  -13.1179   22.2762 H   0  0  0  0  0  0
  -24.6648  -15.8323   20.5184 H   0  0  0  0  0  0
  -26.2990  -15.6330   20.1299 H   0  0  0  0  0  0
  -26.7084  -32.5574   23.1163 H   0  0  0  0  0  0
  -25.0066  -33.9829   25.0481 H   0  0  0  0  0  0
  -22.6881  -31.3075   21.4112 H   0  0  0  0  0  0
  -23.4030  -35.9236   23.2430 H   0  0  0  0  0  0
  -24.3754  -36.9712   22.2183 H   0  0  0  0  0  0
  -23.6588  -37.5945   23.7049 H   0  0  0  0  0  0
  -26.0283  -31.6267   20.5959 H   0  0  0  0  0  0
  -26.8086  -30.9033   21.9773 H   0  0  0  0  0  0
  -28.1041  -29.1565   21.1502 H   0  0  0  0  0  0
  -26.0983  -25.9688   19.0598 H   0  0  0  0  0  0
  -23.9920  -27.2819   19.0531 H   0  0  0  0  0  0
  -23.7078  -30.6009   19.4064 H   0  0  0  0  0  0
  -22.7355  -29.2384   19.8664 H   0  0  0  0  0  0
  -25.1029  -36.1802   25.0774 H   0  0  0  0  0  0
  -20.9934  -28.3198   24.1439 H   0  0  0  0  0  0
  -20.5573  -26.2248   23.3664 H   0  0  0  0  0  0
  -21.6652  -26.7362   22.1307 H   0  0  0  0  0  0
  -19.6932  -25.6249   21.1276 H   0  0  0  0  0  0
  -19.6824  -27.3147   20.6750 H   0  0  0  0  0  0
  -17.4271  -26.6873   21.3792 H   0  0  0  0  0  0
  -18.0134  -26.0025   22.8769 H   0  0  0  0  0  0
  -19.7933  -30.7250   24.2270 H   0  0  0  0  0  0
  -17.5013  -31.6264   24.5137 H   0  0  0  0  0  0
  -15.5352  -30.2984   23.7685 H   0  0  0  0  0  0
  -15.8658  -28.0831   22.7058 H   0  0  0  0  0  0
  -24.5987  -30.7050   25.7967 H   0  0  0  0  0  0
  -24.8902  -32.2976   26.4874 H   0  0  0  0  0  0
  -25.8164  -30.9140   27.0346 H   0  0  0  0  0  0
  -26.2657  -29.6795   24.1276 H   0  0  0  0  0  0
  -27.4027  -29.7296   25.4548 H   0  0  0  0  0  0
  -27.8502  -30.4272   23.9143 H   0  0  0  0  0  0
  -27.2807  -33.3623   26.2031 H   0  0  0  0  0  0
  -28.3898  -32.6844   25.0206 H   0  0  0  0  0  0
  -28.0799  -31.8395   26.5291 H   0  0  0  0  0  0
  -28.1799  -38.0538   24.8970 H   0  0  0  0  0  0
  -28.2106  -36.3684   24.4006 H   0  0  0  0  0  0
  -27.2928  -36.8517   25.8330 H   0  0  0  0  0  0
  -20.9280  -29.8707   21.6948 H   0  0  0  0  0  0
  -25.9888  -38.2711   24.2888 H   0  0  0  0  0  0
  -32.5369  -22.2603   21.7129 H   0  0  0  0  0  0
  -28.5593  -22.3601   20.0011 H   0  0  0  0  0  0
  -32.1134  -19.9939   22.5617 H   0  0  0  0  0  0
  -28.1456  -20.0922   20.8575 H   0  0  0  0  0  0
  -31.4184  -26.3236   18.8123 H   0  0  0  0  0  0
  -30.9788  -26.3783   20.4979 H   0  0  0  0  0  0
  -30.6199  -17.0141   19.9456 H   0  0  0  0  0  0
  -29.0303  -17.1842   20.6170 H   0  0  0  0  0  0
  -29.0053  -26.7418   18.1697 H   0  0  0  0  0  0
  -29.6543  -28.0204   19.1800 H   0  0  0  0  0  0
  -31.6495  -17.8295   21.8763 H   0  0  0  0  0  0
  -30.6157  -16.9076   22.9335 H   0  0  0  0  0  0
  -31.4064  -24.3639   21.1325 H   0  0  0  0  0  0
  -28.9986  -15.0558   21.4399 H   0  0  0  0  0  0
  1 25  1  0  0  0
  1 30  2  0  0  0
  1 83  1  0  0  0
  2  3  1  0  0  0
  2 25  1  0  0  0
  2 86  1  0  0  0
  2 87  1  0  0  0
  3  4  1  0  0  0
  3 88  1  0  0  0
  3 89  1  0  0  0
  4  5  1  0  0  0
  4 90  1  0  0  0
  4 91  1  0  0  0
  5  6  1  0  0  0
  5 26  1  0  0  0
  5 92  1  0  0  0
  6 25  1  0  0  0
  6 93  1  0  0  0
  6 94  1  0  0  0
  7  8  2  0  0  0
  7 26  1  0  0  0
  7 29  1  0  0  0
  8  9  1  0  0  0
  8 22  1  0  0  0
  9 10  1  0  0  0
  9 27  2  0  0  0
 10 11  2  0  0  0
 10 15  1  0  0  0
 11 12  1  0  0  0
 11 95  1  0  0  0
 12 13  2  0  0  0
 12 96  1  0  0  0
 13 14  1  0  0  0
 13 31  1  0  0  0
 14 15  2  0  0  0
 14 97  1  0  0  0
 15 98  1  0  0  0
 16 17  2  0  0  0
 16 21  1  0  0  0
 16 31  1  0  0  0
 17 18  1  0  0  0
 17 99  1  0  0  0
 18 19  2  0  0  0
 18100  1  0  0  0
 19 20  1  0  0  0
 19 24  1  0  0  0
 20 21  2  0  0  0
 20101  1  0  0  0
 21 23  1  0  0  0
 22 28  1  0  0  0
 22 32  2  0  0  0
 26 27  1  0  0  0
 28102  1  0  0  0
 28103  1  0  0  0
 29104  1  0  0  0
 29105  1  0  0  0
 33 34  1  0  0  0
 33 66  1  0  0  0
 33 70  2  0  0  0
 34 36  1  0  0  0
 34 59  1  0  0  0
 34106  1  0  0  0
 35 44  2  0  0  0
 35 45  1  0  0  0
 35 68  1  0  0  0
 36 56  1  0  0  0
 36107  1  0  0  0
 37 39  1  0  0  0
 37 47  1  0  0  0
 37 66  1  0  0  0
 37108  1  0  0  0
 38 43  2  0  0  0
 38 46  1  0  0  0
 38 47  1  0  0  0
 39 64  1  0  0  0
 39 67  2  0  0  0
 40 52  1  0  0  0
 40 53  2  0  0  0
 40 58  1  0  0  0
 41109  1  0  0  0
 41110  1  0  0  0
 41111  1  0  0  0
 41 48  1  0  0  0
 42 43  1  0  0  0
 42 66  1  0  0  0
 42112  1  0  0  0
 42113  1  0  0  0
 43 44  1  0  0  0
 44114  1  0  0  0
 45 46  2  0  0  0
 45115  1  0  0  0
 46116  1  0  0  0
 47117  1  0  0  0
 47118  1  0  0  0
 48 56  1  0  0  0
 48 65  1  0  0  0
 48119  1  0  0  0
 49 50  1  0  0  0
 49 53  1  0  0  0
 49 64  1  0  0  0
 49120  1  0  0  0
 50 51  1  0  0  0
 50121  1  0  0  0
 50122  1  0  0  0
 51 52  1  0  0  0
 51123  1  0  0  0
 51124  1  0  0  0
 52125  1  0  0  0
 52126  1  0  0  0
 53 54  1  0  0  0
 54 55  2  0  0  0
 54127  1  0  0  0
 55 57  1  0  0  0
 55128  1  0  0  0
 56 69  2  0  0  0
 57 58  2  0  0  0
 57129  1  0  0  0
 58130  1  0  0  0
 59 60  1  0  0  0
 59 61  1  0  0  0
 59 62  1  0  0  0
 60131  1  0  0  0
 60132  1  0  0  0
 60133  1  0  0  0
 61134  1  0  0  0
 61135  1  0  0  0
 61136  1  0  0  0
 62137  1  0  0  0
 62138  1  0  0  0
 62139  1  0  0  0
 63 65  1  0  0  0
 63140  1  0  0  0
 63141  1  0  0  0
 63142  1  0  0  0
 64143  1  0  0  0
 65144  1  0  0  0
 68 80  1  0  0  0
 71 73  2  0  0  0
 71 75  1  0  0  0
 71145  1  0  0  0
 72 74  1  0  0  0
 72 75  2  0  0  0
 72146  1  0  0  0
 73 76  1  0  0  0
 73147  1  0  0  0
 74 76  2  0  0  0
 74148  1  0  0  0
 75 82  1  0  0  0
 76 85  1  0  0  0
 77 78  1  0  0  0
 77 82  1  0  0  0
 77 84  2  0  0  0
 78 80  1  0  0  0
 78149  1  0  0  0
 78150  1  0  0  0
 79 81  1  0  0  0
 79 83  1  0  0  0
 79151  1  0  0  0
 79152  1  0  0  0
 80153  1  0  0  0
 80154  1  0  0  0
 81 85  1  0  0  0
 81155  1  0  0  0
 81156  1  0  0  0
 82157  1  0  0  0
 83158  1  0  0  0
M  ISO  4   1 100  68 101  80 101  83 100
M  END
> <chiral flag>
0

> <version>
0

> <s_m_source_file>
/data/baiqing/PycharmProjects/Reinvent-master-3.2/result/LINK_invent/BTK/process_docking_weight1_custom_sum_contain_oxygen_bond_distance_aromatic_linkinvent_7_9_3/rearranged_h_0004.sdf

> <i_m_source_file_index>
58

> <r_mmod_Potential_Energy-OPLS-2005>
-132.118316650391

> <r_mmod_Stretch_Energy-OPLS-2005>
32.2740249633789

> <r_mmod_Bend_Energy-OPLS-2005>
97.378044128418

> <r_mmod_Torsional_Energy-OPLS-2005>
267.380859375

> <r_mmod_Improper_Torsional_Energy-OPLS-2005>
6.64973068237305

> <r_mmod_Van_der_Waal_Energy-OPLS-2005>
152.861846923828

> <r_mmod_Electrostatic_Energy-OPLS-2005>
-463.953338623047

> <r_mmod_Solvation_Energy-OPLS-2005>
-236.79231262207

> <b_mmod_Minimization_Converged-OPLS-2005>
0

> <r_mmod_RMS_Derivative-OPLS-2005>
3.97827410697937

$$$$
58
                    3D
 Structure written by MMmdl.
186194  0  0  1  0            999 V2000
  -30.6486  -14.5477   20.3801 C   0  0  0  0  0  0
  -30.3849  -12.2972   19.4540 C   0  0  0  0  0  0
  -29.4889  -12.4493   18.2014 C   0  0  0  0  0  0
  -27.9919  -12.3908   18.5744 C   0  0  0  0  0  0
  -27.6362  -13.2256   19.8398 C   0  0  2  0  0  0
  -28.6799  -13.0828   20.9708 C   0  0  0  0  0  0
  -25.2458  -13.8102   20.5669 C   0  0  0  0  0  0
  -24.1743  -13.0373   20.9191 C   0  0  0  0  0  0
  -24.6335  -11.6865   20.8706 C   0  0  0  0  0  0
  -23.9017  -10.4248   21.0382 C   0  0  0  0  0  0
  -24.3565   -9.4177   21.9154 C   0  0  0  0  0  0
  -23.6276   -8.2190   22.0737 C   0  0  0  0  0  0
  -22.4245   -8.0258   21.3526 C   0  0  0  0  0  0
  -21.9859   -9.0232   20.4628 C   0  0  0  0  0  0
  -22.7173  -10.2103   20.3030 C   0  0  0  0  0  0
  -21.6867   -6.0706   22.5279 C   0  0  0  0  0  0
  -21.4036   -6.5622   23.8209 C   0  0  0  0  0  0
  -21.3667   -5.6769   24.9167 C   0  0  0  0  0  0
  -21.6068   -4.3039   24.7207 C   0  0  0  0  0  0
  -21.8835   -3.8119   23.4325 C   0  0  0  0  0  0
  -21.9189   -4.6948   22.3368 C   0  0  0  0  0  0
  -22.7769  -13.5196   21.1892 C   0  0  0  0  0  0
  -22.1634   -4.2128   21.0945 F   0  0  0  0  0  0
  -21.5634   -3.4512   25.7704 F   0  0  0  0  0  0
  -29.9978  -13.3538   20.3972 N   0  0  0  0  0  0
  -26.2891  -12.9345   20.3238 N   0  0  0  0  0  0
  -25.9285  -11.6472   20.5682 N   0  0  0  0  0  0
  -22.0361  -12.8247   22.0470 N   0  0  0  0  0  0
  -25.4193  -15.1778   20.4104 N   0  0  0  0  0  0
  -31.8675  -14.6291   20.2141 O   0  0  0  0  0  0
  -21.6638   -6.8848   21.4236 O   0  0  0  0  0  0
  -22.3502  -14.5526   20.6753 O   0  0  0  0  0  0
  -24.6018  -31.8753   23.2179 C   0  0  0  0  0  0
  -25.8985  -32.4846   23.8432 C   0  0  1  0  0  0
  -27.2418  -27.4946   20.0908 C   0  0  0  0  0  0
  -25.5895  -33.8641   24.2345 N   0  0  0  0  0  0
  -23.3847  -30.4981   21.5573 C   0  0  2  0  0  0
  -24.8299  -28.9658   20.1204 C   0  0  0  0  0  0
  -22.7342  -29.4686   22.5063 C   0  0  0  0  0  0
  -18.0234  -28.1372   22.8488 C   0  0  0  0  0  0
  -24.1484  -36.7307   23.2636 C   0  0  0  0  0  0
  -25.9042  -30.8521   21.3662 C   0  0  0  0  0  0
  -25.9794  -29.4886   20.7225 C   0  0  0  0  0  0
  -27.1763  -28.7538   20.7334 C   0  0  0  0  0  0
  -26.0749  -26.9745   19.4944 C   0  0  0  0  0  0
  -24.8668  -27.6993   19.5107 C   0  0  0  0  0  0
  -23.5884  -29.8270   20.1710 C   0  0  0  0  0  0
  -25.4109  -36.3102   24.0325 C   0  0  1  0  0  0
  -20.5819  -28.3631   23.1362 C   0  0  2  0  0  0
  -20.6729  -26.9386   22.5422 C   0  0  0  0  0  0
  -19.5715  -26.6383   21.5203 C   0  0  0  0  0  0
  -18.1889  -26.7919   22.1614 C   0  0  0  0  0  0
  -19.1487  -28.8816   23.2927 C   0  0  0  0  0  0
  -18.9425  -30.1432   23.8923 C   0  0  0  0  0  0
  -17.6438  -30.6593   24.0558 C   0  0  0  0  0  0
  -25.9037  -34.9477   23.5120 C   0  0  0  0  0  0
  -16.5325  -29.9092   23.6335 C   0  0  0  0  0  0
  -16.7229  -28.6510   23.0352 C   0  0  0  0  0  0
  -26.4442  -31.6610   25.0734 C   0  0  0  0  0  0
  -25.3731  -31.3721   26.1502 C   0  0  0  0  0  0
  -27.0242  -30.3033   24.6085 C   0  0  0  0  0  0
  -27.6010  -32.4353   25.7487 C   0  0  0  0  0  0
  -27.5583  -37.1800   24.8456 C   0  0  0  0  0  0
  -21.4086  -29.3021   22.3794 N   0  0  0  0  0  0
  -26.4285  -37.3795   23.9419 N   0  0  0  0  0  0
  -24.6481  -31.0898   22.1064 N   0  0  0  0  0  0
  -23.4157  -28.8246   23.3089 O   0  0  0  0  0  0
  -28.3782  -26.7261   19.9719 O   0  0  0  0  0  0
  -26.5592  -34.8923   22.4680 O   0  0  0  0  0  0
  -23.5246  -32.1508   23.7623 O   0  0  0  0  0  0
  -30.4863  -18.2462   16.7870 C   0  0  0  0  0  0
  -30.9412  -16.9225   16.7806 C   0  0  0  0  0  0
  -29.7786  -18.7204   17.8954 C   0  0  0  0  0  0
  -30.7088  -16.1022   17.8938 C   0  0  0  0  0  0
  -29.4661  -17.8907   19.0060 C   0  0  0  0  0  0
  -30.0028  -16.5525   19.0473 C   0  0  0  0  0  0
  -29.8521  -19.0046   22.2398 C   0  0  0  0  0  0
  -31.3463  -23.2757   20.2493 C   0  0  0  0  0  0
  -25.8098  -20.4243   17.9410 C   0  0  0  0  0  0
  -25.7461  -17.9808   18.5969 C   0  0  0  0  0  0
  -30.5002  -20.1441   23.0293 C   0  0  0  0  0  0
  -31.9709  -20.4030   22.6416 C   0  0  0  0  0  0
  -29.9479  -26.4349   21.7882 C   0  0  0  0  0  0
  -27.5105  -19.5380   19.6061 C   0  0  0  0  0  0
  -32.1807  -21.1336   21.2975 C   0  0  0  0  0  0
  -30.0102  -24.8964   21.6508 C   0  0  0  0  0  0
  -29.6212  -27.1861   20.4885 C   0  0  0  0  0  0
  -28.6031  -18.5278   20.1094 C   0  0  2  0  0  0
  -26.6401  -19.1991   18.3686 C   0  0  0  0  0  0
  -31.8390  -22.9789   19.0448 N   0  0  0  0  0  0
  -29.8592  -15.6383   20.1649 N   0  0  0  0  0  0
  -29.4326  -19.3181   21.0111 N   0  0  0  0  0  0
  -31.4745  -22.4260   21.2764 N   0  0  0  0  0  0
  -30.7093  -24.4450   20.4288 N   0  3  0  0  0  0
  -29.6957  -17.8940   22.7468 O   0  0  0  0  0  0
  -31.4435  -12.3312   19.1931 H   0  0  0  0  0  0
  -30.2286  -11.3152   19.9069 H   0  0  0  0  0  0
  -29.7182  -11.6638   17.4787 H   0  0  0  0  0  0
  -29.7083  -13.3921   17.7001 H   0  0  0  0  0  0
  -27.7087  -11.3470   18.7129 H   0  0  0  0  0  0
  -27.3860  -12.7389   17.7329 H   0  0  0  0  0  0
  -27.6520  -14.2643   19.5082 H   0  0  0  0  0  0
  -28.6543  -12.0724   21.3827 H   0  0  0  0  0  0
  -28.4581  -13.7582   21.7970 H   0  0  0  0  0  0
  -25.2662   -9.5694   22.4775 H   0  0  0  0  0  0
  -24.0034   -7.4588   22.7454 H   0  0  0  0  0  0
  -21.0773   -8.8723   19.8937 H   0  0  0  0  0  0
  -22.3598  -10.9671   19.6162 H   0  0  0  0  0  0
  -21.2052   -7.6129   23.9732 H   0  0  0  0  0  0
  -21.1499   -6.0453   25.9086 H   0  0  0  0  0  0
  -22.0612   -2.7604   23.2786 H   0  0  0  0  0  0
  -22.3909  -11.9916   22.4928 H   0  0  0  0  0  0
  -21.1028  -13.1447   22.2733 H   0  0  0  0  0  0
  -24.6405  -15.8221   20.4851 H   0  0  0  0  0  0
  -26.2478  -15.5949   20.0133 H   0  0  0  0  0  0
  -26.7059  -32.5573   23.1209 H   0  0  0  0  0  0
  -25.0043  -33.9829   25.0480 H   0  0  0  0  0  0
  -22.6669  -31.3112   21.4263 H   0  0  0  0  0  0
  -23.3741  -35.9646   23.3297 H   0  0  0  0  0  0
  -24.3577  -36.8926   22.2055 H   0  0  0  0  0  0
  -23.7248  -37.6514   23.6654 H   0  0  0  0  0  0
  -26.0154  -31.6171   20.5970 H   0  0  0  0  0  0
  -26.7911  -30.9056   21.9852 H   0  0  0  0  0  0
  -28.0181  -29.1924   21.2411 H   0  0  0  0  0  0
  -26.1046  -26.0120   19.0007 H   0  0  0  0  0  0
  -23.9801  -27.2861   19.0478 H   0  0  0  0  0  0
  -23.6879  -30.6026   19.4107 H   0  0  0  0  0  0
  -22.7114  -29.2428   19.8823 H   0  0  0  0  0  0
  -25.1285  -36.1954   25.0811 H   0  0  0  0  0  0
  -20.9893  -28.3174   24.1492 H   0  0  0  0  0  0
  -20.5631  -26.2242   23.3593 H   0  0  0  0  0  0
  -21.6608  -26.7452   22.1220 H   0  0  0  0  0  0
  -19.6880  -25.6301   21.1211 H   0  0  0  0  0  0
  -19.6666  -27.3207   20.6742 H   0  0  0  0  0  0
  -17.4169  -26.6680   21.4005 H   0  0  0  0  0  0
  -18.0293  -26.0061   22.9009 H   0  0  0  0  0  0
  -19.7908  -30.7222   24.2323 H   0  0  0  0  0  0
  -17.5000  -31.6269   24.5162 H   0  0  0  0  0  0
  -15.5330  -30.3008   23.7641 H   0  0  0  0  0  0
  -15.8624  -28.0830   22.7073 H   0  0  0  0  0  0
  -24.5898  -30.7055   25.7876 H   0  0  0  0  0  0
  -24.8926  -32.2875   26.4955 H   0  0  0  0  0  0
  -25.8108  -30.8914   27.0254 H   0  0  0  0  0  0
  -26.2761  -29.6850   24.1090 H   0  0  0  0  0  0
  -27.3946  -29.7216   25.4545 H   0  0  0  0  0  0
  -27.8643  -30.4337   23.9253 H   0  0  0  0  0  0
  -27.2589  -33.3641   26.2064 H   0  0  0  0  0  0
  -28.3791  -32.6945   25.0297 H   0  0  0  0  0  0
  -28.0697  -31.8495   26.5403 H   0  0  0  0  0  0
  -28.2571  -38.0123   24.7519 H   0  0  0  0  0  0
  -28.1094  -36.2646   24.6231 H   0  0  0  0  0  0
  -27.2303  -37.1395   25.8859 H   0  0  0  0  0  0
  -20.9237  -29.8743   21.7020 H   0  0  0  0  0  0
  -26.0152  -38.2859   24.1452 H   0  0  0  0  0  0
  -30.6701  -18.8951   15.9395 H   0  0  0  0  0  0
  -31.4794  -16.5380   15.9286 H   0  0  0  0  0  0
  -29.4379  -19.7467   17.8596 H   0  0  0  0  0  0
  -31.1064  -15.1002   17.8359 H   0  0  0  0  0  0
  -25.2019  -20.2104   17.0605 H   0  0  0  0  0  0
  -26.4482  -21.2708   17.6855 H   0  0  0  0  0  0
  -25.1409  -20.7502   18.7371 H   0  0  0  0  0  0
  -25.2907  -17.6322   17.6689 H   0  0  0  0  0  0
  -24.9459  -18.1943   19.3069 H   0  0  0  0  0  0
  -26.3406  -17.1569   18.9866 H   0  0  0  0  0  0
  -30.4459  -19.8970   24.0903 H   0  0  0  0  0  0
  -29.9005  -21.0482   22.9156 H   0  0  0  0  0  0
  -32.4981  -19.4470   22.6107 H   0  0  0  0  0  0
  -32.4491  -20.9675   23.4435 H   0  0  0  0  0  0
  -30.8834  -26.8089   22.1996 H   0  0  0  0  0  0
  -29.1841  -26.6842   22.5265 H   0  0  0  0  0  0
  -28.0059  -20.4821   19.3732 H   0  0  0  0  0  0
  -26.8524  -19.7897   20.4379 H   0  0  0  0  0  0
  -31.8542  -20.5179   20.4600 H   0  0  0  0  0  0
  -33.2428  -21.3273   21.1473 H   0  0  0  0  0  0
  -29.0055  -24.4712   21.6373 H   0  0  0  0  0  0
  -30.5082  -24.4928   22.5326 H   0  0  0  0  0  0
  -30.3829  -26.9805   19.7374 H   0  0  0  0  0  0
  -29.6913  -28.2625   20.6255 H   0  0  0  0  0  0
  -28.0976  -17.7278   20.6559 H   0  0  0  0  0  0
  -27.2743  -18.9696   17.5126 H   0  0  0  0  0  0
  -32.2825  -22.0907   18.8590 H   0  0  0  0  0  0
  -31.7624  -23.6146   18.2587 H   0  0  0  0  0  0
  -28.9721  -15.6458   20.6435 H   0  0  0  0  0  0
  -29.6344  -20.2565   20.6894 H   0  0  0  0  0  0
  -31.0944  -22.7299   22.1598 H   0  0  0  0  0  0
  -30.5589  -25.0309   19.6217 H   0  0  0  0  0  0
  1 25  1  0  0  0
  1 30  2  0  0  0
  1 91  1  0  0  0
  2  3  1  0  0  0
  2 25  1  0  0  0
  2 96  1  0  0  0
  2 97  1  0  0  0
  3  4  1  0  0  0
  3 98  1  0  0  0
  3 99  1  0  0  0
  4  5  1  0  0  0
  4100  1  0  0  0
  4101  1  0  0  0
  5  6  1  0  0  0
  5 26  1  0  0  0
  5102  1  0  0  0
  6 25  1  0  0  0
  6103  1  0  0  0
  6104  1  0  0  0
  7  8  2  0  0  0
  7 26  1  0  0  0
  7 29  1  0  0  0
  8  9  1  0  0  0
  8 22  1  0  0  0
  9 10  1  0  0  0
  9 27  2  0  0  0
 10 11  2  0  0  0
 10 15  1  0  0  0
 11 12  1  0  0  0
 11105  1  0  0  0
 12 13  2  0  0  0
 12106  1  0  0  0
 13 14  1  0  0  0
 13 31  1  0  0  0
 14 15  2  0  0  0
 14107  1  0  0  0
 15108  1  0  0  0
 16 17  2  0  0  0
 16 21  1  0  0  0
 16 31  1  0  0  0
 17 18  1  0  0  0
 17109  1  0  0  0
 18 19  2  0  0  0
 18110  1  0  0  0
 19 20  1  0  0  0
 19 24  1  0  0  0
 20 21  2  0  0  0
 20111  1  0  0  0
 21 23  1  0  0  0
 22 28  1  0  0  0
 22 32  2  0  0  0
 26 27  1  0  0  0
 28112  1  0  0  0
 28113  1  0  0  0
 29114  1  0  0  0
 29115  1  0  0  0
 33 34  1  0  0  0
 33 66  1  0  0  0
 33 70  2  0  0  0
 34 36  1  0  0  0
 34 59  1  0  0  0
 34116  1  0  0  0
 35 44  2  0  0  0
 35 45  1  0  0  0
 35 68  1  0  0  0
 36 56  1  0  0  0
 36117  1  0  0  0
 37 39  1  0  0  0
 37 47  1  0  0  0
 37 66  1  0  0  0
 37118  1  0  0  0
 38 43  2  0  0  0
 38 46  1  0  0  0
 38 47  1  0  0  0
 39 64  1  0  0  0
 39 67  2  0  0  0
 40 52  1  0  0  0
 40 53  2  0  0  0
 40 58  1  0  0  0
 41119  1  0  0  0
 41120  1  0  0  0
 41121  1  0  0  0
 41 48  1  0  0  0
 42 43  1  0  0  0
 42 66  1  0  0  0
 42122  1  0  0  0
 42123  1  0  0  0
 43 44  1  0  0  0
 44124  1  0  0  0
 45 46  2  0  0  0
 45125  1  0  0  0
 46126  1  0  0  0
 47127  1  0  0  0
 47128  1  0  0  0
 48 56  1  0  0  0
 48 65  1  0  0  0
 48129  1  0  0  0
 49 50  1  0  0  0
 49 53  1  0  0  0
 49 64  1  0  0  0
 49130  1  0  0  0
 50 51  1  0  0  0
 50131  1  0  0  0
 50132  1  0  0  0
 51 52  1  0  0  0
 51133  1  0  0  0
 51134  1  0  0  0
 52135  1  0  0  0
 52136  1  0  0  0
 53 54  1  0  0  0
 54 55  2  0  0  0
 54137  1  0  0  0
 55 57  1  0  0  0
 55138  1  0  0  0
 56 69  2  0  0  0
 57 58  2  0  0  0
 57139  1  0  0  0
 58140  1  0  0  0
 59 60  1  0  0  0
 59 61  1  0  0  0
 59 62  1  0  0  0
 60141  1  0  0  0
 60142  1  0  0  0
 60143  1  0  0  0
 61144  1  0  0  0
 61145  1  0  0  0
 61146  1  0  0  0
 62147  1  0  0  0
 62148  1  0  0  0
 62149  1  0  0  0
 63 65  1  0  0  0
 63150  1  0  0  0
 63151  1  0  0  0
 63152  1  0  0  0
 64153  1  0  0  0
 65154  1  0  0  0
 68 87  1  0  0  0
 71 72  2  0  0  0
 71 73  1  0  0  0
 71155  1  0  0  0
 72 74  1  0  0  0
 72156  1  0  0  0
 73 75  2  0  0  0
 73157  1  0  0  0
 74 76  2  0  0  0
 74158  1  0  0  0
 75 76  1  0  0  0
 75 88  1  0  0  0
 76 91  1  0  0  0
 77 81  1  0  0  0
 77 92  1  0  0  0
 77 95  2  0  0  0
 78 90  1  0  0  0
 78 93  1  0  0  0
 78 94  2  0  0  0
 79159  1  0  0  0
 79160  1  0  0  0
 79161  1  0  0  0
 79 89  1  0  0  0
 80 89  1  0  0  0
 80162  1  0  0  0
 80163  1  0  0  0
 80164  1  0  0  0
 81 82  1  0  0  0
 81165  1  0  0  0
 81166  1  0  0  0
 82 85  1  0  0  0
 82167  1  0  0  0
 82168  1  0  0  0
 83 86  1  0  0  0
 83 87  1  0  0  0
 83169  1  0  0  0
 83170  1  0  0  0
 84 89  1  0  0  0
 84171  1  0  0  0
 84172  1  0  0  0
 84 88  1  0  0  0
 85 93  1  0  0  0
 85173  1  0  0  0
 85174  1  0  0  0
 86 94  1  0  0  0
 86175  1  0  0  0
 86176  1  0  0  0
 87177  1  0  0  0
 87178  1  0  0  0
 88 92  1  0  0  0
 88179  1  0  0  0
 89180  1  0  0  0
 90181  1  0  0  0
 90182  1  0  0  0
 91183  1  0  0  0
 92184  1  0  0  0
 93185  1  0  0  0
 94186  1  0  0  0
M  CHG  1  94   1
M  ISO  4   1 100  68 101  87 101  91 100
M  END
> <chiral flag>
0

> <version>
0

> <s_m_source_file>
/data/baiqing/PycharmProjects/Reinvent-master-3.2/result/LINK_invent/BTK/process_docking_weight1_custom_sum_contain_oxygen_bond_distance_aromatic_linkinvent_7_9_3/rearranged_h_0004.sdf

> <i_m_source_file_index>
59

> <r_mmod_Potential_Energy-OPLS-2005>
-192.691482543945

> <r_mmod_Stretch_Energy-OPLS-2005>
44.5849113464355

> <r_mmod_Bend_Energy-OPLS-2005>
132.940521240234

> <r_mmod_Torsional_Energy-OPLS-2005>
283.812194824219

> <r_mmod_Improper_Torsional_Energy-OPLS-2005>
12.5092344284058

> <r_mmod_Van_der_Waal_Energy-OPLS-2005>
152.285980224609

> <r_mmod_Electrostatic_Energy-OPLS-2005>
-400.816375732422

> <r_mmod_Solvation_Energy-OPLS-2005>
-446.932800292969

> <b_mmod_Minimization_Converged-OPLS-2005>
0

> <r_mmod_RMS_Derivative-OPLS-2005>
6.63052940368652

$$$$
59
                    3D
 Structure written by MMmdl.
153161  0  0  1  0            999 V2000
  -30.6725  -14.5276   20.5814 C   0  0  0  0  0  0
  -30.4342  -12.3212   19.4303 C   0  0  0  0  0  0
  -29.5052  -12.5170   18.2135 C   0  0  0  0  0  0
  -28.0232  -12.3728   18.6184 C   0  0  0  0  0  0
  -27.6597  -13.2094   19.8758 C   0  0  2  0  0  0
  -28.6913  -12.9882   21.0016 C   0  0  0  0  0  0
  -25.2579  -13.8172   20.5665 C   0  0  0  0  0  0
  -24.1838  -13.0447   20.9164 C   0  0  0  0  0  0
  -24.6395  -11.6911   20.8719 C   0  0  0  0  0  0
  -23.9064  -10.4294   21.0403 C   0  0  0  0  0  0
  -24.3619   -9.4215   21.9177 C   0  0  0  0  0  0
  -23.6298   -8.2250   22.0754 C   0  0  0  0  0  0
  -22.4280   -8.0286   21.3545 C   0  0  0  0  0  0
  -21.9907   -9.0257   20.4650 C   0  0  0  0  0  0
  -22.7232  -10.2137   20.3063 C   0  0  0  0  0  0
  -21.6860   -6.0737   22.5281 C   0  0  0  0  0  0
  -21.4011   -6.5642   23.8212 C   0  0  0  0  0  0
  -21.3666   -5.6794   24.9173 C   0  0  0  0  0  0
  -21.6053   -4.3056   24.7221 C   0  0  0  0  0  0
  -21.8823   -3.8146   23.4344 C   0  0  0  0  0  0
  -21.9193   -4.6963   22.3399 C   0  0  0  0  0  0
  -22.7858  -13.5236   21.1832 C   0  0  0  0  0  0
  -22.1665   -4.2150   21.0976 F   0  0  0  0  0  0
  -21.5630   -3.4538   25.7735 F   0  0  0  0  0  0
  -30.0223  -13.2853   20.4576 N   0  0  0  0  0  0
  -26.3004  -12.9338   20.3326 N   0  0  0  0  0  0
  -25.9316  -11.6492   20.5725 N   0  0  0  0  0  0
  -22.0507  -12.8236   22.0397 N   0  0  0  0  0  0
  -25.4311  -15.1890   20.4096 N   0  0  0  0  0  0
  -31.7897  -14.7784   20.1174 O   0  0  0  0  0  0
  -21.6651   -6.8880   21.4245 O   0  0  0  0  0  0
  -22.3538  -14.5543   20.6689 O   0  0  0  0  0  0
  -24.6168  -31.8660   23.2062 C   0  0  0  0  0  0
  -25.9055  -32.4809   23.8368 C   0  0  1  0  0  0
  -27.2327  -27.3955   20.1055 C   0  0  0  0  0  0
  -25.5895  -33.8606   24.2301 N   0  0  0  0  0  0
  -23.4062  -30.4885   21.5476 C   0  0  2  0  0  0
  -24.8505  -28.9476   20.1129 C   0  0  0  0  0  0
  -22.7419  -29.4660   22.4976 C   0  0  0  0  0  0
  -18.0280  -28.1382   22.8497 C   0  0  0  0  0  0
  -24.1482  -36.7309   23.2633 C   0  0  0  0  0  0
  -25.9365  -30.8203   21.3627 C   0  0  0  0  0  0
  -26.0112  -29.4507   20.7112 C   0  0  0  0  0  0
  -27.2003  -28.6823   20.7029 C   0  0  0  0  0  0
  -26.0461  -26.9101   19.5085 C   0  0  0  0  0  0
  -24.8648  -27.6787   19.5087 C   0  0  0  0  0  0
  -23.6139  -29.8188   20.1627 C   0  0  0  0  0  0
  -25.4102  -36.3107   24.0336 C   0  0  1  0  0  0
  -20.5868  -28.3677   23.1304 C   0  0  2  0  0  0
  -20.6769  -26.9406   22.5420 C   0  0  0  0  0  0
  -19.5748  -26.6384   21.5219 C   0  0  0  0  0  0
  -18.1925  -26.7930   22.1628 C   0  0  0  0  0  0
  -19.1526  -28.8844   23.2900 C   0  0  0  0  0  0
  -18.9456  -30.1449   23.8914 C   0  0  0  0  0  0
  -17.6456  -30.6591   24.0564 C   0  0  0  0  0  0
  -25.9042  -34.9472   23.5125 C   0  0  0  0  0  0
  -16.5350  -29.9095   23.6320 C   0  0  0  0  0  0
  -16.7268  -28.6508   23.0349 C   0  0  0  0  0  0
  -26.4465  -31.6598   25.0712 C   0  0  0  0  0  0
  -25.3715  -31.3716   26.1450 C   0  0  0  0  0  0
  -27.0304  -30.3041   24.6105 C   0  0  0  0  0  0
  -27.6043  -32.4311   25.7477 C   0  0  0  0  0  0
  -27.5593  -37.1785   24.8447 C   0  0  0  0  0  0
  -21.4142  -29.3041   22.3700 N   0  0  0  0  0  0
  -26.4280  -37.3803   23.9430 N   0  0  0  0  0  0
  -24.6720  -31.0733   22.0973 N   0  0  0  0  0  0
  -23.4176  -28.8210   23.3039 O   0  0  0  0  0  0
  -28.4177  -26.6734   20.1420 O   0  0  0  0  0  0
  -26.5614  -34.8931   22.4692 O   0  0  0  0  0  0
  -23.5362  -32.1421   23.7445 O   0  0  0  0  0  0
  -31.5339  -18.6062   22.2738 C   0  0  0  0  0  0
  -30.7049  -19.5913   21.6973 C   0  0  0  0  0  0
  -31.2697  -17.2334   22.0786 C   0  0  0  0  0  0
  -29.3324  -17.8242   20.7363 C   0  0  0  0  0  0
  -29.5890  -19.2141   20.9198 C   0  0  0  0  0  0
  -30.1681  -16.8179   21.2972 C   0  0  0  0  0  0
  -28.4508  -22.7419   19.9109 C   0  0  0  0  0  0
  -28.6878  -20.2614   20.2307 C   0  0  0  0  0  0
  -28.2498  -24.1485   20.5462 C   0  0  0  0  0  0
  -28.5298  -25.3447   19.5746 C   0  0  0  0  0  0
  -28.7360  -21.6719   20.6939 N   0  0  0  0  0  0
  -28.3061  -22.6141   18.6933 O   0  0  0  0  0  0
  -29.8420  -15.4725   21.1658 O   0  0  0  0  0  0
  -31.4773  -12.4561   19.1377 H   0  0  0  0  0  0
  -30.3537  -11.3045   19.8187 H   0  0  0  0  0  0
  -29.7507  -11.7989   17.4309 H   0  0  0  0  0  0
  -29.6709  -13.5054   17.7807 H   0  0  0  0  0  0
  -27.8313  -11.3157   18.8070 H   0  0  0  0  0  0
  -27.3799  -12.6529   17.7826 H   0  0  0  0  0  0
  -27.7055  -14.2592   19.5864 H   0  0  0  0  0  0
  -28.6616  -11.9522   21.3432 H   0  0  0  0  0  0
  -28.4501  -13.5924   21.8775 H   0  0  0  0  0  0
  -25.2771   -9.5690   22.4734 H   0  0  0  0  0  0
  -24.0023   -7.4639   22.7471 H   0  0  0  0  0  0
  -21.0836   -8.8773   19.8947 H   0  0  0  0  0  0
  -22.3698  -10.9673   19.6168 H   0  0  0  0  0  0
  -21.2004   -7.6146   23.9714 H   0  0  0  0  0  0
  -21.1486   -6.0521   25.9077 H   0  0  0  0  0  0
  -22.0596   -2.7607   23.2842 H   0  0  0  0  0  0
  -22.4133  -11.9914   22.4801 H   0  0  0  0  0  0
  -21.1124  -13.1256   22.2598 H   0  0  0  0  0  0
  -24.6706  -15.8495   20.5263 H   0  0  0  0  0  0
  -26.2958  -15.6252   20.1152 H   0  0  0  0  0  0
  -26.7128  -32.5510   23.1130 H   0  0  0  0  0  0
  -25.0008  -33.9758   25.0424 H   0  0  0  0  0  0
  -22.6978  -31.3071   21.4079 H   0  0  0  0  0  0
  -23.3764  -35.9621   23.3254 H   0  0  0  0  0  0
  -24.3596  -36.8971   22.2060 H   0  0  0  0  0  0
  -23.7202  -37.6485   23.6679 H   0  0  0  0  0  0
  -26.0507  -31.5833   20.5914 H   0  0  0  0  0  0
  -26.8245  -30.8760   21.9805 H   0  0  0  0  0  0
  -28.0956  -29.0698   21.1690 H   0  0  0  0  0  0
  -25.9987  -25.9355   19.0495 H   0  0  0  0  0  0
  -23.9702  -27.2843   19.0470 H   0  0  0  0  0  0
  -23.7201  -30.5921   19.4013 H   0  0  0  0  0  0
  -22.7372  -29.2385   19.8704 H   0  0  0  0  0  0
  -25.1270  -36.1961   25.0827 H   0  0  0  0  0  0
  -20.9970  -28.3259   24.1420 H   0  0  0  0  0  0
  -20.5676  -26.2289   23.3619 H   0  0  0  0  0  0
  -21.6640  -26.7452   22.1207 H   0  0  0  0  0  0
  -19.6910  -25.6296   21.1247 H   0  0  0  0  0  0
  -19.6683  -27.3197   20.6749 H   0  0  0  0  0  0
  -17.4193  -26.6681   21.4027 H   0  0  0  0  0  0
  -18.0320  -26.0072   22.9021 H   0  0  0  0  0  0
  -19.7930  -30.7258   24.2295 H   0  0  0  0  0  0
  -17.5015  -31.6274   24.5161 H   0  0  0  0  0  0
  -15.5352  -30.3005   23.7628 H   0  0  0  0  0  0
  -15.8670  -28.0832   22.7054 H   0  0  0  0  0  0
  -24.5881  -30.7080   25.7768 H   0  0  0  0  0  0
  -24.8913  -32.2882   26.4890 H   0  0  0  0  0  0
  -25.8042  -30.8872   27.0214 H   0  0  0  0  0  0
  -26.2862  -29.6802   24.1137 H   0  0  0  0  0  0
  -27.4052  -29.7270   25.4569 H   0  0  0  0  0  0
  -27.8702  -30.4360   23.9275 H   0  0  0  0  0  0
  -27.2668  -33.3597   26.2089 H   0  0  0  0  0  0
  -28.3834  -32.6893   25.0291 H   0  0  0  0  0  0
  -28.0737  -31.8414   26.5361 H   0  0  0  0  0  0
  -28.2544  -38.0147   24.7604 H   0  0  0  0  0  0
  -28.1151  -36.2690   24.6124 H   0  0  0  0  0  0
  -27.2334  -37.1253   25.8847 H   0  0  0  0  0  0
  -20.9311  -29.8737   21.6889 H   0  0  0  0  0  0
  -26.0164  -38.2864   24.1500 H   0  0  0  0  0  0
  -32.3840  -18.9049   22.8719 H   0  0  0  0  0  0
  -30.9400  -20.6357   21.8490 H   0  0  0  0  0  0
  -31.9123  -16.4983   22.5432 H   0  0  0  0  0  0
  -28.4731  -17.5228   20.1538 H   0  0  0  0  0  0
  -27.6535  -19.9234   20.3123 H   0  0  0  0  0  0
  -28.9342  -20.2132   19.1692 H   0  0  0  0  0  0
  -28.8852  -24.2378   21.4271 H   0  0  0  0  0  0
  -27.2194  -24.2092   20.8975 H   0  0  0  0  0  0
  -27.9635  -25.2541   18.6477 H   0  0  0  0  0  0
  -29.5692  -25.2597   19.2554 H   0  0  0  0  0  0
  -28.8492  -21.8277   21.6871 H   0  0  0  0  0  0
  1 25  1  0  0  0
  1 30  2  0  0  0
  1 83  1  0  0  0
  2  3  1  0  0  0
  2 25  1  0  0  0
  2 84  1  0  0  0
  2 85  1  0  0  0
  3  4  1  0  0  0
  3 86  1  0  0  0
  3 87  1  0  0  0
  4  5  1  0  0  0
  4 88  1  0  0  0
  4 89  1  0  0  0
  5  6  1  0  0  0
  5 26  1  0  0  0
  5 90  1  0  0  0
  6 25  1  0  0  0
  6 91  1  0  0  0
  6 92  1  0  0  0
  7  8  2  0  0  0
  7 26  1  0  0  0
  7 29  1  0  0  0
  8  9  1  0  0  0
  8 22  1  0  0  0
  9 10  1  0  0  0
  9 27  2  0  0  0
 10 11  2  0  0  0
 10 15  1  0  0  0
 11 12  1  0  0  0
 11 93  1  0  0  0
 12 13  2  0  0  0
 12 94  1  0  0  0
 13 14  1  0  0  0
 13 31  1  0  0  0
 14 15  2  0  0  0
 14 95  1  0  0  0
 15 96  1  0  0  0
 16 17  2  0  0  0
 16 21  1  0  0  0
 16 31  1  0  0  0
 17 18  1  0  0  0
 17 97  1  0  0  0
 18 19  2  0  0  0
 18 98  1  0  0  0
 19 20  1  0  0  0
 19 24  1  0  0  0
 20 21  2  0  0  0
 20 99  1  0  0  0
 21 23  1  0  0  0
 22 28  1  0  0  0
 22 32  2  0  0  0
 26 27  1  0  0  0
 28100  1  0  0  0
 28101  1  0  0  0
 29102  1  0  0  0
 29103  1  0  0  0
 33 34  1  0  0  0
 33 66  1  0  0  0
 33 70  2  0  0  0
 34 36  1  0  0  0
 34 59  1  0  0  0
 34104  1  0  0  0
 35 44  2  0  0  0
 35 45  1  0  0  0
 35 68  1  0  0  0
 36 56  1  0  0  0
 36105  1  0  0  0
 37 39  1  0  0  0
 37 47  1  0  0  0
 37 66  1  0  0  0
 37106  1  0  0  0
 38 43  2  0  0  0
 38 46  1  0  0  0
 38 47  1  0  0  0
 39 64  1  0  0  0
 39 67  2  0  0  0
 40 52  1  0  0  0
 40 53  2  0  0  0
 40 58  1  0  0  0
 41107  1  0  0  0
 41108  1  0  0  0
 41109  1  0  0  0
 41 48  1  0  0  0
 42 43  1  0  0  0
 42 66  1  0  0  0
 42110  1  0  0  0
 42111  1  0  0  0
 43 44  1  0  0  0
 44112  1  0  0  0
 45 46  2  0  0  0
 45113  1  0  0  0
 46114  1  0  0  0
 47115  1  0  0  0
 47116  1  0  0  0
 48 56  1  0  0  0
 48 65  1  0  0  0
 48117  1  0  0  0
 49 50  1  0  0  0
 49 53  1  0  0  0
 49 64  1  0  0  0
 49118  1  0  0  0
 50 51  1  0  0  0
 50119  1  0  0  0
 50120  1  0  0  0
 51 52  1  0  0  0
 51121  1  0  0  0
 51122  1  0  0  0
 52123  1  0  0  0
 52124  1  0  0  0
 53 54  1  0  0  0
 54 55  2  0  0  0
 54125  1  0  0  0
 55 57  1  0  0  0
 55126  1  0  0  0
 56 69  2  0  0  0
 57 58  2  0  0  0
 57127  1  0  0  0
 58128  1  0  0  0
 59 60  1  0  0  0
 59 61  1  0  0  0
 59 62  1  0  0  0
 60129  1  0  0  0
 60130  1  0  0  0
 60131  1  0  0  0
 61132  1  0  0  0
 61133  1  0  0  0
 61134  1  0  0  0
 62135  1  0  0  0
 62136  1  0  0  0
 62137  1  0  0  0
 63 65  1  0  0  0
 63138  1  0  0  0
 63139  1  0  0  0
 63140  1  0  0  0
 64141  1  0  0  0
 65142  1  0  0  0
 68 80  1  0  0  0
 71 72  2  0  0  0
 71 73  1  0  0  0
 71143  1  0  0  0
 72 75  1  0  0  0
 72144  1  0  0  0
 73 76  2  0  0  0
 73145  1  0  0  0
 74 75  2  0  0  0
 74 76  1  0  0  0
 74146  1  0  0  0
 75 78  1  0  0  0
 76 83  1  0  0  0
 77 79  1  0  0  0
 77 81  1  0  0  0
 77 82  2  0  0  0
 78 81  1  0  0  0
 78147  1  0  0  0
 78148  1  0  0  0
 79 80  1  0  0  0
 79149  1  0  0  0
 79150  1  0  0  0
 80151  1  0  0  0
 80152  1  0  0  0
 81153  1  0  0  0
M  ISO  4   1 100  68 101  80 101  83 100
M  END
> <chiral flag>
0

> <version>
0

> <s_m_source_file>
/data/baiqing/PycharmProjects/Reinvent-master-3.2/result/LINK_invent/BTK/process_docking_weight1_custom_sum_contain_oxygen_bond_distance_aromatic_linkinvent_7_9_3/rearranged_h_0004.sdf

> <i_m_source_file_index>
60

> <r_mmod_Potential_Energy-OPLS-2005>
-107.090721130371

> <r_mmod_Stretch_Energy-OPLS-2005>
48.1883430480957

> <r_mmod_Bend_Energy-OPLS-2005>
112.116119384766

> <r_mmod_Torsional_Energy-OPLS-2005>
155.072662353516

> <r_mmod_Improper_Torsional_Energy-OPLS-2005>
3.81469631195068

> <r_mmod_Van_der_Waal_Energy-OPLS-2005>
148.078796386719

> <r_mmod_Electrostatic_Energy-OPLS-2005>
-371.197723388672

> <r_mmod_Solvation_Energy-OPLS-2005>
-221.650421142578

> <b_mmod_Minimization_Converged-OPLS-2005>
0

> <r_mmod_RMS_Derivative-OPLS-2005>
1.52965664863586

$$$$
60
                    3D
 Structure written by MMmdl.
157165  0  0  1  0            999 V2000
  -30.6681  -14.6050   20.4939 C   0  0  0  0  0  0
  -30.4220  -12.3717   19.4493 C   0  0  0  0  0  0
  -29.4998  -12.4979   18.2180 C   0  0  0  0  0  0
  -28.0214  -12.3469   18.6288 C   0  0  0  0  0  0
  -27.6486  -13.2174   19.8597 C   0  0  2  0  0  0
  -28.6945  -13.0713   20.9866 C   0  0  0  0  0  0
  -25.2539  -13.8169   20.5674 C   0  0  0  0  0  0
  -24.1820  -13.0433   20.9194 C   0  0  0  0  0  0
  -24.6395  -11.6907   20.8749 C   0  0  0  0  0  0
  -23.9066  -10.4292   21.0402 C   0  0  0  0  0  0
  -24.3623   -9.4208   21.9178 C   0  0  0  0  0  0
  -23.6301   -8.2241   22.0751 C   0  0  0  0  0  0
  -22.4281   -8.0279   21.3542 C   0  0  0  0  0  0
  -21.9915   -9.0254   20.4644 C   0  0  0  0  0  0
  -22.7242  -10.2133   20.3052 C   0  0  0  0  0  0
  -21.6855   -6.0737   22.5282 C   0  0  0  0  0  0
  -21.4013   -6.5639   23.8217 C   0  0  0  0  0  0
  -21.3662   -5.6791   24.9178 C   0  0  0  0  0  0
  -21.6049   -4.3055   24.7223 C   0  0  0  0  0  0
  -21.8820   -3.8147   23.4343 C   0  0  0  0  0  0
  -21.9195   -4.6964   22.3403 C   0  0  0  0  0  0
  -22.7846  -13.5227   21.1854 C   0  0  0  0  0  0
  -22.1662   -4.2155   21.0978 F   0  0  0  0  0  0
  -21.5633   -3.4533   25.7730 F   0  0  0  0  0  0
  -30.0032  -13.4087   20.4131 N   0  0  0  0  0  0
  -26.2967  -12.9355   20.3318 N   0  0  0  0  0  0
  -25.9320  -11.6507   20.5761 N   0  0  0  0  0  0
  -22.0493  -12.8223   22.0415 N   0  0  0  0  0  0
  -25.4221  -15.1887   20.4047 N   0  0  0  0  0  0
  -31.8557  -14.6767   20.1619 O   0  0  0  0  0  0
  -21.6645   -6.8877   21.4241 O   0  0  0  0  0  0
  -22.3532  -14.5532   20.6705 O   0  0  0  0  0  0
  -24.6202  -31.8636   23.2048 C   0  0  0  0  0  0
  -25.9069  -32.4799   23.8365 C   0  0  1  0  0  0
  -27.2240  -27.3685   20.1181 C   0  0  0  0  0  0
  -25.5903  -33.8598   24.2300 N   0  0  0  0  0  0
  -23.4116  -30.4864   21.5461 C   0  0  2  0  0  0
  -24.8581  -28.9418   20.1149 C   0  0  0  0  0  0
  -22.7440  -29.4646   22.4957 C   0  0  0  0  0  0
  -18.0284  -28.1391   22.8491 C   0  0  0  0  0  0
  -24.1487  -36.7305   23.2639 C   0  0  0  0  0  0
  -25.9460  -30.8108   21.3658 C   0  0  0  0  0  0
  -26.0235  -29.4401   20.7125 C   0  0  0  0  0  0
  -27.2138  -28.6649   20.7025 C   0  0  0  0  0  0
  -26.0422  -26.8999   19.5095 C   0  0  0  0  0  0
  -24.8658  -27.6746   19.5065 C   0  0  0  0  0  0
  -23.6236  -29.8175   20.1620 C   0  0  0  0  0  0
  -25.4109  -36.3097   24.0335 C   0  0  1  0  0  0
  -20.5878  -28.3688   23.1302 C   0  0  2  0  0  0
  -20.6780  -26.9420   22.5416 C   0  0  0  0  0  0
  -19.5756  -26.6391   21.5219 C   0  0  0  0  0  0
  -18.1934  -26.7934   22.1627 C   0  0  0  0  0  0
  -19.1534  -28.8855   23.2892 C   0  0  0  0  0  0
  -18.9459  -30.1457   23.8906 C   0  0  0  0  0  0
  -17.6462  -30.6593   24.0572 C   0  0  0  0  0  0
  -25.9042  -34.9465   23.5119 C   0  0  0  0  0  0
  -16.5351  -29.9097   23.6326 C   0  0  0  0  0  0
  -16.7273  -28.6515   23.0343 C   0  0  0  0  0  0
  -26.4473  -31.6590   25.0713 C   0  0  0  0  0  0
  -25.3725  -31.3723   26.1455 C   0  0  0  0  0  0
  -27.0301  -30.3017   24.6126 C   0  0  0  0  0  0
  -27.6037  -32.4323   25.7478 C   0  0  0  0  0  0
  -27.5583  -37.1807   24.8464 C   0  0  0  0  0  0
  -21.4162  -29.3042   22.3693 N   0  0  0  0  0  0
  -26.4292  -37.3784   23.9411 N   0  0  0  0  0  0
  -24.6778  -31.0693   22.0970 N   0  0  0  0  0  0
  -23.4186  -28.8198   23.3030 O   0  0  0  0  0  0
  -28.3508  -26.5567   20.1186 O   0  0  0  0  0  0
  -26.5610  -34.8923   22.4685 O   0  0  0  0  0  0
  -23.5380  -32.1413   23.7412 O   0  0  0  0  0  0
  -28.7328  -21.2489   20.2088 C   0  0  0  0  0  0
  -29.1408  -17.7954   21.8206 C   0  0  0  0  0  0
  -30.1733  -18.2077   19.6380 C   0  0  0  0  0  0
  -29.0364  -16.2614   21.5246 C   0  0  0  0  0  0
  -30.0357  -16.6924   19.2879 C   0  0  0  0  0  0
  -29.0575  -18.7112   20.5733 C   0  0  0  0  0  0
  -28.7080  -22.6509   20.9076 C   0  0  0  0  0  0
  -28.5599  -23.9533   20.0175 C   0  0  0  0  0  0
  -28.2317  -25.2747   20.8125 C   0  0  0  0  0  0
  -29.9048  -15.7531   20.4363 N   0  0  0  0  0  0
  -29.1470  -20.1652   20.9226 N   0  0  0  0  0  0
  -28.3412  -21.1425   19.0460 O   0  0  0  0  0  0
  -31.4662  -12.4703   19.1482 H   0  0  0  0  0  0
  -30.3351  -11.3805   19.8973 H   0  0  0  0  0  0
  -29.7602  -11.7453   17.4730 H   0  0  0  0  0  0
  -29.6501  -13.4672   17.7392 H   0  0  0  0  0  0
  -27.8508  -11.2941   18.8564 H   0  0  0  0  0  0
  -27.3693  -12.5836   17.7871 H   0  0  0  0  0  0
  -27.6649  -14.2526   19.5198 H   0  0  0  0  0  0
  -28.7063  -12.0498   21.3687 H   0  0  0  0  0  0
  -28.4448  -13.6976   21.8409 H   0  0  0  0  0  0
  -25.2764   -9.5692   22.4753 H   0  0  0  0  0  0
  -24.0020   -7.4629   22.7464 H   0  0  0  0  0  0
  -21.0847   -8.8770   19.8946 H   0  0  0  0  0  0
  -22.3697  -10.9676   19.6165 H   0  0  0  0  0  0
  -21.2000   -7.6146   23.9721 H   0  0  0  0  0  0
  -21.1488   -6.0518   25.9085 H   0  0  0  0  0  0
  -22.0598   -2.7608   23.2837 H   0  0  0  0  0  0
  -22.4113  -11.9891   22.4806 H   0  0  0  0  0  0
  -21.1111  -13.1248   22.2610 H   0  0  0  0  0  0
  -24.6529  -15.8409   20.5110 H   0  0  0  0  0  0
  -26.2708  -15.6267   20.0714 H   0  0  0  0  0  0
  -26.7138  -32.5490   23.1121 H   0  0  0  0  0  0
  -25.0040  -33.9746   25.0437 H   0  0  0  0  0  0
  -22.7032  -31.3052   21.4042 H   0  0  0  0  0  0
  -23.3746  -35.9640   23.3300 H   0  0  0  0  0  0
  -24.3582  -36.8921   22.2054 H   0  0  0  0  0  0
  -23.7242  -37.6509   23.6655 H   0  0  0  0  0  0
  -26.0672  -31.5755   20.5972 H   0  0  0  0  0  0
  -26.8303  -30.8635   21.9892 H   0  0  0  0  0  0
  -28.1130  -29.0452   21.1667 H   0  0  0  0  0  0
  -26.0294  -25.9247   19.0434 H   0  0  0  0  0  0
  -23.9704  -27.2859   19.0414 H   0  0  0  0  0  0
  -23.7405  -30.5925   19.4035 H   0  0  0  0  0  0
  -22.7444  -29.2442   19.8629 H   0  0  0  0  0  0
  -25.1287  -36.1953   25.0827 H   0  0  0  0  0  0
  -20.9976  -28.3269   24.1421 H   0  0  0  0  0  0
  -20.5705  -26.2299   23.3610 H   0  0  0  0  0  0
  -21.6648  -26.7474   22.1198 H   0  0  0  0  0  0
  -19.6924  -25.6304   21.1248 H   0  0  0  0  0  0
  -19.6696  -27.3203   20.6751 H   0  0  0  0  0  0
  -17.4209  -26.6684   21.4022 H   0  0  0  0  0  0
  -18.0332  -26.0075   22.9022 H   0  0  0  0  0  0
  -19.7935  -30.7274   24.2275 H   0  0  0  0  0  0
  -17.5017  -31.6270   24.5178 H   0  0  0  0  0  0
  -15.5355  -30.3007   23.7639 H   0  0  0  0  0  0
  -15.8671  -28.0843   22.7043 H   0  0  0  0  0  0
  -24.5880  -30.7091   25.7790 H   0  0  0  0  0  0
  -24.8937  -32.2893   26.4901 H   0  0  0  0  0  0
  -25.8060  -30.8885   27.0215 H   0  0  0  0  0  0
  -26.2858  -29.6786   24.1152 H   0  0  0  0  0  0
  -27.4016  -29.7247   25.4605 H   0  0  0  0  0  0
  -27.8719  -30.4307   23.9318 H   0  0  0  0  0  0
  -27.2636  -33.3608   26.2074 H   0  0  0  0  0  0
  -28.3830  -32.6914   25.0300 H   0  0  0  0  0  0
  -28.0722  -31.8444   26.5380 H   0  0  0  0  0  0
  -28.2600  -38.0105   24.7509 H   0  0  0  0  0  0
  -28.1080  -36.2637   24.6287 H   0  0  0  0  0  0
  -27.2305  -37.1454   25.8869 H   0  0  0  0  0  0
  -20.9336  -29.8739   21.6884 H   0  0  0  0  0  0
  -26.0179  -38.2862   24.1409 H   0  0  0  0  0  0
  -30.0821  -17.9851   22.3392 H   0  0  0  0  0  0
  -28.3560  -18.0685   22.5272 H   0  0  0  0  0  0
  -30.1661  -18.7888   18.7147 H   0  0  0  0  0  0
  -31.1473  -18.3839   20.0965 H   0  0  0  0  0  0
  -28.0058  -16.0238   21.2649 H   0  0  0  0  0  0
  -29.2508  -15.7225   22.4486 H   0  0  0  0  0  0
  -30.8713  -16.4132   18.6431 H   0  0  0  0  0  0
  -29.1479  -16.5562   18.6689 H   0  0  0  0  0  0
  -28.0929  -18.5478   20.0889 H   0  0  0  0  0  0
  -29.6058  -22.7439   21.5192 H   0  0  0  0  0  0
  -27.8746  -22.6242   21.6103 H   0  0  0  0  0  0
  -27.7867  -23.7982   19.2644 H   0  0  0  0  0  0
  -29.4889  -24.0985   19.4653 H   0  0  0  0  0  0
  -28.9187  -25.3359   21.6572 H   0  0  0  0  0  0
  -27.2435  -25.1714   21.2657 H   0  0  0  0  0  0
  -29.4618  -20.3646   21.8636 H   0  0  0  0  0  0
  1 25  1  0  0  0
  1 30  2  0  0  0
  1 80  1  0  0  0
  2  3  1  0  0  0
  2 25  1  0  0  0
  2 83  1  0  0  0
  2 84  1  0  0  0
  3  4  1  0  0  0
  3 85  1  0  0  0
  3 86  1  0  0  0
  4  5  1  0  0  0
  4 87  1  0  0  0
  4 88  1  0  0  0
  5  6  1  0  0  0
  5 26  1  0  0  0
  5 89  1  0  0  0
  6 25  1  0  0  0
  6 90  1  0  0  0
  6 91  1  0  0  0
  7  8  2  0  0  0
  7 26  1  0  0  0
  7 29  1  0  0  0
  8  9  1  0  0  0
  8 22  1  0  0  0
  9 10  1  0  0  0
  9 27  2  0  0  0
 10 11  2  0  0  0
 10 15  1  0  0  0
 11 12  1  0  0  0
 11 92  1  0  0  0
 12 13  2  0  0  0
 12 93  1  0  0  0
 13 14  1  0  0  0
 13 31  1  0  0  0
 14 15  2  0  0  0
 14 94  1  0  0  0
 15 95  1  0  0  0
 16 17  2  0  0  0
 16 21  1  0  0  0
 16 31  1  0  0  0
 17 18  1  0  0  0
 17 96  1  0  0  0
 18 19  2  0  0  0
 18 97  1  0  0  0
 19 20  1  0  0  0
 19 24  1  0  0  0
 20 21  2  0  0  0
 20 98  1  0  0  0
 21 23  1  0  0  0
 22 28  1  0  0  0
 22 32  2  0  0  0
 26 27  1  0  0  0
 28 99  1  0  0  0
 28100  1  0  0  0
 29101  1  0  0  0
 29102  1  0  0  0
 33 34  1  0  0  0
 33 66  1  0  0  0
 33 70  2  0  0  0
 34 36  1  0  0  0
 34 59  1  0  0  0
 34103  1  0  0  0
 35 44  2  0  0  0
 35 45  1  0  0  0
 35 68  1  0  0  0
 36 56  1  0  0  0
 36104  1  0  0  0
 37 39  1  0  0  0
 37 47  1  0  0  0
 37 66  1  0  0  0
 37105  1  0  0  0
 38 43  2  0  0  0
 38 46  1  0  0  0
 38 47  1  0  0  0
 39 64  1  0  0  0
 39 67  2  0  0  0
 40 52  1  0  0  0
 40 53  2  0  0  0
 40 58  1  0  0  0
 41106  1  0  0  0
 41107  1  0  0  0
 41108  1  0  0  0
 41 48  1  0  0  0
 42 43  1  0  0  0
 42 66  1  0  0  0
 42109  1  0  0  0
 42110  1  0  0  0
 43 44  1  0  0  0
 44111  1  0  0  0
 45 46  2  0  0  0
 45112  1  0  0  0
 46113  1  0  0  0
 47114  1  0  0  0
 47115  1  0  0  0
 48 56  1  0  0  0
 48 65  1  0  0  0
 48116  1  0  0  0
 49 50  1  0  0  0
 49 53  1  0  0  0
 49 64  1  0  0  0
 49117  1  0  0  0
 50 51  1  0  0  0
 50118  1  0  0  0
 50119  1  0  0  0
 51 52  1  0  0  0
 51120  1  0  0  0
 51121  1  0  0  0
 52122  1  0  0  0
 52123  1  0  0  0
 53 54  1  0  0  0
 54 55  2  0  0  0
 54124  1  0  0  0
 55 57  1  0  0  0
 55125  1  0  0  0
 56 69  2  0  0  0
 57 58  2  0  0  0
 57126  1  0  0  0
 58127  1  0  0  0
 59 60  1  0  0  0
 59 61  1  0  0  0
 59 62  1  0  0  0
 60128  1  0  0  0
 60129  1  0  0  0
 60130  1  0  0  0
 61131  1  0  0  0
 61132  1  0  0  0
 61133  1  0  0  0
 62134  1  0  0  0
 62135  1  0  0  0
 62136  1  0  0  0
 63 65  1  0  0  0
 63137  1  0  0  0
 63138  1  0  0  0
 63139  1  0  0  0
 64140  1  0  0  0
 65141  1  0  0  0
 68 79  1  0  0  0
 71 77  1  0  0  0
 71 81  1  0  0  0
 71 82  2  0  0  0
 72 74  1  0  0  0
 72 76  1  0  0  0
 72142  1  0  0  0
 72143  1  0  0  0
 73 75  1  0  0  0
 73 76  1  0  0  0
 73144  1  0  0  0
 73145  1  0  0  0
 74 80  1  0  0  0
 74146  1  0  0  0
 74147  1  0  0  0
 75 80  1  0  0  0
 75148  1  0  0  0
 75149  1  0  0  0
 76 81  1  0  0  0
 76150  1  0  0  0
 77 78  1  0  0  0
 77151  1  0  0  0
 77152  1  0  0  0
 78 79  1  0  0  0
 78153  1  0  0  0
 78154  1  0  0  0
 79155  1  0  0  0
 79156  1  0  0  0
 81157  1  0  0  0
M  ISO  4   1 100  68 101  79 101  80 100
M  END
> <chiral flag>
0

> <version>
0

> <s_m_source_file>
/data/baiqing/PycharmProjects/Reinvent-master-3.2/result/LINK_invent/BTK/process_docking_weight1_custom_sum_contain_oxygen_bond_distance_aromatic_linkinvent_7_9_3/rearranged_h_0004.sdf

> <i_m_source_file_index>
61

> <r_mmod_Potential_Energy-OPLS-2005>
129.784683227539

> <r_mmod_Stretch_Energy-OPLS-2005>
61.7607688903809

> <r_mmod_Bend_Energy-OPLS-2005>
125.044410705566

> <r_mmod_Torsional_Energy-OPLS-2005>
337.765869140625

> <r_mmod_Improper_Torsional_Energy-OPLS-2005>
16.8910980224609

> <r_mmod_Van_der_Waal_Energy-OPLS-2005>
122.610420227051

> <r_mmod_Electrostatic_Energy-OPLS-2005>
-344.829010009766

> <r_mmod_Solvation_Energy-OPLS-2005>
-224.683242797852

> <b_mmod_Minimization_Converged-OPLS-2005>
0

> <r_mmod_RMS_Derivative-OPLS-2005>
0.935464680194855

$$$$
61
                    3D
 Structure written by MMmdl.
175183  0  0  1  0            999 V2000
  -30.7271  -14.3971   20.6183 C   0  0  0  0  0  0
  -30.4184  -12.2741   19.4133 C   0  0  0  0  0  0
  -29.4897  -12.5080   18.2044 C   0  0  0  0  0  0
  -28.0096  -12.3756   18.6138 C   0  0  0  0  0  0
  -27.6653  -13.2012   19.8818 C   0  0  2  0  0  0
  -28.7007  -12.9400   20.9984 C   0  0  0  0  0  0
  -25.2596  -13.8171   20.5683 C   0  0  0  0  0  0
  -24.1831  -13.0449   20.9181 C   0  0  0  0  0  0
  -24.6372  -11.6916   20.8731 C   0  0  0  0  0  0
  -23.9041  -10.4305   21.0402 C   0  0  0  0  0  0
  -24.3603   -9.4220   21.9175 C   0  0  0  0  0  0
  -23.6289   -8.2248   22.0739 C   0  0  0  0  0  0
  -22.4269   -8.0285   21.3538 C   0  0  0  0  0  0
  -21.9903   -9.0251   20.4632 C   0  0  0  0  0  0
  -22.7220  -10.2140   20.3043 C   0  0  0  0  0  0
  -21.6850   -6.0741   22.5285 C   0  0  0  0  0  0
  -21.4006   -6.5642   23.8219 C   0  0  0  0  0  0
  -21.3663   -5.6791   24.9180 C   0  0  0  0  0  0
  -21.6046   -4.3054   24.7228 C   0  0  0  0  0  0
  -21.8817   -3.8150   23.4345 C   0  0  0  0  0  0
  -21.9190   -4.6970   22.3403 C   0  0  0  0  0  0
  -22.7856  -13.5247   21.1862 C   0  0  0  0  0  0
  -22.1660   -4.2160   21.0980 F   0  0  0  0  0  0
  -21.5636   -3.4535   25.7738 F   0  0  0  0  0  0
  -30.0440  -13.2329   20.4631 N   0  0  0  0  0  0
  -26.3026  -12.9325   20.3380 N   0  0  0  0  0  0
  -25.9295  -11.6491   20.5754 N   0  0  0  0  0  0
  -22.0487  -12.8225   22.0415 N   0  0  0  0  0  0
  -25.4351  -15.1878   20.4103 N   0  0  0  0  0  0
  -31.8175  -14.6045   20.0795 O   0  0  0  0  0  0
  -21.6631   -6.8880   21.4243 O   0  0  0  0  0  0
  -22.3541  -14.5562   20.6734 O   0  0  0  0  0  0
  -24.6064  -31.8726   23.2131 C   0  0  0  0  0  0
  -25.8996  -32.4837   23.8402 C   0  0  1  0  0  0
  -27.2527  -27.5007   20.0907 C   0  0  0  0  0  0
  -25.5876  -33.8634   24.2336 N   0  0  0  0  0  0
  -23.3883  -30.4933   21.5523 C   0  0  2  0  0  0
  -24.8351  -28.9655   20.1126 C   0  0  0  0  0  0
  -22.7344  -29.4661   22.5031 C   0  0  0  0  0  0
  -18.0254  -28.1351   22.8487 C   0  0  0  0  0  0
  -24.1489  -36.7318   23.2643 C   0  0  0  0  0  0
  -25.9045  -30.8647   21.3468 C   0  0  0  0  0  0
  -25.9861  -29.5017   20.6996 C   0  0  0  0  0  0
  -27.1936  -28.7844   20.6840 C   0  0  0  0  0  0
  -26.0848  -26.9665   19.5070 C   0  0  0  0  0  0
  -24.8757  -27.6917   19.5131 C   0  0  0  0  0  0
  -23.5915  -29.8235   20.1655 C   0  0  0  0  0  0
  -25.4107  -36.3114   24.0336 C   0  0  1  0  0  0
  -20.5833  -28.3619   23.1355 C   0  0  2  0  0  0
  -20.6749  -26.9374   22.5421 C   0  0  0  0  0  0
  -19.5739  -26.6382   21.5199 C   0  0  0  0  0  0
  -18.1909  -26.7894   22.1608 C   0  0  0  0  0  0
  -19.1500  -28.8801   23.2906 C   0  0  0  0  0  0
  -18.9435  -30.1412   23.8908 C   0  0  0  0  0  0
  -17.6448  -30.6564   24.0563 C   0  0  0  0  0  0
  -25.9031  -34.9478   23.5132 C   0  0  0  0  0  0
  -16.5337  -29.9073   23.6316 C   0  0  0  0  0  0
  -16.7248  -28.6502   23.0321 C   0  0  0  0  0  0
  -26.4444  -31.6615   25.0713 C   0  0  0  0  0  0
  -25.3733  -31.3710   26.1486 C   0  0  0  0  0  0
  -27.0250  -30.3078   24.5993 C   0  0  0  0  0  0
  -27.6018  -32.4340   25.7477 C   0  0  0  0  0  0
  -27.5574  -37.1820   24.8461 C   0  0  0  0  0  0
  -21.4085  -29.3005   22.3779 N   0  0  0  0  0  0
  -26.4290  -37.3800   23.9399 N   0  0  0  0  0  0
  -24.6517  -31.0889   22.0981 N   0  0  0  0  0  0
  -23.4152  -28.8212   23.3055 O   0  0  0  0  0  0
  -28.3946  -26.7348   20.0442 O   0  0  0  0  0  0
  -26.5598  -34.8920   22.4697 O   0  0  0  0  0  0
  -23.5283  -32.1447   23.7581 O   0  0  0  0  0  0
  -30.9374  -18.8357   20.2817 C   0  0  0  0  0  0
  -28.9846  -18.8513   21.7214 C   0  0  0  0  0  0
  -31.0480  -17.4435   20.4411 C   0  0  0  0  0  0
  -29.0903  -17.4546   21.8762 C   0  0  0  0  0  0
  -29.9029  -19.5636   20.9123 C   0  0  0  0  0  0
  -30.1103  -16.7302   21.2262 C   0  0  0  0  0  0
  -31.8530  -24.0161   23.0233 C   0  0  0  0  0  0
  -29.4795  -21.3029   19.1642 C   0  0  0  0  0  0
  -28.6227  -21.7369   21.4451 C   0  0  0  0  0  0
  -33.6766  -25.0793   21.7094 C   0  0  0  0  0  0
  -32.5156  -22.6396   22.9047 C   0  0  0  0  0  0
  -30.4051  -25.9622   21.0869 C   0  0  0  0  0  0
  -31.5266  -26.2660   22.1066 C   0  0  0  0  0  0
  -31.1109  -21.8104   21.0118 C   0  0  0  0  0  0
  -29.5124  -27.1679   20.8155 C   0  0  0  0  0  0
  -29.7855  -21.0788   20.6608 C   0  0  0  0  0  0
  -30.1053  -15.3143   21.3771 N   0  0  0  0  0  0
  -32.3551  -25.0760   22.3440 N   0  0  0  0  0  0
  -31.5042  -21.6644   22.4371 N   0  3  0  0  0  0
  -30.7992  -24.0803   23.6623 O   0  0  0  0  0  0
  -31.4628  -12.3679   19.1101 H   0  0  0  0  0  0
  -30.3133  -11.2548   19.7880 H   0  0  0  0  0  0
  -29.7220  -11.7987   17.4093 H   0  0  0  0  0  0
  -29.6670  -13.5017   17.7905 H   0  0  0  0  0  0
  -27.8082  -11.3189   18.7939 H   0  0  0  0  0  0
  -27.3625  -12.6693   17.7864 H   0  0  0  0  0  0
  -27.7242  -14.2543   19.6072 H   0  0  0  0  0  0
  -28.6589  -11.8940   21.3066 H   0  0  0  0  0  0
  -28.4544  -13.5092   21.8950 H   0  0  0  0  0  0
  -25.2744   -9.5706   22.4749 H   0  0  0  0  0  0
  -24.0012   -7.4633   22.7447 H   0  0  0  0  0  0
  -21.0844   -8.8756   19.8926 H   0  0  0  0  0  0
  -22.3671  -10.9673   19.6152 H   0  0  0  0  0  0
  -21.1985   -7.6148   23.9731 H   0  0  0  0  0  0
  -21.1492   -6.0516   25.9088 H   0  0  0  0  0  0
  -22.0591   -2.7614   23.2838 H   0  0  0  0  0  0
  -22.4089  -11.9873   22.4790 H   0  0  0  0  0  0
  -21.1095  -13.1239   22.2606 H   0  0  0  0  0  0
  -24.6753  -15.8504   20.5203 H   0  0  0  0  0  0
  -26.2975  -15.6219   20.1053 H   0  0  0  0  0  0
  -26.7080  -32.5591   23.1190 H   0  0  0  0  0  0
  -25.0046  -33.9814   25.0493 H   0  0  0  0  0  0
  -22.6725  -31.3071   21.4170 H   0  0  0  0  0  0
  -23.3733  -35.9679   23.3327 H   0  0  0  0  0  0
  -24.3611  -36.8914   22.2059 H   0  0  0  0  0  0
  -23.7248  -37.6530   23.6647 H   0  0  0  0  0  0
  -25.9977  -31.6304   20.5761 H   0  0  0  0  0  0
  -26.7970  -30.9280   21.9566 H   0  0  0  0  0  0
  -28.0637  -29.2468   21.1249 H   0  0  0  0  0  0
  -26.1159  -25.9862   19.0507 H   0  0  0  0  0  0
  -23.9911  -27.2675   19.0569 H   0  0  0  0  0  0
  -23.6893  -30.5974   19.4021 H   0  0  0  0  0  0
  -22.7159  -29.2382   19.8776 H   0  0  0  0  0  0
  -25.1283  -36.1981   25.0825 H   0  0  0  0  0  0
  -20.9920  -28.3172   24.1474 H   0  0  0  0  0  0
  -20.5654  -26.2216   23.3592 H   0  0  0  0  0  0
  -21.6630  -26.7440   22.1223 H   0  0  0  0  0  0
  -19.6911  -25.6303   21.1198 H   0  0  0  0  0  0
  -19.6682  -27.3222   20.6754 H   0  0  0  0  0  0
  -17.4185  -26.6644   21.3997 H   0  0  0  0  0  0
  -18.0302  -26.0020   22.8983 H   0  0  0  0  0  0
  -19.7928  -30.7207   24.2278 H   0  0  0  0  0  0
  -17.5023  -31.6247   24.5162 H   0  0  0  0  0  0
  -15.5344  -30.2991   23.7635 H   0  0  0  0  0  0
  -15.8647  -28.0855   22.6995 H   0  0  0  0  0  0
  -24.5892  -30.7049   25.7850 H   0  0  0  0  0  0
  -24.8942  -32.2868   26.4953 H   0  0  0  0  0  0
  -25.8128  -30.8880   27.0218 H   0  0  0  0  0  0
  -26.2742  -29.6879   24.1062 H   0  0  0  0  0  0
  -27.4074  -29.7263   25.4388 H   0  0  0  0  0  0
  -27.8550  -30.4443   23.9062 H   0  0  0  0  0  0
  -27.2616  -33.3630   26.2065 H   0  0  0  0  0  0
  -28.3822  -32.6927   25.0304 H   0  0  0  0  0  0
  -28.0673  -31.8455   26.5391 H   0  0  0  0  0  0
  -28.2595  -38.0116   24.7503 H   0  0  0  0  0  0
  -28.1059  -36.2637   24.6287 H   0  0  0  0  0  0
  -27.2301  -37.1480   25.8873 H   0  0  0  0  0  0
  -20.9210  -29.8736   21.7038 H   0  0  0  0  0  0
  -26.0163  -38.2869   24.1408 H   0  0  0  0  0  0
  -31.6521  -19.3318   19.6398 H   0  0  0  0  0  0
  -28.1658  -19.3476   22.2210 H   0  0  0  0  0  0
  -31.8567  -16.9532   19.9214 H   0  0  0  0  0  0
  -28.3570  -16.9422   22.4841 H   0  0  0  0  0  0
  -28.5574  -20.8000   18.8730 H   0  0  0  0  0  0
  -30.2719  -20.9265   18.5179 H   0  0  0  0  0  0
  -29.3557  -22.3625   18.9341 H   0  0  0  0  0  0
  -27.6574  -21.3298   21.1419 H   0  0  0  0  0  0
  -28.5760  -22.8111   21.2601 H   0  0  0  0  0  0
  -28.7109  -21.6029   22.5232 H   0  0  0  0  0  0
  -33.7093  -24.3823   20.8713 H   0  0  0  0  0  0
  -34.4459  -24.8017   22.4316 H   0  0  0  0  0  0
  -33.9637  -26.0549   21.3165 H   0  0  0  0  0  0
  -32.8586  -22.3509   23.8987 H   0  0  0  0  0  0
  -33.3851  -22.6083   22.2522 H   0  0  0  0  0  0
  -29.7666  -25.1638   21.4697 H   0  0  0  0  0  0
  -30.8238  -25.5985   20.1480 H   0  0  0  0  0  0
  -31.0957  -26.6083   23.0506 H   0  0  0  0  0  0
  -32.1274  -27.1007   21.7463 H   0  0  0  0  0  0
  -30.9875  -22.8631   20.7571 H   0  0  0  0  0  0
  -31.9362  -21.4649   20.3894 H   0  0  0  0  0  0
  -30.0561  -27.9464   20.2785 H   0  0  0  0  0  0
  -29.2063  -27.5659   21.7834 H   0  0  0  0  0  0
  -29.3215  -14.9440   21.8920 H   0  0  0  0  0  0
  -30.6872  -21.8179   23.0082 H   0  0  0  0  0  0
  -31.8296  -20.7246   22.5972 H   0  0  0  0  0  0
  1 25  1  0  0  0
  1 30  2  0  0  0
  1 87  1  0  0  0
  2  3  1  0  0  0
  2 25  1  0  0  0
  2 91  1  0  0  0
  2 92  1  0  0  0
  3  4  1  0  0  0
  3 93  1  0  0  0
  3 94  1  0  0  0
  4  5  1  0  0  0
  4 95  1  0  0  0
  4 96  1  0  0  0
  5  6  1  0  0  0
  5 26  1  0  0  0
  5 97  1  0  0  0
  6 25  1  0  0  0
  6 98  1  0  0  0
  6 99  1  0  0  0
  7  8  2  0  0  0
  7 26  1  0  0  0
  7 29  1  0  0  0
  8  9  1  0  0  0
  8 22  1  0  0  0
  9 10  1  0  0  0
  9 27  2  0  0  0
 10 11  2  0  0  0
 10 15  1  0  0  0
 11 12  1  0  0  0
 11100  1  0  0  0
 12 13  2  0  0  0
 12101  1  0  0  0
 13 14  1  0  0  0
 13 31  1  0  0  0
 14 15  2  0  0  0
 14102  1  0  0  0
 15103  1  0  0  0
 16 17  2  0  0  0
 16 21  1  0  0  0
 16 31  1  0  0  0
 17 18  1  0  0  0
 17104  1  0  0  0
 18 19  2  0  0  0
 18105  1  0  0  0
 19 20  1  0  0  0
 19 24  1  0  0  0
 20 21  2  0  0  0
 20106  1  0  0  0
 21 23  1  0  0  0
 22 28  1  0  0  0
 22 32  2  0  0  0
 26 27  1  0  0  0
 28107  1  0  0  0
 28108  1  0  0  0
 29109  1  0  0  0
 29110  1  0  0  0
 33 34  1  0  0  0
 33 66  1  0  0  0
 33 70  2  0  0  0
 34 36  1  0  0  0
 34 59  1  0  0  0
 34111  1  0  0  0
 35 44  2  0  0  0
 35 45  1  0  0  0
 35 68  1  0  0  0
 36 56  1  0  0  0
 36112  1  0  0  0
 37 39  1  0  0  0
 37 47  1  0  0  0
 37 66  1  0  0  0
 37113  1  0  0  0
 38 43  2  0  0  0
 38 46  1  0  0  0
 38 47  1  0  0  0
 39 64  1  0  0  0
 39 67  2  0  0  0
 40 52  1  0  0  0
 40 53  2  0  0  0
 40 58  1  0  0  0
 41114  1  0  0  0
 41115  1  0  0  0
 41116  1  0  0  0
 41 48  1  0  0  0
 42 43  1  0  0  0
 42 66  1  0  0  0
 42117  1  0  0  0
 42118  1  0  0  0
 43 44  1  0  0  0
 44119  1  0  0  0
 45 46  2  0  0  0
 45120  1  0  0  0
 46121  1  0  0  0
 47122  1  0  0  0
 47123  1  0  0  0
 48 56  1  0  0  0
 48 65  1  0  0  0
 48124  1  0  0  0
 49 50  1  0  0  0
 49 53  1  0  0  0
 49 64  1  0  0  0
 49125  1  0  0  0
 50 51  1  0  0  0
 50126  1  0  0  0
 50127  1  0  0  0
 51 52  1  0  0  0
 51128  1  0  0  0
 51129  1  0  0  0
 52130  1  0  0  0
 52131  1  0  0  0
 53 54  1  0  0  0
 54 55  2  0  0  0
 54132  1  0  0  0
 55 57  1  0  0  0
 55133  1  0  0  0
 56 69  2  0  0  0
 57 58  2  0  0  0
 57134  1  0  0  0
 58135  1  0  0  0
 59 60  1  0  0  0
 59 61  1  0  0  0
 59 62  1  0  0  0
 60136  1  0  0  0
 60137  1  0  0  0
 60138  1  0  0  0
 61139  1  0  0  0
 61140  1  0  0  0
 61141  1  0  0  0
 62142  1  0  0  0
 62143  1  0  0  0
 62144  1  0  0  0
 63 65  1  0  0  0
 63145  1  0  0  0
 63146  1  0  0  0
 63147  1  0  0  0
 64148  1  0  0  0
 65149  1  0  0  0
 68 85  1  0  0  0
 71 73  2  0  0  0
 71 75  1  0  0  0
 71150  1  0  0  0
 72 74  1  0  0  0
 72 75  2  0  0  0
 72151  1  0  0  0
 73 76  1  0  0  0
 73152  1  0  0  0
 74 76  2  0  0  0
 74153  1  0  0  0
 75 86  1  0  0  0
 76 87  1  0  0  0
 77 81  1  0  0  0
 77 88  1  0  0  0
 77 90  2  0  0  0
 78154  1  0  0  0
 78155  1  0  0  0
 78156  1  0  0  0
 78 86  1  0  0  0
 79 86  1  0  0  0
 79157  1  0  0  0
 79158  1  0  0  0
 79159  1  0  0  0
 80 88  1  0  0  0
 80160  1  0  0  0
 80161  1  0  0  0
 80162  1  0  0  0
 81 89  1  0  0  0
 81163  1  0  0  0
 81164  1  0  0  0
 82 83  1  0  0  0
 82 85  1  0  0  0
 82165  1  0  0  0
 82166  1  0  0  0
 83 88  1  0  0  0
 83167  1  0  0  0
 83168  1  0  0  0
 84 86  1  0  0  0
 84 89  1  0  0  0
 84169  1  0  0  0
 84170  1  0  0  0
 85171  1  0  0  0
 85172  1  0  0  0
 87173  1  0  0  0
 89174  1  0  0  0
 89175  1  0  0  0
M  CHG  1  89   1
M  ISO  4   1 100  68 101  85 101  87 100
M  END
> <chiral flag>
0

> <version>
0

> <s_m_source_file>
/data/baiqing/PycharmProjects/Reinvent-master-3.2/result/LINK_invent/BTK/process_docking_weight1_custom_sum_contain_oxygen_bond_distance_aromatic_linkinvent_7_9_3/rearranged_h_0004.sdf

> <i_m_source_file_index>
62

> <r_mmod_Potential_Energy-OPLS-2005>
-315.680206298828

> <r_mmod_Stretch_Energy-OPLS-2005>
36.9254531860352

> <r_mmod_Bend_Energy-OPLS-2005>
110.481262207031

> <r_mmod_Torsional_Energy-OPLS-2005>
252.673599243164

> <r_mmod_Improper_Torsional_Energy-OPLS-2005>
4.41772842407227

> <r_mmod_Van_der_Waal_Energy-OPLS-2005>
181.537750244141

> <r_mmod_Electrostatic_Energy-OPLS-2005>
-446.850799560547

> <r_mmod_Solvation_Energy-OPLS-2005>
-461.773529052734

> <b_mmod_Minimization_Converged-OPLS-2005>
0

> <r_mmod_RMS_Derivative-OPLS-2005>
2.17461538314819

$$$$
62
                    3D
 Structure written by MMmdl.
175183  0  0  1  0            999 V2000
  -30.7141  -14.4683   20.4290 C   0  0  0  0  0  0
  -30.4205  -12.2724   19.4037 C   0  0  0  0  0  0
  -29.4763  -12.4140   18.1901 C   0  0  0  0  0  0
  -27.9986  -12.3189   18.6145 C   0  0  0  0  0  0
  -27.6544  -13.1969   19.8479 C   0  0  2  0  0  0
  -28.7093  -13.0178   20.9587 C   0  0  0  0  0  0
  -25.2630  -13.8153   20.5668 C   0  0  0  0  0  0
  -24.1870  -13.0461   20.9159 C   0  0  0  0  0  0
  -24.6406  -11.6914   20.8754 C   0  0  0  0  0  0
  -23.9074  -10.4312   21.0426 C   0  0  0  0  0  0
  -24.3631   -9.4223   21.9196 C   0  0  0  0  0  0
  -23.6307   -8.2256   22.0760 C   0  0  0  0  0  0
  -22.4288   -8.0294   21.3546 C   0  0  0  0  0  0
  -21.9932   -9.0272   20.4648 C   0  0  0  0  0  0
  -22.7258  -10.2151   20.3064 C   0  0  0  0  0  0
  -21.6840   -6.0754   22.5274 C   0  0  0  0  0  0
  -21.4003   -6.5651   23.8209 C   0  0  0  0  0  0
  -21.3667   -5.6799   24.9169 C   0  0  0  0  0  0
  -21.6052   -4.3064   24.7213 C   0  0  0  0  0  0
  -21.8829   -3.8161   23.4334 C   0  0  0  0  0  0
  -21.9198   -4.6985   22.3395 C   0  0  0  0  0  0
  -22.7901  -13.5261   21.1835 C   0  0  0  0  0  0
  -22.1669   -4.2184   21.0968 F   0  0  0  0  0  0
  -21.5636   -3.4542   25.7720 F   0  0  0  0  0  0
  -30.0301  -13.2963   20.3785 N   0  0  0  0  0  0
  -26.3025  -12.9295   20.3317 N   0  0  0  0  0  0
  -25.9326  -11.6473   20.5798 N   0  0  0  0  0  0
  -22.0546  -12.8241   22.0372 N   0  0  0  0  0  0
  -25.4437  -15.1856   20.4104 N   0  0  0  0  0  0
  -31.9382  -14.5363   20.2925 O   0  0  0  0  0  0
  -21.6635   -6.8898   21.4240 O   0  0  0  0  0  0
  -22.3594  -14.5578   20.6705 O   0  0  0  0  0  0
  -24.6108  -31.8697   23.2134 C   0  0  0  0  0  0
  -25.9016  -32.4838   23.8419 C   0  0  1  0  0  0
  -27.2290  -27.4663   20.0762 C   0  0  0  0  0  0
  -25.5889  -33.8628   24.2336 N   0  0  0  0  0  0
  -23.3938  -30.4949   21.5549 C   0  0  2  0  0  0
  -24.8375  -28.9667   20.1192 C   0  0  0  0  0  0
  -22.7364  -29.4679   22.5042 C   0  0  0  0  0  0
  -18.0256  -28.1364   22.8464 C   0  0  0  0  0  0
  -24.1505  -36.7323   23.2639 C   0  0  0  0  0  0
  -25.9221  -30.8436   21.3641 C   0  0  0  0  0  0
  -25.9976  -29.4827   20.7085 C   0  0  0  0  0  0
  -27.1947  -28.7359   20.6861 C   0  0  0  0  0  0
  -26.0455  -26.9603   19.4828 C   0  0  0  0  0  0
  -24.8536  -27.7023   19.5130 C   0  0  0  0  0  0
  -23.5962  -29.8250   20.1703 C   0  0  0  0  0  0
  -25.4122  -36.3109   24.0334 C   0  0  1  0  0  0
  -20.5843  -28.3625   23.1335 C   0  0  2  0  0  0
  -20.6743  -26.9371   22.5394 C   0  0  0  0  0  0
  -19.5752  -26.6373   21.5162 C   0  0  0  0  0  0
  -18.1929  -26.7918   22.1570 C   0  0  0  0  0  0
  -19.1507  -28.8808   23.2897 C   0  0  0  0  0  0
  -18.9445  -30.1425   23.8902 C   0  0  0  0  0  0
  -17.6442  -30.6570   24.0554 C   0  0  0  0  0  0
  -25.9021  -34.9468   23.5125 C   0  0  0  0  0  0
  -16.5332  -29.9056   23.6353 C   0  0  0  0  0  0
  -16.7252  -28.6484   23.0367 C   0  0  0  0  0  0
  -26.4454  -31.6623   25.0741 C   0  0  0  0  0  0
  -25.3756  -31.3664   26.1513 C   0  0  0  0  0  0
  -27.0290  -30.3080   24.6111 C   0  0  0  0  0  0
  -27.6055  -32.4330   25.7481 C   0  0  0  0  0  0
  -27.5589  -37.1810   24.8449 C   0  0  0  0  0  0
  -21.4098  -29.3015   22.3761 N   0  0  0  0  0  0
  -26.4306  -37.3794   23.9398 N   0  0  0  0  0  0
  -24.6595  -31.0844   22.1014 N   0  0  0  0  0  0
  -23.4145  -28.8219   23.3069 O   0  0  0  0  0  0
  -28.4246  -26.7807   20.0965 O   0  0  0  0  0  0
  -26.5567  -34.8899   22.4673 O   0  0  0  0  0  0
  -23.5310  -32.1433   23.7560 O   0  0  0  0  0  0
  -28.5545  -17.2721   23.0306 C   0  0  0  0  0  0
  -28.2733  -18.5451   22.5017 C   0  0  0  0  0  0
  -29.1473  -16.2769   22.2296 C   0  0  0  0  0  0
  -29.1428  -17.8132   20.3533 C   0  0  0  0  0  0
  -28.5974  -18.8231   21.1605 C   0  0  0  0  0  0
  -29.4309  -16.5208   20.8624 C   0  0  0  0  0  0
  -26.0067  -20.2014   19.9176 C   0  0  0  0  0  0
  -24.7030  -19.8326   16.9960 C   0  0  0  0  0  0
  -25.5479  -17.4675   17.0936 C   0  0  0  0  0  0
  -30.3185  -15.9459   18.6079 C   0  0  0  0  0  0
  -28.4241  -20.2107   20.5658 C   0  0  0  0  0  0
  -26.2750  -19.0622   18.9105 C   0  0  0  0  0  0
  -27.4623  -23.1282   20.1744 C   0  0  0  0  0  0
  -27.7437  -24.5127   20.7621 C   0  0  0  0  0  0
  -26.9731  -22.0837   21.1960 C   0  0  0  0  0  0
  -28.4296  -25.4113   19.7113 C   0  0  0  0  0  0
  -25.1294  -18.6864   17.9350 C   0  0  0  0  0  0
  -29.9932  -15.5283   19.9882 N   0  0  0  0  0  0
  -27.0570  -20.7523   20.5810 N   0  0  0  0  0  0
  -24.8533  -20.6205   20.0621 O   0  0  0  0  0  0
  -31.4578  -12.3748   19.0804 H   0  0  0  0  0  0
  -30.3413  -11.2796   19.8476 H   0  0  0  0  0  0
  -29.6965  -11.6376   17.4555 H   0  0  0  0  0  0
  -29.6393  -13.3562   17.6744 H   0  0  0  0  0  0
  -27.7905  -11.2701   18.8358 H   0  0  0  0  0  0
  -27.3514  -12.5787   17.7767 H   0  0  0  0  0  0
  -27.6811  -14.2333   19.5115 H   0  0  0  0  0  0
  -28.6904  -11.9952   21.3387 H   0  0  0  0  0  0
  -28.4829  -13.6544   21.8076 H   0  0  0  0  0  0
  -25.2791   -9.5699   22.4758 H   0  0  0  0  0  0
  -24.0023   -7.4654   22.7485 H   0  0  0  0  0  0
  -21.0863   -8.8801   19.8953 H   0  0  0  0  0  0
  -22.3735  -10.9691   19.6166 H   0  0  0  0  0  0
  -21.1972   -7.6156   23.9714 H   0  0  0  0  0  0
  -21.1476   -6.0528   25.9071 H   0  0  0  0  0  0
  -22.0598   -2.7630   23.2812 H   0  0  0  0  0  0
  -22.4147  -11.9858   22.4681 H   0  0  0  0  0  0
  -21.1184  -13.1296   22.2593 H   0  0  0  0  0  0
  -24.6939  -15.8539   20.5418 H   0  0  0  0  0  0
  -26.3243  -15.6171   20.1642 H   0  0  0  0  0  0
  -26.7082  -32.5537   23.1176 H   0  0  0  0  0  0
  -25.0070  -33.9795   25.0500 H   0  0  0  0  0  0
  -22.6846  -31.3126   21.4160 H   0  0  0  0  0  0
  -23.3755  -35.9662   23.3302 H   0  0  0  0  0  0
  -24.3588  -36.8937   22.2044 H   0  0  0  0  0  0
  -23.7260  -37.6532   23.6658 H   0  0  0  0  0  0
  -26.0435  -31.6192   20.6059 H   0  0  0  0  0  0
  -26.8040  -30.8832   21.9931 H   0  0  0  0  0  0
  -28.0932  -29.1274   21.1400 H   0  0  0  0  0  0
  -26.0085  -25.9961   18.9978 H   0  0  0  0  0  0
  -23.9535  -27.2985   19.0701 H   0  0  0  0  0  0
  -23.6925  -30.5903   19.4006 H   0  0  0  0  0  0
  -22.7221  -29.2337   19.8886 H   0  0  0  0  0  0
  -25.1315  -36.1967   25.0832 H   0  0  0  0  0  0
  -20.9932  -28.3156   24.1460 H   0  0  0  0  0  0
  -20.5613  -26.2213   23.3546 H   0  0  0  0  0  0
  -21.6630  -26.7406   22.1229 H   0  0  0  0  0  0
  -19.6912  -25.6281   21.1213 H   0  0  0  0  0  0
  -19.6746  -27.3162   20.6679 H   0  0  0  0  0  0
  -17.4197  -26.6654   21.3978 H   0  0  0  0  0  0
  -18.0349  -26.0057   22.8963 H   0  0  0  0  0  0
  -19.7913  -30.7229   24.2296 H   0  0  0  0  0  0
  -17.4995  -31.6270   24.5109 H   0  0  0  0  0  0
  -15.5331  -30.2942   23.7704 H   0  0  0  0  0  0
  -15.8644  -28.0782   22.7124 H   0  0  0  0  0  0
  -24.5939  -30.7009   25.7839 H   0  0  0  0  0  0
  -24.8933  -32.2779   26.5057 H   0  0  0  0  0  0
  -25.8146  -30.8766   27.0221 H   0  0  0  0  0  0
  -26.2808  -29.6819   24.1241 H   0  0  0  0  0  0
  -27.4140  -29.7356   25.4563 H   0  0  0  0  0  0
  -27.8621  -30.4426   23.9206 H   0  0  0  0  0  0
  -27.2724  -33.3631   26.2110 H   0  0  0  0  0  0
  -28.3834  -32.6890   25.0272 H   0  0  0  0  0  0
  -28.0775  -31.8419   26.5349 H   0  0  0  0  0  0
  -28.2608  -38.0113   24.7527 H   0  0  0  0  0  0
  -28.1091  -36.2642   24.6266 H   0  0  0  0  0  0
  -27.2289  -37.1435   25.8846 H   0  0  0  0  0  0
  -20.9234  -29.8746   21.7009 H   0  0  0  0  0  0
  -26.0196  -38.2875   24.1408 H   0  0  0  0  0  0
  -28.3332  -17.0602   24.0672 H   0  0  0  0  0  0
  -27.8451  -19.3102   23.1335 H   0  0  0  0  0  0
  -29.3818  -15.3359   22.7013 H   0  0  0  0  0  0
  -29.3461  -18.0801   19.3278 H   0  0  0  0  0  0
  -23.9095  -19.5072   16.3225 H   0  0  0  0  0  0
  -25.5336  -20.1790   16.3818 H   0  0  0  0  0  0
  -24.3131  -20.6920   17.5417 H   0  0  0  0  0  0
  -24.7351  -17.1321   16.4488 H   0  0  0  0  0  0
  -25.8348  -16.6236   17.7228 H   0  0  0  0  0  0
  -26.3999  -17.7038   16.4539 H   0  0  0  0  0  0
  -29.4188  -16.2399   18.0678 H   0  0  0  0  0  0
  -30.7920  -15.1630   18.0145 H   0  0  0  0  0  0
  -31.0237  -16.7797   18.6150 H   0  0  0  0  0  0
  -28.8016  -20.2407   19.5418 H   0  0  0  0  0  0
  -29.1076  -20.8571   21.1179 H   0  0  0  0  0  0
  -26.5297  -18.1776   19.4923 H   0  0  0  0  0  0
  -27.1486  -19.3232   18.3153 H   0  0  0  0  0  0
  -28.3817  -22.7837   19.6998 H   0  0  0  0  0  0
  -26.7288  -23.2172   19.3725 H   0  0  0  0  0  0
  -28.3901  -24.4340   21.6365 H   0  0  0  0  0  0
  -26.8073  -24.9414   21.1167 H   0  0  0  0  0  0
  -25.9574  -22.3192   21.5189 H   0  0  0  0  0  0
  -27.5756  -22.1177   22.1049 H   0  0  0  0  0  0
  -28.0012  -25.2877   18.7159 H   0  0  0  0  0  0
  -29.4671  -25.0982   19.6009 H   0  0  0  0  0  0
  -24.2590  -18.3945   18.5263 H   0  0  0  0  0  0
  1 25  1  0  0  0
  1 30  2  0  0  0
  1 88  1  0  0  0
  2  3  1  0  0  0
  2 25  1  0  0  0
  2 91  1  0  0  0
  2 92  1  0  0  0
  3  4  1  0  0  0
  3 93  1  0  0  0
  3 94  1  0  0  0
  4  5  1  0  0  0
  4 95  1  0  0  0
  4 96  1  0  0  0
  5  6  1  0  0  0
  5 26  1  0  0  0
  5 97  1  0  0  0
  6 25  1  0  0  0
  6 98  1  0  0  0
  6 99  1  0  0  0
  7  8  2  0  0  0
  7 26  1  0  0  0
  7 29  1  0  0  0
  8  9  1  0  0  0
  8 22  1  0  0  0
  9 10  1  0  0  0
  9 27  2  0  0  0
 10 11  2  0  0  0
 10 15  1  0  0  0
 11 12  1  0  0  0
 11100  1  0  0  0
 12 13  2  0  0  0
 12101  1  0  0  0
 13 14  1  0  0  0
 13 31  1  0  0  0
 14 15  2  0  0  0
 14102  1  0  0  0
 15103  1  0  0  0
 16 17  2  0  0  0
 16 21  1  0  0  0
 16 31  1  0  0  0
 17 18  1  0  0  0
 17104  1  0  0  0
 18 19  2  0  0  0
 18105  1  0  0  0
 19 20  1  0  0  0
 19 24  1  0  0  0
 20 21  2  0  0  0
 20106  1  0  0  0
 21 23  1  0  0  0
 22 28  1  0  0  0
 22 32  2  0  0  0
 26 27  1  0  0  0
 28107  1  0  0  0
 28108  1  0  0  0
 29109  1  0  0  0
 29110  1  0  0  0
 33 34  1  0  0  0
 33 66  1  0  0  0
 33 70  2  0  0  0
 34 36  1  0  0  0
 34 59  1  0  0  0
 34111  1  0  0  0
 35 44  2  0  0  0
 35 45  1  0  0  0
 35 68  1  0  0  0
 36 56  1  0  0  0
 36112  1  0  0  0
 37 39  1  0  0  0
 37 47  1  0  0  0
 37 66  1  0  0  0
 37113  1  0  0  0
 38 43  2  0  0  0
 38 46  1  0  0  0
 38 47  1  0  0  0
 39 64  1  0  0  0
 39 67  2  0  0  0
 40 52  1  0  0  0
 40 53  2  0  0  0
 40 58  1  0  0  0
 41114  1  0  0  0
 41115  1  0  0  0
 41116  1  0  0  0
 41 48  1  0  0  0
 42 43  1  0  0  0
 42 66  1  0  0  0
 42117  1  0  0  0
 42118  1  0  0  0
 43 44  1  0  0  0
 44119  1  0  0  0
 45 46  2  0  0  0
 45120  1  0  0  0
 46121  1  0  0  0
 47122  1  0  0  0
 47123  1  0  0  0
 48 56  1  0  0  0
 48 65  1  0  0  0
 48124  1  0  0  0
 49 50  1  0  0  0
 49 53  1  0  0  0
 49 64  1  0  0  0
 49125  1  0  0  0
 50 51  1  0  0  0
 50126  1  0  0  0
 50127  1  0  0  0
 51 52  1  0  0  0
 51128  1  0  0  0
 51129  1  0  0  0
 52130  1  0  0  0
 52131  1  0  0  0
 53 54  1  0  0  0
 54 55  2  0  0  0
 54132  1  0  0  0
 55 57  1  0  0  0
 55133  1  0  0  0
 56 69  2  0  0  0
 57 58  2  0  0  0
 57134  1  0  0  0
 58135  1  0  0  0
 59 60  1  0  0  0
 59 61  1  0  0  0
 59 62  1  0  0  0
 60136  1  0  0  0
 60137  1  0  0  0
 60138  1  0  0  0
 61139  1  0  0  0
 61140  1  0  0  0
 61141  1  0  0  0
 62142  1  0  0  0
 62143  1  0  0  0
 62144  1  0  0  0
 63 65  1  0  0  0
 63145  1  0  0  0
 63146  1  0  0  0
 63147  1  0  0  0
 64148  1  0  0  0
 65149  1  0  0  0
 68 86  1  0  0  0
 71 72  2  0  0  0
 71 73  1  0  0  0
 71150  1  0  0  0
 72 75  1  0  0  0
 72151  1  0  0  0
 73 76  2  0  0  0
 73152  1  0  0  0
 74 75  2  0  0  0
 74 76  1  0  0  0
 74153  1  0  0  0
 75 81  1  0  0  0
 76 88  1  0  0  0
 77 82  1  0  0  0
 77 89  1  0  0  0
 77 90  2  0  0  0
 78154  1  0  0  0
 78155  1  0  0  0
 78156  1  0  0  0
 78 87  1  0  0  0
 79 87  1  0  0  0
 79157  1  0  0  0
 79158  1  0  0  0
 79159  1  0  0  0
 80 88  1  0  0  0
 80160  1  0  0  0
 80161  1  0  0  0
 80162  1  0  0  0
 81 89  1  0  0  0
 81163  1  0  0  0
 81164  1  0  0  0
 82 87  1  0  0  0
 82165  1  0  0  0
 82166  1  0  0  0
 83 84  1  0  0  0
 83 85  1  0  0  0
 83167  1  0  0  0
 83168  1  0  0  0
 84 86  1  0  0  0
 84169  1  0  0  0
 84170  1  0  0  0
 85 89  1  0  0  0
 85171  1  0  0  0
 85172  1  0  0  0
 86173  1  0  0  0
 86174  1  0  0  0
 87175  1  0  0  0
M  ISO  4   1 100  68 101  86 101  88 100
M  END
> <chiral flag>
0

> <version>
0

> <s_m_source_file>
/data/baiqing/PycharmProjects/Reinvent-master-3.2/result/LINK_invent/BTK/process_docking_weight1_custom_sum_contain_oxygen_bond_distance_aromatic_linkinvent_7_9_3/rearranged_h_0004.sdf

> <i_m_source_file_index>
63

> <r_mmod_Potential_Energy-OPLS-2005>
206.240982055664

> <r_mmod_Stretch_Energy-OPLS-2005>
38.1212120056152

> <r_mmod_Bend_Energy-OPLS-2005>
115.552597045898

> <r_mmod_Torsional_Energy-OPLS-2005>
293.244537353516

> <r_mmod_Improper_Torsional_Energy-OPLS-2005>
24.163818359375

> <r_mmod_Van_der_Waal_Energy-OPLS-2005>
171.137222290039

> <r_mmod_Electrostatic_Energy-OPLS-2005>
-263.614501953125

> <r_mmod_Solvation_Energy-OPLS-2005>
-201.070098876953

> <b_mmod_Minimization_Converged-OPLS-2005>
0

> <r_mmod_RMS_Derivative-OPLS-2005>
3.09235525131226

$$$$
63
                    3D
 Structure written by MMmdl.
163171  0  0  1  0            999 V2000
  -30.7494  -14.4145   20.6176 C   0  0  0  0  0  0
  -30.4150  -12.2883   19.4295 C   0  0  0  0  0  0
  -29.5001  -12.5182   18.2121 C   0  0  0  0  0  0
  -28.0177  -12.3897   18.6126 C   0  0  0  0  0  0
  -27.6629  -13.2139   19.8798 C   0  0  2  0  0  0
  -28.7016  -12.9822   21.0023 C   0  0  0  0  0  0
  -25.2576  -13.8192   20.5700 C   0  0  0  0  0  0
  -24.1837  -13.0461   20.9204 C   0  0  0  0  0  0
  -24.6399  -11.6934   20.8742 C   0  0  0  0  0  0
  -23.9065  -10.4321   21.0393 C   0  0  0  0  0  0
  -24.3624   -9.4233   21.9152 C   0  0  0  0  0  0
  -23.6311   -8.2259   22.0723 C   0  0  0  0  0  0
  -22.4290   -8.0293   21.3525 C   0  0  0  0  0  0
  -21.9919   -9.0271   20.4632 C   0  0  0  0  0  0
  -22.7247  -10.2151   20.3050 C   0  0  0  0  0  0
  -21.6864   -6.0741   22.5291 C   0  0  0  0  0  0
  -21.4022   -6.5637   23.8228 C   0  0  0  0  0  0
  -21.3666   -5.6777   24.9177 C   0  0  0  0  0  0
  -21.6053   -4.3049   24.7218 C   0  0  0  0  0  0
  -21.8810   -3.8146   23.4342 C   0  0  0  0  0  0
  -21.9196   -4.6968   22.3407 C   0  0  0  0  0  0
  -22.7851  -13.5251   21.1844 C   0  0  0  0  0  0
  -22.1643   -4.2160   21.0980 F   0  0  0  0  0  0
  -21.5632   -3.4517   25.7724 F   0  0  0  0  0  0
  -30.0371  -13.2690   20.4548 N   0  0  0  0  0  0
  -26.3024  -12.9371   20.3378 N   0  0  0  0  0  0
  -25.9328  -11.6525   20.5785 N   0  0  0  0  0  0
  -22.0470  -12.8277   22.0417 N   0  0  0  0  0  0
  -25.4285  -15.1920   20.4125 N   0  0  0  0  0  0
  -31.8420  -14.6004   20.0735 O   0  0  0  0  0  0
  -21.6654   -6.8886   21.4251 O   0  0  0  0  0  0
  -22.3533  -14.5538   20.6664 O   0  0  0  0  0  0
  -24.6116  -31.8689   23.2112 C   0  0  0  0  0  0
  -25.9035  -32.4820   23.8387 C   0  0  1  0  0  0
  -27.2400  -27.4692   20.0856 C   0  0  0  0  0  0
  -25.5907  -33.8615   24.2322 N   0  0  0  0  0  0
  -23.3980  -30.4927   21.5490 C   0  0  2  0  0  0
  -24.8472  -28.9607   20.1124 C   0  0  0  0  0  0
  -22.7379  -29.4675   22.4976 C   0  0  0  0  0  0
  -18.0271  -28.1366   22.8481 C   0  0  0  0  0  0
  -24.1488  -36.7304   23.2638 C   0  0  0  0  0  0
  -25.9249  -30.8420   21.3628 C   0  0  0  0  0  0
  -26.0035  -29.4805   20.7071 C   0  0  0  0  0  0
  -27.2054  -28.7427   20.6908 C   0  0  0  0  0  0
  -26.0717  -26.9508   19.4903 C   0  0  0  0  0  0
  -24.8736  -27.6926   19.5005 C   0  0  0  0  0  0
  -23.6055  -29.8218   20.1636 C   0  0  0  0  0  0
  -25.4113  -36.3102   24.0331 C   0  0  1  0  0  0
  -20.5859  -28.3662   23.1303 C   0  0  2  0  0  0
  -20.6761  -26.9398   22.5404 C   0  0  0  0  0  0
  -19.5756  -26.6380   21.5185 C   0  0  0  0  0  0
  -18.1928  -26.7918   22.1590 C   0  0  0  0  0  0
  -19.1516  -28.8821   23.2894 C   0  0  0  0  0  0
  -18.9451  -30.1432   23.8917 C   0  0  0  0  0  0
  -17.6458  -30.6578   24.0560 C   0  0  0  0  0  0
  -25.9033  -34.9470   23.5118 C   0  0  0  0  0  0
  -16.5350  -29.9079   23.6328 C   0  0  0  0  0  0
  -16.7260  -28.6483   23.0356 C   0  0  0  0  0  0
  -26.4484  -31.6604   25.0709 C   0  0  0  0  0  0
  -25.3763  -31.3698   26.1467 C   0  0  0  0  0  0
  -27.0346  -30.3061   24.6089 C   0  0  0  0  0  0
  -27.6064  -32.4327   25.7467 C   0  0  0  0  0  0
  -27.5587  -37.1807   24.8458 C   0  0  0  0  0  0
  -21.4110  -29.3034   22.3701 N   0  0  0  0  0  0
  -26.4299  -37.3791   23.9403 N   0  0  0  0  0  0
  -24.6625  -31.0810   22.0999 N   0  0  0  0  0  0
  -23.4160  -28.8222   23.3009 O   0  0  0  0  0  0
  -28.3998  -26.7356   20.0860 O   0  0  0  0  0  0
  -26.5586  -34.8928   22.4675 O   0  0  0  0  0  0
  -23.5317  -32.1432   23.7534 O   0  0  0  0  0  0
  -32.5343  -17.9709   22.5816 C   0  0  0  0  0  0
  -31.8432  -16.7540   22.4641 C   0  0  0  0  0  0
  -30.3412  -17.7747   20.8416 C   0  0  0  0  0  0
  -31.0318  -19.0066   20.9433 C   0  0  0  0  0  0
  -32.1681  -19.0904   21.8054 C   0  0  0  0  0  0
  -30.7675  -16.6435   21.5644 C   0  0  0  0  0  0
  -30.6000  -20.1232   20.0203 C   0  0  0  0  0  0
  -33.0583  -20.3232   21.9185 C   0  0  0  0  0  0
  -30.1296  -21.6432   21.9480 C   0  0  0  0  0  0
  -29.9905  -23.9102   20.0641 C   0  0  0  0  0  0
  -28.5403  -24.3060   20.4069 C   0  0  0  0  0  0
  -30.1515  -22.4625   19.5333 C   0  0  0  0  0  0
  -28.4034  -25.6914   21.0611 C   0  0  0  0  0  0
  -30.1642  -15.3825   21.3405 N   0  0  0  0  0  0
  -30.3141  -21.3602   20.5143 N   0  0  0  0  0  0
  -30.5271  -19.8671   18.8133 O   0  0  0  0  0  0
  -31.4642  -12.3661   19.1375 H   0  0  0  0  0  0
  -30.2917  -11.2778   19.8240 H   0  0  0  0  0  0
  -29.7429  -11.8037   17.4262 H   0  0  0  0  0  0
  -29.6846  -13.5092   17.7928 H   0  0  0  0  0  0
  -27.8122  -11.3326   18.7864 H   0  0  0  0  0  0
  -27.3816  -12.6933   17.7802 H   0  0  0  0  0  0
  -27.7105  -14.2675   19.5992 H   0  0  0  0  0  0
  -28.6710  -11.9444   21.3394 H   0  0  0  0  0  0
  -28.4651  -13.5800   21.8829 H   0  0  0  0  0  0
  -25.2758   -9.5714   22.4737 H   0  0  0  0  0  0
  -24.0027   -7.4655   22.7447 H   0  0  0  0  0  0
  -21.0839   -8.8807   19.8967 H   0  0  0  0  0  0
  -22.3691  -10.9686   19.6183 H   0  0  0  0  0  0
  -21.2014   -7.6149   23.9735 H   0  0  0  0  0  0
  -21.1489   -6.0503   25.9085 H   0  0  0  0  0  0
  -22.0588   -2.7616   23.2838 H   0  0  0  0  0  0
  -22.4043  -11.9978   22.4912 H   0  0  0  0  0  0
  -21.1092  -13.1333   22.2569 H   0  0  0  0  0  0
  -24.6668  -15.8507   20.5330 H   0  0  0  0  0  0
  -26.2867  -15.6323   20.1012 H   0  0  0  0  0  0
  -26.7103  -32.5539   23.1148 H   0  0  0  0  0  0
  -25.0127  -33.9788   25.0510 H   0  0  0  0  0  0
  -22.6869  -31.3101   21.4087 H   0  0  0  0  0  0
  -23.3753  -35.9635   23.3311 H   0  0  0  0  0  0
  -24.3578  -36.8911   22.2050 H   0  0  0  0  0  0
  -23.7243  -37.6512   23.6649 H   0  0  0  0  0  0
  -26.0411  -31.6113   20.5982 H   0  0  0  0  0  0
  -26.8108  -30.8866   21.9840 H   0  0  0  0  0  0
  -28.1024  -29.1401   21.1447 H   0  0  0  0  0  0
  -26.0901  -25.9784   19.0178 H   0  0  0  0  0  0
  -23.9839  -27.2883   19.0366 H   0  0  0  0  0  0
  -23.7084  -30.5947   19.4003 H   0  0  0  0  0  0
  -22.7306  -29.2368   19.8728 H   0  0  0  0  0  0
  -25.1297  -36.1960   25.0825 H   0  0  0  0  0  0
  -20.9960  -28.3234   24.1418 H   0  0  0  0  0  0
  -20.5623  -26.2277   23.3589 H   0  0  0  0  0  0
  -21.6638  -26.7427   22.1228 H   0  0  0  0  0  0
  -19.6922  -25.6286   21.1225 H   0  0  0  0  0  0
  -19.6715  -27.3176   20.6700 H   0  0  0  0  0  0
  -17.4203  -26.6671   21.3988 H   0  0  0  0  0  0
  -18.0344  -26.0044   22.8967 H   0  0  0  0  0  0
  -19.7935  -30.7225   24.2303 H   0  0  0  0  0  0
  -17.5025  -31.6268   24.5152 H   0  0  0  0  0  0
  -15.5357  -30.2991   23.7641 H   0  0  0  0  0  0
  -15.8655  -28.0806   22.7085 H   0  0  0  0  0  0
  -24.5891  -30.7109   25.7784 H   0  0  0  0  0  0
  -24.9012  -32.2859   26.4987 H   0  0  0  0  0  0
  -25.8113  -30.8787   27.0182 H   0  0  0  0  0  0
  -26.2897  -29.6774   24.1198 H   0  0  0  0  0  0
  -27.4204  -29.7339   25.4538 H   0  0  0  0  0  0
  -27.8683  -30.4405   23.9192 H   0  0  0  0  0  0
  -27.2684  -33.3596   26.2120 H   0  0  0  0  0  0
  -28.3837  -32.6951   25.0271 H   0  0  0  0  0  0
  -28.0793  -31.8415   26.5326 H   0  0  0  0  0  0
  -28.2600  -38.0111   24.7521 H   0  0  0  0  0  0
  -28.1091  -36.2645   24.6265 H   0  0  0  0  0  0
  -27.2307  -37.1428   25.8862 H   0  0  0  0  0  0
  -20.9248  -29.8754   21.6936 H   0  0  0  0  0  0
  -26.0184  -38.2867   24.1411 H   0  0  0  0  0  0
  -33.3854  -18.0280   23.2465 H   0  0  0  0  0  0
  -32.1720  -15.8945   23.0318 H   0  0  0  0  0  0
  -29.5154  -17.6879   20.1471 H   0  0  0  0  0  0
  -34.1063  -20.0256   21.9571 H   0  0  0  0  0  0
  -32.8399  -20.8660   22.8383 H   0  0  0  0  0  0
  -32.9689  -21.0096   21.0779 H   0  0  0  0  0  0
  -30.1493  -20.7535   22.5767 H   0  0  0  0  0  0
  -29.1625  -22.0963   22.1444 H   0  0  0  0  0  0
  -30.9055  -22.3133   22.3170 H   0  0  0  0  0  0
  -30.6681  -24.0946   20.8980 H   0  0  0  0  0  0
  -30.3276  -24.5890   19.2783 H   0  0  0  0  0  0
  -28.1146  -23.5802   21.0942 H   0  0  0  0  0  0
  -27.9150  -24.2576   19.5149 H   0  0  0  0  0  0
  -31.0460  -22.4560   18.9074 H   0  0  0  0  0  0
  -29.3227  -22.2293   18.8626 H   0  0  0  0  0  0
  -29.2144  -25.8677   21.7693 H   0  0  0  0  0  0
  -27.4881  -25.7020   21.6588 H   0  0  0  0  0  0
  -29.2192  -15.2368   21.6619 H   0  0  0  0  0  0
  1 25  1  0  0  0
  1 30  2  0  0  0
  1 84  1  0  0  0
  2  3  1  0  0  0
  2 25  1  0  0  0
  2 87  1  0  0  0
  2 88  1  0  0  0
  3  4  1  0  0  0
  3 89  1  0  0  0
  3 90  1  0  0  0
  4  5  1  0  0  0
  4 91  1  0  0  0
  4 92  1  0  0  0
  5  6  1  0  0  0
  5 26  1  0  0  0
  5 93  1  0  0  0
  6 25  1  0  0  0
  6 94  1  0  0  0
  6 95  1  0  0  0
  7  8  2  0  0  0
  7 26  1  0  0  0
  7 29  1  0  0  0
  8  9  1  0  0  0
  8 22  1  0  0  0
  9 10  1  0  0  0
  9 27  2  0  0  0
 10 11  2  0  0  0
 10 15  1  0  0  0
 11 12  1  0  0  0
 11 96  1  0  0  0
 12 13  2  0  0  0
 12 97  1  0  0  0
 13 14  1  0  0  0
 13 31  1  0  0  0
 14 15  2  0  0  0
 14 98  1  0  0  0
 15 99  1  0  0  0
 16 17  2  0  0  0
 16 21  1  0  0  0
 16 31  1  0  0  0
 17 18  1  0  0  0
 17100  1  0  0  0
 18 19  2  0  0  0
 18101  1  0  0  0
 19 20  1  0  0  0
 19 24  1  0  0  0
 20 21  2  0  0  0
 20102  1  0  0  0
 21 23  1  0  0  0
 22 28  1  0  0  0
 22 32  2  0  0  0
 26 27  1  0  0  0
 28103  1  0  0  0
 28104  1  0  0  0
 29105  1  0  0  0
 29106  1  0  0  0
 33 34  1  0  0  0
 33 66  1  0  0  0
 33 70  2  0  0  0
 34 36  1  0  0  0
 34 59  1  0  0  0
 34107  1  0  0  0
 35 44  2  0  0  0
 35 45  1  0  0  0
 35 68  1  0  0  0
 36 56  1  0  0  0
 36108  1  0  0  0
 37 39  1  0  0  0
 37 47  1  0  0  0
 37 66  1  0  0  0
 37109  1  0  0  0
 38 43  2  0  0  0
 38 46  1  0  0  0
 38 47  1  0  0  0
 39 64  1  0  0  0
 39 67  2  0  0  0
 40 52  1  0  0  0
 40 53  2  0  0  0
 40 58  1  0  0  0
 41110  1  0  0  0
 41111  1  0  0  0
 41112  1  0  0  0
 41 48  1  0  0  0
 42 43  1  0  0  0
 42 66  1  0  0  0
 42113  1  0  0  0
 42114  1  0  0  0
 43 44  1  0  0  0
 44115  1  0  0  0
 45 46  2  0  0  0
 45116  1  0  0  0
 46117  1  0  0  0
 47118  1  0  0  0
 47119  1  0  0  0
 48 56  1  0  0  0
 48 65  1  0  0  0
 48120  1  0  0  0
 49 50  1  0  0  0
 49 53  1  0  0  0
 49 64  1  0  0  0
 49121  1  0  0  0
 50 51  1  0  0  0
 50122  1  0  0  0
 50123  1  0  0  0
 51 52  1  0  0  0
 51124  1  0  0  0
 51125  1  0  0  0
 52126  1  0  0  0
 52127  1  0  0  0
 53 54  1  0  0  0
 54 55  2  0  0  0
 54128  1  0  0  0
 55 57  1  0  0  0
 55129  1  0  0  0
 56 69  2  0  0  0
 57 58  2  0  0  0
 57130  1  0  0  0
 58131  1  0  0  0
 59 60  1  0  0  0
 59 61  1  0  0  0
 59 62  1  0  0  0
 60132  1  0  0  0
 60133  1  0  0  0
 60134  1  0  0  0
 61135  1  0  0  0
 61136  1  0  0  0
 61137  1  0  0  0
 62138  1  0  0  0
 62139  1  0  0  0
 62140  1  0  0  0
 63 65  1  0  0  0
 63141  1  0  0  0
 63142  1  0  0  0
 63143  1  0  0  0
 64144  1  0  0  0
 65145  1  0  0  0
 68 83  1  0  0  0
 71 72  2  0  0  0
 71 75  1  0  0  0
 71146  1  0  0  0
 72 76  1  0  0  0
 72147  1  0  0  0
 73 74  1  0  0  0
 73 76  2  0  0  0
 73148  1  0  0  0
 74 75  2  0  0  0
 74 77  1  0  0  0
 75 78  1  0  0  0
 76 84  1  0  0  0
 77 85  1  0  0  0
 77 86  2  0  0  0
 78149  1  0  0  0
 78150  1  0  0  0
 78151  1  0  0  0
 79 85  1  0  0  0
 79152  1  0  0  0
 79153  1  0  0  0
 79154  1  0  0  0
 80 81  1  0  0  0
 80 82  1  0  0  0
 80155  1  0  0  0
 80156  1  0  0  0
 81 83  1  0  0  0
 81157  1  0  0  0
 81158  1  0  0  0
 82 85  1  0  0  0
 82159  1  0  0  0
 82160  1  0  0  0
 83161  1  0  0  0
 83162  1  0  0  0
 84163  1  0  0  0
M  ISO  4   1 100  68 101  83 101  84 100
M  END
> <chiral flag>
0

> <version>
0

> <s_m_source_file>
/data/baiqing/PycharmProjects/Reinvent-master-3.2/result/LINK_invent/BTK/process_docking_weight1_custom_sum_contain_oxygen_bond_distance_aromatic_linkinvent_7_9_3/rearranged_h_0004.sdf

> <i_m_source_file_index>
64

> <r_mmod_Potential_Energy-OPLS-2005>
76.4075241088867

> <r_mmod_Stretch_Energy-OPLS-2005>
37.9669456481934

> <r_mmod_Bend_Energy-OPLS-2005>
103.368896484375

> <r_mmod_Torsional_Energy-OPLS-2005>
321.378814697266

> <r_mmod_Improper_Torsional_Energy-OPLS-2005>
2.85084342956543

> <r_mmod_Van_der_Waal_Energy-OPLS-2005>
169.833358764648

> <r_mmod_Electrostatic_Energy-OPLS-2005>
-341.876770019531

> <r_mmod_Solvation_Energy-OPLS-2005>
-225.998565673828

> <b_mmod_Minimization_Converged-OPLS-2005>
0

> <r_mmod_RMS_Derivative-OPLS-2005>
2.91021227836609

$$$$
64
                    3D
 Structure written by MMmdl.
157165  0  0  1  0            999 V2000
  -30.6944  -14.5717   20.4977 C   0  0  0  0  0  0
  -30.4279  -12.3635   19.4207 C   0  0  0  0  0  0
  -29.4965  -12.5229   18.2009 C   0  0  0  0  0  0
  -28.0166  -12.3840   18.6112 C   0  0  0  0  0  0
  -27.6590  -13.2228   19.8662 C   0  0  2  0  0  0
  -28.7098  -13.0592   20.9827 C   0  0  0  0  0  0
  -25.2586  -13.8197   20.5709 C   0  0  0  0  0  0
  -24.1863  -13.0437   20.9186 C   0  0  0  0  0  0
  -24.6449  -11.6911   20.8735 C   0  0  0  0  0  0
  -23.9116  -10.4289   21.0406 C   0  0  0  0  0  0
  -24.3659   -9.4200   21.9186 C   0  0  0  0  0  0
  -23.6319   -8.2240   22.0769 C   0  0  0  0  0  0
  -22.4303   -8.0283   21.3553 C   0  0  0  0  0  0
  -21.9945   -9.0267   20.4656 C   0  0  0  0  0  0
  -22.7289  -10.2138   20.3055 C   0  0  0  0  0  0
  -21.6853   -6.0743   22.5277 C   0  0  0  0  0  0
  -21.4001   -6.5637   23.8214 C   0  0  0  0  0  0
  -21.3662   -5.6792   24.9171 C   0  0  0  0  0  0
  -21.6059   -4.3060   24.7220 C   0  0  0  0  0  0
  -21.8827   -3.8155   23.4340 C   0  0  0  0  0  0
  -21.9194   -4.6966   22.3398 C   0  0  0  0  0  0
  -22.7876  -13.5207   21.1843 C   0  0  0  0  0  0
  -22.1666   -4.2152   21.0972 F   0  0  0  0  0  0
  -21.5642   -3.4548   25.7732 F   0  0  0  0  0  0
  -30.0260  -13.3800   20.4121 N   0  0  0  0  0  0
  -26.3053  -12.9405   20.3391 N   0  0  0  0  0  0
  -25.9390  -11.6544   20.5781 N   0  0  0  0  0  0
  -22.0516  -12.8201   22.0389 N   0  0  0  0  0  0
  -25.4246  -15.1916   20.4122 N   0  0  0  0  0  0
  -31.8571  -14.6919   20.1054 O   0  0  0  0  0  0
  -21.6651   -6.8887   21.4247 O   0  0  0  0  0  0
  -22.3558  -14.5518   20.6682 O   0  0  0  0  0  0
  -24.6225  -31.8642   23.2055 C   0  0  0  0  0  0
  -25.9101  -32.4779   23.8367 C   0  0  1  0  0  0
  -27.2177  -27.3532   20.1223 C   0  0  0  0  0  0
  -25.5935  -33.8576   24.2298 N   0  0  0  0  0  0
  -23.4124  -30.4923   21.5436 C   0  0  2  0  0  0
  -24.8587  -28.9474   20.1107 C   0  0  0  0  0  0
  -22.7410  -29.4719   22.4952 C   0  0  0  0  0  0
  -18.0286  -28.1376   22.8447 C   0  0  0  0  0  0
  -24.1492  -36.7297   23.2641 C   0  0  0  0  0  0
  -25.9498  -30.8016   21.3761 C   0  0  0  0  0  0
  -26.0240  -29.4322   20.7195 C   0  0  0  0  0  0
  -27.2087  -28.6455   20.7216 C   0  0  0  0  0  0
  -26.0377  -26.9143   19.4844 C   0  0  0  0  0  0
  -24.8648  -27.6907   19.4856 C   0  0  0  0  0  0
  -23.6272  -29.8266   20.1581 C   0  0  0  0  0  0
  -25.4106  -36.3072   24.0330 C   0  0  1  0  0  0
  -20.5867  -28.3696   23.1247 C   0  0  2  0  0  0
  -20.6840  -26.9499   22.5167 C   0  0  0  0  0  0
  -19.5718  -26.6350   21.5111 C   0  0  0  0  0  0
  -18.1905  -26.7933   22.1532 C   0  0  0  0  0  0
  -19.1525  -28.8814   23.2896 C   0  0  0  0  0  0
  -18.9444  -30.1365   23.8978 C   0  0  0  0  0  0
  -17.6453  -30.6539   24.0605 C   0  0  0  0  0  0
  -25.9049  -34.9444   23.5105 C   0  0  0  0  0  0
  -16.5367  -29.9069   23.6327 C   0  0  0  0  0  0
  -16.7270  -28.6508   23.0333 C   0  0  0  0  0  0
  -26.4498  -31.6586   25.0734 C   0  0  0  0  0  0
  -25.3741  -31.3737   26.1473 C   0  0  0  0  0  0
  -27.0387  -30.3015   24.6218 C   0  0  0  0  0  0
  -27.6035  -32.4332   25.7517 C   0  0  0  0  0  0
  -27.5580  -37.1808   24.8463 C   0  0  0  0  0  0
  -21.4113  -29.3177   22.3767 N   0  0  0  0  0  0
  -26.4293  -37.3757   23.9404 N   0  0  0  0  0  0
  -24.6792  -31.0695   22.0988 N   0  0  0  0  0  0
  -23.4160  -28.8190   23.2953 O   0  0  0  0  0  0
  -28.3284  -26.5145   20.1434 O   0  0  0  0  0  0
  -26.5592  -34.8891   22.4665 O   0  0  0  0  0  0
  -23.5398  -32.1433   23.7414 O   0  0  0  0  0  0
  -29.7646  -16.0907   24.4390 C   0  0  0  0  0  0
  -29.6250  -17.4718   24.5885 C   0  0  0  0  0  0
  -29.8720  -15.5511   23.1519 C   0  0  0  0  0  0
  -29.5884  -18.3007   23.4576 C   0  0  0  0  0  0
  -29.8433  -16.3644   21.9901 C   0  0  0  0  0  0
  -29.6879  -17.7985   22.1258 C   0  0  0  0  0  0
  -28.6085  -22.5605   20.7574 C   0  0  0  0  0  0
  -28.8742  -23.9437   20.0370 C   0  0  0  0  0  0
  -29.2761  -21.2252   20.2309 C   0  0  0  0  0  0
  -28.1059  -25.1633   20.6782 C   0  0  0  0  0  0
  -29.3638  -20.1079   21.3377 C   0  0  0  0  0  0
  -29.9668  -15.6990   20.7252 N   0  0  0  0  0  0
  -29.6386  -18.6945   21.0351 O   0  0  0  0  0  0
  -31.4668  -12.4679   19.1035 H   0  0  0  0  0  0
  -30.3480  -11.3584   19.8388 H   0  0  0  0  0  0
  -29.7441  -11.7898   17.4317 H   0  0  0  0  0  0
  -29.6604  -13.5011   17.7460 H   0  0  0  0  0  0
  -27.8159  -11.3293   18.7983 H   0  0  0  0  0  0
  -27.3732  -12.6782   17.7813 H   0  0  0  0  0  0
  -27.6835  -14.2679   19.5563 H   0  0  0  0  0  0
  -28.7168  -12.0425   21.3784 H   0  0  0  0  0  0
  -28.4460  -13.7064   21.8148 H   0  0  0  0  0  0
  -25.2799   -9.5666   22.4772 H   0  0  0  0  0  0
  -24.0029   -7.4620   22.7483 H   0  0  0  0  0  0
  -21.0887   -8.8787   19.8944 H   0  0  0  0  0  0
  -22.3762  -10.9680   19.6166 H   0  0  0  0  0  0
  -21.1978   -7.6145   23.9714 H   0  0  0  0  0  0
  -21.1483   -6.0520   25.9081 H   0  0  0  0  0  0
  -22.0606   -2.7614   23.2833 H   0  0  0  0  0  0
  -22.4151  -11.9880   22.4797 H   0  0  0  0  0  0
  -21.1104  -13.1193   22.2532 H   0  0  0  0  0  0
  -24.6560  -15.8418   20.5258 H   0  0  0  0  0  0
  -26.2923  -15.6450   20.1491 H   0  0  0  0  0  0
  -26.7187  -32.5459   23.1138 H   0  0  0  0  0  0
  -25.0151  -33.9750   25.0494 H   0  0  0  0  0  0
  -22.7081  -31.3132   21.3992 H   0  0  0  0  0  0
  -23.3736  -35.9660   23.3316 H   0  0  0  0  0  0
  -24.3602  -36.8907   22.2061 H   0  0  0  0  0  0
  -23.7281  -37.6510   23.6669 H   0  0  0  0  0  0
  -26.0861  -31.5680   20.6118 H   0  0  0  0  0  0
  -26.8261  -30.8428   22.0112 H   0  0  0  0  0  0
  -28.1003  -29.0077   21.2130 H   0  0  0  0  0  0
  -26.0130  -25.9526   18.9924 H   0  0  0  0  0  0
  -23.9750  -27.3145   19.0012 H   0  0  0  0  0  0
  -23.7464  -30.6001   19.3965 H   0  0  0  0  0  0
  -22.7474  -29.2564   19.8566 H   0  0  0  0  0  0
  -25.1303  -36.1925   25.0825 H   0  0  0  0  0  0
  -20.9937  -28.3178   24.1366 H   0  0  0  0  0  0
  -20.6072  -26.2272   23.3300 H   0  0  0  0  0  0
  -21.6618  -26.7780   22.0634 H   0  0  0  0  0  0
  -19.6865  -25.6223   21.1270 H   0  0  0  0  0  0
  -19.6647  -27.3029   20.6514 H   0  0  0  0  0  0
  -17.4175  -26.6833   21.3896 H   0  0  0  0  0  0
  -18.0220  -26.0038   22.8853 H   0  0  0  0  0  0
  -19.7938  -30.7122   24.2430 H   0  0  0  0  0  0
  -17.4988  -31.6209   24.5262 H   0  0  0  0  0  0
  -15.5362  -30.2965   23.7655 H   0  0  0  0  0  0
  -15.8646  -28.0907   22.7040 H   0  0  0  0  0  0
  -24.5890  -30.7105   25.7826 H   0  0  0  0  0  0
  -24.8960  -32.2916   26.4894 H   0  0  0  0  0  0
  -25.8064  -30.8922   27.0252 H   0  0  0  0  0  0
  -26.3001  -29.6708   24.1240 H   0  0  0  0  0  0
  -27.4111  -29.7311   25.4736 H   0  0  0  0  0  0
  -27.8849  -30.4318   23.9461 H   0  0  0  0  0  0
  -27.2631  -33.3629   26.2088 H   0  0  0  0  0  0
  -28.3864  -32.6886   25.0368 H   0  0  0  0  0  0
  -28.0690  -31.8462   26.5451 H   0  0  0  0  0  0
  -28.2579  -38.0110   24.7482 H   0  0  0  0  0  0
  -28.1082  -36.2635   24.6319 H   0  0  0  0  0  0
  -27.2305  -37.1509   25.8864 H   0  0  0  0  0  0
  -20.9228  -29.9039   21.7158 H   0  0  0  0  0  0
  -26.0166  -38.2843   24.1357 H   0  0  0  0  0  0
  -29.7945  -15.4383   25.3005 H   0  0  0  0  0  0
  -29.5471  -17.9000   25.5787 H   0  0  0  0  0  0
  -29.9912  -14.4799   23.0916 H   0  0  0  0  0  0
  -29.4845  -19.3486   23.6822 H   0  0  0  0  0  0
  -27.5305  -22.3899   20.7669 H   0  0  0  0  0  0
  -28.8830  -22.6852   21.8055 H   0  0  0  0  0  0
  -28.5875  -23.8597   18.9889 H   0  0  0  0  0  0
  -29.9423  -24.1558   20.0477 H   0  0  0  0  0  0
  -30.2766  -21.4345   19.8485 H   0  0  0  0  0  0
  -28.6989  -20.8573   19.3825 H   0  0  0  0  0  0
  -28.3815  -25.2080   21.7335 H   0  0  0  0  0  0
  -27.0476  -24.8984   20.6871 H   0  0  0  0  0  0
  -28.4153  -20.1334   21.8747 H   0  0  0  0  0  0
  -30.1399  -20.4608   22.0198 H   0  0  0  0  0  0
  -30.1029  -16.3732   19.9863 H   0  0  0  0  0  0
  1 25  1  0  0  0
  1 30  2  0  0  0
  1 82  1  0  0  0
  2  3  1  0  0  0
  2 25  1  0  0  0
  2 84  1  0  0  0
  2 85  1  0  0  0
  3  4  1  0  0  0
  3 86  1  0  0  0
  3 87  1  0  0  0
  4  5  1  0  0  0
  4 88  1  0  0  0
  4 89  1  0  0  0
  5  6  1  0  0  0
  5 26  1  0  0  0
  5 90  1  0  0  0
  6 25  1  0  0  0
  6 91  1  0  0  0
  6 92  1  0  0  0
  7  8  2  0  0  0
  7 26  1  0  0  0
  7 29  1  0  0  0
  8  9  1  0  0  0
  8 22  1  0  0  0
  9 10  1  0  0  0
  9 27  2  0  0  0
 10 11  2  0  0  0
 10 15  1  0  0  0
 11 12  1  0  0  0
 11 93  1  0  0  0
 12 13  2  0  0  0
 12 94  1  0  0  0
 13 14  1  0  0  0
 13 31  1  0  0  0
 14 15  2  0  0  0
 14 95  1  0  0  0
 15 96  1  0  0  0
 16 17  2  0  0  0
 16 21  1  0  0  0
 16 31  1  0  0  0
 17 18  1  0  0  0
 17 97  1  0  0  0
 18 19  2  0  0  0
 18 98  1  0  0  0
 19 20  1  0  0  0
 19 24  1  0  0  0
 20 21  2  0  0  0
 20 99  1  0  0  0
 21 23  1  0  0  0
 22 28  1  0  0  0
 22 32  2  0  0  0
 26 27  1  0  0  0
 28100  1  0  0  0
 28101  1  0  0  0
 29102  1  0  0  0
 29103  1  0  0  0
 33 34  1  0  0  0
 33 66  1  0  0  0
 33 70  2  0  0  0
 34 36  1  0  0  0
 34 59  1  0  0  0
 34104  1  0  0  0
 35 44  2  0  0  0
 35 45  1  0  0  0
 35 68  1  0  0  0
 36 56  1  0  0  0
 36105  1  0  0  0
 37 39  1  0  0  0
 37 47  1  0  0  0
 37 66  1  0  0  0
 37106  1  0  0  0
 38 43  2  0  0  0
 38 46  1  0  0  0
 38 47  1  0  0  0
 39 64  1  0  0  0
 39 67  2  0  0  0
 40 52  1  0  0  0
 40 53  2  0  0  0
 40 58  1  0  0  0
 41107  1  0  0  0
 41108  1  0  0  0
 41109  1  0  0  0
 41 48  1  0  0  0
 42 43  1  0  0  0
 42 66  1  0  0  0
 42110  1  0  0  0
 42111  1  0  0  0
 43 44  1  0  0  0
 44112  1  0  0  0
 45 46  2  0  0  0
 45113  1  0  0  0
 46114  1  0  0  0
 47115  1  0  0  0
 47116  1  0  0  0
 48 56  1  0  0  0
 48 65  1  0  0  0
 48117  1  0  0  0
 49 50  1  0  0  0
 49 53  1  0  0  0
 49 64  1  0  0  0
 49118  1  0  0  0
 50 51  1  0  0  0
 50119  1  0  0  0
 50120  1  0  0  0
 51 52  1  0  0  0
 51121  1  0  0  0
 51122  1  0  0  0
 52123  1  0  0  0
 52124  1  0  0  0
 53 54  1  0  0  0
 54 55  2  0  0  0
 54125  1  0  0  0
 55 57  1  0  0  0
 55126  1  0  0  0
 56 69  2  0  0  0
 57 58  2  0  0  0
 57127  1  0  0  0
 58128  1  0  0  0
 59 60  1  0  0  0
 59 61  1  0  0  0
 59 62  1  0  0  0
 60129  1  0  0  0
 60130  1  0  0  0
 60131  1  0  0  0
 61132  1  0  0  0
 61133  1  0  0  0
 61134  1  0  0  0
 62135  1  0  0  0
 62136  1  0  0  0
 62137  1  0  0  0
 63 65  1  0  0  0
 63138  1  0  0  0
 63139  1  0  0  0
 63140  1  0  0  0
 64141  1  0  0  0
 65142  1  0  0  0
 68 80  1  0  0  0
 71 72  2  0  0  0
 71 73  1  0  0  0
 71143  1  0  0  0
 72 74  1  0  0  0
 72144  1  0  0  0
 73 75  2  0  0  0
 73145  1  0  0  0
 74 76  2  0  0  0
 74146  1  0  0  0
 75 76  1  0  0  0
 75 82  1  0  0  0
 76 83  1  0  0  0
 77 78  1  0  0  0
 77 79  1  0  0  0
 77147  1  0  0  0
 77148  1  0  0  0
 78 80  1  0  0  0
 78149  1  0  0  0
 78150  1  0  0  0
 79 81  1  0  0  0
 79151  1  0  0  0
 79152  1  0  0  0
 80153  1  0  0  0
 80154  1  0  0  0
 81 83  1  0  0  0
 81155  1  0  0  0
 81156  1  0  0  0
 82157  1  0  0  0
M  ISO  4   1 100  68 101  80 101  82 100
M  END
> <chiral flag>
0

> <version>
0

> <s_m_source_file>
/data/baiqing/PycharmProjects/Reinvent-master-3.2/result/LINK_invent/BTK/process_docking_weight1_custom_sum_contain_oxygen_bond_distance_aromatic_linkinvent_7_9_3/rearranged_h_0004.sdf

> <i_m_source_file_index>
65

> <r_mmod_Potential_Energy-OPLS-2005>
90.898193359375

> <r_mmod_Stretch_Energy-OPLS-2005>
68.8446197509766

> <r_mmod_Bend_Energy-OPLS-2005>
139.288146972656

> <r_mmod_Torsional_Energy-OPLS-2005>
274.686889648438

> <r_mmod_Improper_Torsional_Energy-OPLS-2005>
11.4827756881714

> <r_mmod_Van_der_Waal_Energy-OPLS-2005>
160.243225097656

> <r_mmod_Electrostatic_Energy-OPLS-2005>
-400.269439697266

> <r_mmod_Solvation_Energy-OPLS-2005>
-197.06884765625

> <b_mmod_Minimization_Converged-OPLS-2005>
0

> <r_mmod_RMS_Derivative-OPLS-2005>
4.16727113723755

$$$$
65
                    3D
 Structure written by MMmdl.
147155  0  0  1  0            999 V2000
  -30.4075  -15.3385   20.3686 C   0  0  0  0  0  0
  -30.4394  -12.8683   19.5103 C   0  0  0  0  0  0
  -29.5353  -12.5855   18.2833 C   0  0  0  0  0  0
  -28.0893  -12.2930   18.7211 C   0  0  0  0  0  0
  -27.6063  -13.2779   19.8137 C   0  0  2  0  0  0
  -28.6417  -13.4868   20.9380 C   0  0  0  0  0  0
  -25.2377  -13.8243   20.5753 C   0  0  0  0  0  0
  -24.1737  -13.0429   20.9269 C   0  0  0  0  0  0
  -24.6398  -11.6928   20.8766 C   0  0  0  0  0  0
  -23.9094  -10.4288   21.0407 C   0  0  0  0  0  0
  -24.3638   -9.4202   21.9186 C   0  0  0  0  0  0
  -23.6304   -8.2241   22.0755 C   0  0  0  0  0  0
  -22.4285   -8.0282   21.3545 C   0  0  0  0  0  0
  -21.9928   -9.0257   20.4645 C   0  0  0  0  0  0
  -22.7265  -10.2131   20.3055 C   0  0  0  0  0  0
  -21.6855   -6.0738   22.5279 C   0  0  0  0  0  0
  -21.4016   -6.5641   23.8213 C   0  0  0  0  0  0
  -21.3660   -5.6793   24.9174 C   0  0  0  0  0  0
  -21.6044   -4.3056   24.7225 C   0  0  0  0  0  0
  -21.8819   -3.8148   23.4346 C   0  0  0  0  0  0
  -21.9193   -4.6965   22.3402 C   0  0  0  0  0  0
  -22.7753  -13.5180   21.1913 C   0  0  0  0  0  0
  -22.1661   -4.2151   21.0979 F   0  0  0  0  0  0
  -21.5628   -3.4539   25.7737 F   0  0  0  0  0  0
  -29.8534  -14.0220   20.2918 N   0  0  0  0  0  0
  -26.2801  -12.9521   20.3202 N   0  0  0  0  0  0
  -25.9334  -11.6624   20.5711 N   0  0  0  0  0  0
  -22.0412  -12.8161   22.0465 N   0  0  0  0  0  0
  -25.3993  -15.1980   20.4188 N   0  0  0  0  0  0
  -31.6420  -15.3254   20.2462 O   0  0  0  0  0  0
  -21.6644   -6.8882   21.4242 O   0  0  0  0  0  0
  -22.3433  -14.5481   20.6751 O   0  0  0  0  0  0
  -24.6676  -31.8193   23.1665 C   0  0  0  0  0  0
  -25.9335  -32.4567   23.8148 C   0  0  1  0  0  0
  -27.2191  -26.8807   20.2005 C   0  0  0  0  0  0
  -25.5984  -33.8383   24.2051 N   0  0  0  0  0  0
  -23.4844  -30.4287   21.5177 C   0  0  2  0  0  0
  -24.9377  -28.8020   20.1222 C   0  0  0  0  0  0
  -22.7687  -29.4421   22.4778 C   0  0  0  0  0  0
  -18.0326  -28.1411   22.8465 C   0  0  0  0  0  0
  -24.1494  -36.7197   23.2648 C   0  0  0  0  0  0
  -26.0566  -30.6118   21.4026 C   0  0  0  0  0  0
  -26.1252  -29.1943   20.7534 C   0  0  0  0  0  0
  -27.2630  -28.2590   20.7592 C   0  0  0  0  0  0
  -25.9986  -26.6489   19.5275 C   0  0  0  0  0  0
  -24.9018  -27.5500   19.4879 C   0  0  0  0  0  0
  -23.7278  -29.7379   20.1478 C   0  0  0  0  0  0
  -25.4137  -36.2954   24.0296 C   0  0  1  0  0  0
  -20.5953  -28.3760   23.1180 C   0  0  2  0  0  0
  -20.6801  -26.9438   22.5402 C   0  0  0  0  0  0
  -19.5775  -26.6377   21.5215 C   0  0  0  0  0  0
  -18.1957  -26.7943   22.1622 C   0  0  0  0  0  0
  -19.1588  -28.8907   23.2808 C   0  0  0  0  0  0
  -18.9497  -30.1496   23.8845 C   0  0  0  0  0  0
  -17.6489  -30.6599   24.0554 C   0  0  0  0  0  0
  -25.9105  -34.9339   23.4997 C   0  0  0  0  0  0
  -16.5379  -29.9085   23.6345 C   0  0  0  0  0  0
  -16.7307  -28.6506   23.0363 C   0  0  0  0  0  0
  -26.4569  -31.6528   25.0695 C   0  0  0  0  0  0
  -25.3682  -31.3791   26.1341 C   0  0  0  0  0  0
  -27.0475  -30.2890   24.6459 C   0  0  0  0  0  0
  -27.6050  -32.4348   25.7505 C   0  0  0  0  0  0
  -27.5568  -37.1756   24.8467 C   0  0  0  0  0  0
  -21.4353  -29.3043   22.3525 N   0  0  0  0  0  0
  -26.4278  -37.3695   23.9408 N   0  0  0  0  0  0
  -24.7582  -30.9814   22.0825 N   0  0  0  0  0  0
  -23.4213  -28.7999   23.3043 O   0  0  0  0  0  0
  -28.2246  -25.7619   20.1857 O   0  0  0  0  0  0
  -26.5721  -34.8883   22.4598 O   0  0  0  0  0  0
  -23.5734  -32.1182   23.6731 O   0  0  0  0  0  0
  -28.9453  -21.1695   17.9988 C   0  0  0  0  0  0
  -29.2196  -19.9454   18.6761 C   0  0  0  0  0  0
  -28.6601  -22.4175   18.6269 C   0  0  0  0  0  0
  -28.9239  -21.2205   20.7003 C   0  0  0  0  0  0
  -29.2567  -19.8277   20.0822 C   0  0  0  0  0  0
  -28.6045  -22.5905   20.0271 C   0  0  0  0  0  0
  -29.8038  -18.2707   20.7308 C   0  0  0  0  0  0
  -28.0097  -24.1588   20.6024 C   0  0  0  0  0  0
  -29.6295  -16.6212   20.3858 N   0  0  0  0  0  0
  -31.4482  -13.0988   19.1653 H   0  0  0  0  0  0
  -30.5387  -11.9797   20.1359 H   0  0  0  0  0  0
  -29.9296  -11.7509   17.7022 H   0  0  0  0  0  0
  -29.5454  -13.4526   17.6211 H   0  0  0  0  0  0
  -28.0631  -11.2750   19.1117 H   0  0  0  0  0  0
  -27.4172  -12.3093   17.8623 H   0  0  0  0  0  0
  -27.5076  -14.2341   19.2984 H   0  0  0  0  0  0
  -28.8363  -12.5627   21.4844 H   0  0  0  0  0  0
  -28.2690  -14.2079   21.6672 H   0  0  0  0  0  0
  -25.2779   -9.5677   22.4767 H   0  0  0  0  0  0
  -24.0008   -7.4632   22.7477 H   0  0  0  0  0  0
  -21.0859   -8.8781   19.8951 H   0  0  0  0  0  0
  -22.3724  -10.9673   19.6167 H   0  0  0  0  0  0
  -21.2010   -7.6149   23.9716 H   0  0  0  0  0  0
  -21.1482   -6.0523   25.9077 H   0  0  0  0  0  0
  -22.0597   -2.7610   23.2845 H   0  0  0  0  0  0
  -22.4047  -11.9832   22.4857 H   0  0  0  0  0  0
  -21.1022  -13.1164   22.2666 H   0  0  0  0  0  0
  -24.6265  -15.8451   20.5329 H   0  0  0  0  0  0
  -26.2357  -15.6418   20.0643 H   0  0  0  0  0  0
  -26.7408  -32.5095   23.0864 H   0  0  0  0  0  0
  -25.0072  -33.9453   25.0163 H   0  0  0  0  0  0
  -22.8002  -31.2613   21.3415 H   0  0  0  0  0  0
  -23.3771  -35.9511   23.3272 H   0  0  0  0  0  0
  -24.3570  -36.8885   22.2070 H   0  0  0  0  0  0
  -23.7237  -37.6366   23.6734 H   0  0  0  0  0  0
  -26.2389  -31.3476   20.6182 H   0  0  0  0  0  0
  -26.9157  -30.6743   22.0585 H   0  0  0  0  0  0
  -28.1689  -28.5669   21.2622 H   0  0  0  0  0  0
  -25.8699  -25.6954   19.0348 H   0  0  0  0  0  0
  -24.0014  -27.2428   18.9738 H   0  0  0  0  0  0
  -23.8906  -30.5027   19.3876 H   0  0  0  0  0  0
  -22.8360  -29.1960   19.8281 H   0  0  0  0  0  0
  -25.1338  -36.1743   25.0787 H   0  0  0  0  0  0
  -21.0037  -28.3369   24.1305 H   0  0  0  0  0  0
  -20.5680  -26.2380   23.3646 H   0  0  0  0  0  0
  -21.6664  -26.7409   22.1210 H   0  0  0  0  0  0
  -19.6934  -25.6274   21.1279 H   0  0  0  0  0  0
  -19.6713  -27.3158   20.6722 H   0  0  0  0  0  0
  -17.4226  -26.6685   21.4027 H   0  0  0  0  0  0
  -18.0352  -26.0099   22.9032 H   0  0  0  0  0  0
  -19.7972  -30.7327   24.2191 H   0  0  0  0  0  0
  -17.5039  -31.6274   24.5166 H   0  0  0  0  0  0
  -15.5377  -30.2969   23.7699 H   0  0  0  0  0  0
  -15.8708  -28.0806   22.7109 H   0  0  0  0  0  0
  -24.5883  -30.7122   25.7647 H   0  0  0  0  0  0
  -24.8852  -32.2996   26.4628 H   0  0  0  0  0  0
  -25.7902  -30.9048   27.0211 H   0  0  0  0  0  0
  -26.3154  -29.6552   24.1444 H   0  0  0  0  0  0
  -27.3969  -29.7271   25.5132 H   0  0  0  0  0  0
  -27.9108  -30.4062   23.9907 H   0  0  0  0  0  0
  -27.2610  -33.3698   26.1940 H   0  0  0  0  0  0
  -28.3937  -32.6831   25.0390 H   0  0  0  0  0  0
  -28.0634  -31.8571   26.5540 H   0  0  0  0  0  0
  -28.2565  -38.0071   24.7512 H   0  0  0  0  0  0
  -28.1085  -36.2596   24.6297 H   0  0  0  0  0  0
  -27.2284  -37.1400   25.8869 H   0  0  0  0  0  0
  -20.9620  -29.8722   21.6636 H   0  0  0  0  0  0
  -26.0121  -38.2751   24.1416 H   0  0  0  0  0  0
  -28.9516  -21.1496   16.9175 H   0  0  0  0  0  0
  -29.4437  -19.0700   18.0814 H   0  0  0  0  0  0
  -28.4390  -23.2690   17.9978 H   0  0  0  0  0  0
  -28.9082  -21.2402   21.7811 H   0  0  0  0  0  0
  -29.5077  -18.3294   21.7784 H   0  0  0  0  0  0
  -30.8867  -18.3942   20.7676 H   0  0  0  0  0  0
  -28.2486  -24.1429   21.6657 H   0  0  0  0  0  0
  -26.9275  -24.0300   20.5824 H   0  0  0  0  0  0
  -28.6486  -16.3991   20.3052 H   0  0  0  0  0  0
  1 25  1  0  0  0
  1 30  2  0  0  0
  1 79  1  0  0  0
  2  3  1  0  0  0
  2 25  1  0  0  0
  2 80  1  0  0  0
  2 81  1  0  0  0
  3  4  1  0  0  0
  3 82  1  0  0  0
  3 83  1  0  0  0
  4  5  1  0  0  0
  4 84  1  0  0  0
  4 85  1  0  0  0
  5  6  1  0  0  0
  5 26  1  0  0  0
  5 86  1  0  0  0
  6 25  1  0  0  0
  6 87  1  0  0  0
  6 88  1  0  0  0
  7  8  2  0  0  0
  7 26  1  0  0  0
  7 29  1  0  0  0
  8  9  1  0  0  0
  8 22  1  0  0  0
  9 10  1  0  0  0
  9 27  2  0  0  0
 10 11  2  0  0  0
 10 15  1  0  0  0
 11 12  1  0  0  0
 11 89  1  0  0  0
 12 13  2  0  0  0
 12 90  1  0  0  0
 13 14  1  0  0  0
 13 31  1  0  0  0
 14 15  2  0  0  0
 14 91  1  0  0  0
 15 92  1  0  0  0
 16 17  2  0  0  0
 16 21  1  0  0  0
 16 31  1  0  0  0
 17 18  1  0  0  0
 17 93  1  0  0  0
 18 19  2  0  0  0
 18 94  1  0  0  0
 19 20  1  0  0  0
 19 24  1  0  0  0
 20 21  2  0  0  0
 20 95  1  0  0  0
 21 23  1  0  0  0
 22 28  1  0  0  0
 22 32  2  0  0  0
 26 27  1  0  0  0
 28 96  1  0  0  0
 28 97  1  0  0  0
 29 98  1  0  0  0
 29 99  1  0  0  0
 33 34  1  0  0  0
 33 66  1  0  0  0
 33 70  2  0  0  0
 34 36  1  0  0  0
 34 59  1  0  0  0
 34100  1  0  0  0
 35 44  2  0  0  0
 35 45  1  0  0  0
 35 68  1  0  0  0
 36 56  1  0  0  0
 36101  1  0  0  0
 37 39  1  0  0  0
 37 47  1  0  0  0
 37 66  1  0  0  0
 37102  1  0  0  0
 38 43  2  0  0  0
 38 46  1  0  0  0
 38 47  1  0  0  0
 39 64  1  0  0  0
 39 67  2  0  0  0
 40 52  1  0  0  0
 40 53  2  0  0  0
 40 58  1  0  0  0
 41103  1  0  0  0
 41104  1  0  0  0
 41105  1  0  0  0
 41 48  1  0  0  0
 42 43  1  0  0  0
 42 66  1  0  0  0
 42106  1  0  0  0
 42107  1  0  0  0
 43 44  1  0  0  0
 44108  1  0  0  0
 45 46  2  0  0  0
 45109  1  0  0  0
 46110  1  0  0  0
 47111  1  0  0  0
 47112  1  0  0  0
 48 56  1  0  0  0
 48 65  1  0  0  0
 48113  1  0  0  0
 49 50  1  0  0  0
 49 53  1  0  0  0
 49 64  1  0  0  0
 49114  1  0  0  0
 50 51  1  0  0  0
 50115  1  0  0  0
 50116  1  0  0  0
 51 52  1  0  0  0
 51117  1  0  0  0
 51118  1  0  0  0
 52119  1  0  0  0
 52120  1  0  0  0
 53 54  1  0  0  0
 54 55  2  0  0  0
 54121  1  0  0  0
 55 57  1  0  0  0
 55122  1  0  0  0
 56 69  2  0  0  0
 57 58  2  0  0  0
 57123  1  0  0  0
 58124  1  0  0  0
 59 60  1  0  0  0
 59 61  1  0  0  0
 59 62  1  0  0  0
 60125  1  0  0  0
 60126  1  0  0  0
 60127  1  0  0  0
 61128  1  0  0  0
 61129  1  0  0  0
 61130  1  0  0  0
 62131  1  0  0  0
 62132  1  0  0  0
 62133  1  0  0  0
 63 65  1  0  0  0
 63134  1  0  0  0
 63135  1  0  0  0
 63136  1  0  0  0
 64137  1  0  0  0
 65138  1  0  0  0
 68 78  1  0  0  0
 71 72  2  0  0  0
 71 73  1  0  0  0
 71139  1  0  0  0
 72 75  1  0  0  0
 72140  1  0  0  0
 73 76  2  0  0  0
 73141  1  0  0  0
 74 75  2  0  0  0
 74 76  1  0  0  0
 74142  1  0  0  0
 75 77  1  0  0  0
 76 78  1  0  0  0
 77 79  1  0  0  0
 77143  1  0  0  0
 77144  1  0  0  0
 78145  1  0  0  0
 78146  1  0  0  0
 79147  1  0  0  0
M  ISO  4   1 100  68 101  78 101  79 100
M  END
> <chiral flag>
0

> <version>
0

> <s_m_source_file>
/data/baiqing/PycharmProjects/Reinvent-master-3.2/result/LINK_invent/BTK/process_docking_weight1_custom_sum_contain_oxygen_bond_distance_aromatic_linkinvent_7_9_3/rearranged_h_0004.sdf

> <i_m_source_file_index>
66

> <r_mmod_Potential_Energy-OPLS-2005>
1401.74060058594

> <r_mmod_Stretch_Energy-OPLS-2005>
643.052795410156

> <r_mmod_Bend_Energy-OPLS-2005>
451.203063964844

> <r_mmod_Torsional_Energy-OPLS-2005>
238.437026977539

> <r_mmod_Improper_Torsional_Energy-OPLS-2005>
6.01917123794556

> <r_mmod_Van_der_Waal_Energy-OPLS-2005>
122.058601379395

> <r_mmod_Electrostatic_Energy-OPLS-2005>
-377.779266357422

> <r_mmod_Solvation_Energy-OPLS-2005>
-214.792663574219

> <b_mmod_Minimization_Converged-OPLS-2005>
1

> <r_mmod_RMS_Derivative-OPLS-2005>
0.046136412769556

$$$$
66
                    3D
 Structure written by MMmdl.
151159  0  0  1  0            999 V2000
  -30.6215  -14.6467   20.4927 C   0  0  0  0  0  0
  -30.4407  -12.3957   19.4503 C   0  0  0  0  0  0
  -29.5080  -12.5074   18.2234 C   0  0  0  0  0  0
  -28.0310  -12.3448   18.6369 C   0  0  0  0  0  0
  -27.6531  -13.2179   19.8634 C   0  0  2  0  0  0
  -28.7004  -13.0767   20.9916 C   0  0  0  0  0  0
  -25.2552  -13.8167   20.5692 C   0  0  0  0  0  0
  -24.1817  -13.0425   20.9166 C   0  0  0  0  0  0
  -24.6396  -11.6902   20.8726 C   0  0  0  0  0  0
  -23.9065  -10.4286   21.0398 C   0  0  0  0  0  0
  -24.3615   -9.4205   21.9181 C   0  0  0  0  0  0
  -23.6291   -8.2241   22.0754 C   0  0  0  0  0  0
  -22.4273   -8.0278   21.3545 C   0  0  0  0  0  0
  -21.9906   -9.0250   20.4646 C   0  0  0  0  0  0
  -22.7236  -10.2128   20.3050 C   0  0  0  0  0  0
  -21.6852   -6.0733   22.5280 C   0  0  0  0  0  0
  -21.4013   -6.5637   23.8213 C   0  0  0  0  0  0
  -21.3660   -5.6791   24.9175 C   0  0  0  0  0  0
  -21.6045   -4.3053   24.7225 C   0  0  0  0  0  0
  -21.8819   -3.8144   23.4346 C   0  0  0  0  0  0
  -21.9192   -4.6961   22.3403 C   0  0  0  0  0  0
  -22.7841  -13.5220   21.1842 C   0  0  0  0  0  0
  -22.1662   -4.2147   21.0981 F   0  0  0  0  0  0
  -21.5630   -3.4537   25.7739 F   0  0  0  0  0  0
  -30.0151  -13.4189   20.4251 N   0  0  0  0  0  0
  -26.2995  -12.9359   20.3338 N   0  0  0  0  0  0
  -25.9330  -11.6508   20.5761 N   0  0  0  0  0  0
  -22.0489  -12.8217   22.0407 N   0  0  0  0  0  0
  -25.4214  -15.1896   20.4180 N   0  0  0  0  0  0
  -31.7915  -14.8056   20.1326 O   0  0  0  0  0  0
  -21.6637   -6.8876   21.4242 O   0  0  0  0  0  0
  -22.3520  -14.5528   20.6698 O   0  0  0  0  0  0
  -24.6266  -31.8601   23.2031 C   0  0  0  0  0  0
  -25.9113  -32.4780   23.8358 C   0  0  1  0  0  0
  -27.2236  -27.3176   20.1118 C   0  0  0  0  0  0
  -25.5926  -33.8581   24.2283 N   0  0  0  0  0  0
  -23.4199  -30.4850   21.5463 C   0  0  2  0  0  0
  -24.8656  -28.9422   20.1113 C   0  0  0  0  0  0
  -22.7476  -29.4628   22.4939 C   0  0  0  0  0  0
  -18.0286  -28.1384   22.8487 C   0  0  0  0  0  0
  -24.1489  -36.7296   23.2639 C   0  0  0  0  0  0
  -25.9621  -30.7907   21.3744 C   0  0  0  0  0  0
  -26.0362  -29.4188   20.7147 C   0  0  0  0  0  0
  -27.2183  -28.6189   20.7045 C   0  0  0  0  0  0
  -26.0260  -26.8968   19.4857 C   0  0  0  0  0  0
  -24.8626  -27.6866   19.4884 C   0  0  0  0  0  0
  -23.6342  -29.8222   20.1610 C   0  0  0  0  0  0
  -25.4113  -36.3085   24.0330 C   0  0  1  0  0  0
  -20.5886  -28.3689   23.1283 C   0  0  2  0  0  0
  -20.6775  -26.9414   22.5408 C   0  0  0  0  0  0
  -19.5750  -26.6385   21.5212 C   0  0  0  0  0  0
  -18.1931  -26.7926   22.1626 C   0  0  0  0  0  0
  -19.1538  -28.8853   23.2880 C   0  0  0  0  0  0
  -18.9460  -30.1455   23.8897 C   0  0  0  0  0  0
  -17.6461  -30.6587   24.0563 C   0  0  0  0  0  0
  -25.9051  -34.9454   23.5107 C   0  0  0  0  0  0
  -16.5352  -29.9086   23.6329 C   0  0  0  0  0  0
  -16.7273  -28.6503   23.0352 C   0  0  0  0  0  0
  -26.4494  -31.6587   25.0728 C   0  0  0  0  0  0
  -25.3727  -31.3725   26.1454 C   0  0  0  0  0  0
  -27.0334  -30.3010   24.6182 C   0  0  0  0  0  0
  -27.6054  -32.4320   25.7498 C   0  0  0  0  0  0
  -27.5580  -37.1804   24.8465 C   0  0  0  0  0  0
  -21.4189  -29.3045   22.3680 N   0  0  0  0  0  0
  -26.4293  -37.3779   23.9407 N   0  0  0  0  0  0
  -24.6885  -31.0614   22.0981 N   0  0  0  0  0  0
  -23.4201  -28.8163   23.3014 O   0  0  0  0  0  0
  -28.3403  -26.4633   20.1602 O   0  0  0  0  0  0
  -26.5620  -34.8919   22.4674 O   0  0  0  0  0  0
  -23.5429  -32.1399   23.7358 O   0  0  0  0  0  0
  -31.1180  -17.8849   20.6034 C   0  0  0  0  0  0
  -31.1123  -19.3107   20.5262 C   0  0  0  0  0  0
  -28.7106  -19.3389   20.5192 C   0  0  0  0  0  0
  -29.9083  -17.1463   20.6525 C   0  0  0  0  0  0
  -29.9190  -20.0843   20.4854 C   0  0  0  0  0  0
  -28.7114  -17.9126   20.6067 C   0  0  0  0  0  0
  -29.2528  -23.9564   20.3436 C   0  0  0  0  0  0
  -28.1015  -25.0048   20.0220 C   0  0  0  0  0  0
  -28.8904  -22.3990   20.2827 C   0  0  0  0  0  0
  -29.7931  -15.6941   20.7921 N   0  0  0  0  0  0
  -30.0305  -21.4919   20.4337 O   0  0  0  0  0  0
  -27.5271  -17.2553   20.6481 F   0  0  0  0  0  0
  -31.4812  -12.5238   19.1468 H   0  0  0  0  0  0
  -30.3783  -11.4007   19.8940 H   0  0  0  0  0  0
  -29.7724  -11.7555   17.4787 H   0  0  0  0  0  0
  -29.6485  -13.4764   17.7417 H   0  0  0  0  0  0
  -27.8691  -11.2920   18.8707 H   0  0  0  0  0  0
  -27.3755  -12.5722   17.7955 H   0  0  0  0  0  0
  -27.6666  -14.2522   19.5190 H   0  0  0  0  0  0
  -28.7131  -12.0565   21.3781 H   0  0  0  0  0  0
  -28.4480  -13.7124   21.8419 H   0  0  0  0  0  0
  -25.2760   -9.5683   22.4755 H   0  0  0  0  0  0
  -23.9999   -7.4633   22.7474 H   0  0  0  0  0  0
  -21.0836   -8.8767   19.8954 H   0  0  0  0  0  0
  -22.3693  -10.9665   19.6157 H   0  0  0  0  0  0
  -21.2003   -7.6146   23.9716 H   0  0  0  0  0  0
  -21.1485   -6.0521   25.9079 H   0  0  0  0  0  0
  -22.0598   -2.7606   23.2846 H   0  0  0  0  0  0
  -22.4103  -11.9877   22.4793 H   0  0  0  0  0  0
  -21.1112  -13.1253   22.2622 H   0  0  0  0  0  0
  -24.6550  -15.8367   20.5619 H   0  0  0  0  0  0
  -26.2902  -15.6637   20.1983 H   0  0  0  0  0  0
  -26.7180  -32.5450   23.1107 H   0  0  0  0  0  0
  -25.0065  -33.9725   25.0423 H   0  0  0  0  0  0
  -22.7139  -31.3059   21.4047 H   0  0  0  0  0  0
  -23.3749  -35.9632   23.3306 H   0  0  0  0  0  0
  -24.3580  -36.8912   22.2052 H   0  0  0  0  0  0
  -23.7246  -37.6502   23.6657 H   0  0  0  0  0  0
  -26.0942  -31.5552   20.6075 H   0  0  0  0  0  0
  -26.8423  -30.8379   22.0041 H   0  0  0  0  0  0
  -28.1158  -28.9808   21.1864 H   0  0  0  0  0  0
  -25.9527  -25.9397   18.9927 H   0  0  0  0  0  0
  -23.9657  -27.3159   19.0113 H   0  0  0  0  0  0
  -23.7534  -30.5997   19.4055 H   0  0  0  0  0  0
  -22.7537  -29.2525   19.8581 H   0  0  0  0  0  0
  -25.1293  -36.1940   25.0823 H   0  0  0  0  0  0
  -20.9979  -28.3261   24.1404 H   0  0  0  0  0  0
  -20.5679  -26.2299   23.3607 H   0  0  0  0  0  0
  -21.6643  -26.7445   22.1199 H   0  0  0  0  0  0
  -19.6913  -25.6296   21.1242 H   0  0  0  0  0  0
  -19.6686  -27.3195   20.6741 H   0  0  0  0  0  0
  -17.4200  -26.6671   21.4030 H   0  0  0  0  0  0
  -18.0335  -26.0069   22.9023 H   0  0  0  0  0  0
  -19.7937  -30.7270   24.2269 H   0  0  0  0  0  0
  -17.5016  -31.6267   24.5164 H   0  0  0  0  0  0
  -15.5352  -30.2988   23.7651 H   0  0  0  0  0  0
  -15.8672  -28.0822   22.7068 H   0  0  0  0  0  0
  -24.5898  -30.7080   25.7780 H   0  0  0  0  0  0
  -24.8923  -32.2892   26.4885 H   0  0  0  0  0  0
  -25.8050  -30.8895   27.0226 H   0  0  0  0  0  0
  -26.2907  -29.6762   24.1207 H   0  0  0  0  0  0
  -27.4029  -29.7264   25.4687 H   0  0  0  0  0  0
  -27.8779  -30.4291   23.9407 H   0  0  0  0  0  0
  -27.2666  -33.3618   26.2077 H   0  0  0  0  0  0
  -28.3864  -32.6881   25.0327 H   0  0  0  0  0  0
  -28.0722  -31.8443   26.5414 H   0  0  0  0  0  0
  -28.2599  -38.0100   24.7509 H   0  0  0  0  0  0
  -28.1073  -36.2631   24.6294 H   0  0  0  0  0  0
  -27.2298  -37.1456   25.8868 H   0  0  0  0  0  0
  -20.9367  -29.8773   21.6895 H   0  0  0  0  0  0
  -26.0176  -38.2855   24.1401 H   0  0  0  0  0  0
  -32.0671  -17.3700   20.6429 H   0  0  0  0  0  0
  -32.0626  -19.8258   20.5039 H   0  0  0  0  0  0
  -27.7601  -19.8494   20.4918 H   0  0  0  0  0  0
  -29.6470  -24.1729   21.3364 H   0  0  0  0  0  0
  -30.0761  -24.1424   19.6539 H   0  0  0  0  0  0
  -27.2506  -24.7435   20.6531 H   0  0  0  0  0  0
  -27.7948  -24.8125   18.9934 H   0  0  0  0  0  0
  -28.4094  -22.1808   19.3285 H   0  0  0  0  0  0
  -28.1566  -22.1770   21.0583 H   0  0  0  0  0  0
  -28.8555  -15.3945   21.0126 H   0  0  0  0  0  0
  1 25  1  0  0  0
  1 30  2  0  0  0
  1 80  1  0  0  0
  2  3  1  0  0  0
  2 25  1  0  0  0
  2 83  1  0  0  0
  2 84  1  0  0  0
  3  4  1  0  0  0
  3 85  1  0  0  0
  3 86  1  0  0  0
  4  5  1  0  0  0
  4 87  1  0  0  0
  4 88  1  0  0  0
  5  6  1  0  0  0
  5 26  1  0  0  0
  5 89  1  0  0  0
  6 25  1  0  0  0
  6 90  1  0  0  0
  6 91  1  0  0  0
  7  8  2  0  0  0
  7 26  1  0  0  0
  7 29  1  0  0  0
  8  9  1  0  0  0
  8 22  1  0  0  0
  9 10  1  0  0  0
  9 27  2  0  0  0
 10 11  2  0  0  0
 10 15  1  0  0  0
 11 12  1  0  0  0
 11 92  1  0  0  0
 12 13  2  0  0  0
 12 93  1  0  0  0
 13 14  1  0  0  0
 13 31  1  0  0  0
 14 15  2  0  0  0
 14 94  1  0  0  0
 15 95  1  0  0  0
 16 17  2  0  0  0
 16 21  1  0  0  0
 16 31  1  0  0  0
 17 18  1  0  0  0
 17 96  1  0  0  0
 18 19  2  0  0  0
 18 97  1  0  0  0
 19 20  1  0  0  0
 19 24  1  0  0  0
 20 21  2  0  0  0
 20 98  1  0  0  0
 21 23  1  0  0  0
 22 28  1  0  0  0
 22 32  2  0  0  0
 26 27  1  0  0  0
 28 99  1  0  0  0
 28100  1  0  0  0
 29101  1  0  0  0
 29102  1  0  0  0
 33 34  1  0  0  0
 33 66  1  0  0  0
 33 70  2  0  0  0
 34 36  1  0  0  0
 34 59  1  0  0  0
 34103  1  0  0  0
 35 44  2  0  0  0
 35 45  1  0  0  0
 35 68  1  0  0  0
 36 56  1  0  0  0
 36104  1  0  0  0
 37 39  1  0  0  0
 37 47  1  0  0  0
 37 66  1  0  0  0
 37105  1  0  0  0
 38 43  2  0  0  0
 38 46  1  0  0  0
 38 47  1  0  0  0
 39 64  1  0  0  0
 39 67  2  0  0  0
 40 52  1  0  0  0
 40 53  2  0  0  0
 40 58  1  0  0  0
 41106  1  0  0  0
 41107  1  0  0  0
 41108  1  0  0  0
 41 48  1  0  0  0
 42 43  1  0  0  0
 42 66  1  0  0  0
 42109  1  0  0  0
 42110  1  0  0  0
 43 44  1  0  0  0
 44111  1  0  0  0
 45 46  2  0  0  0
 45112  1  0  0  0
 46113  1  0  0  0
 47114  1  0  0  0
 47115  1  0  0  0
 48 56  1  0  0  0
 48 65  1  0  0  0
 48116  1  0  0  0
 49 50  1  0  0  0
 49 53  1  0  0  0
 49 64  1  0  0  0
 49117  1  0  0  0
 50 51  1  0  0  0
 50118  1  0  0  0
 50119  1  0  0  0
 51 52  1  0  0  0
 51120  1  0  0  0
 51121  1  0  0  0
 52122  1  0  0  0
 52123  1  0  0  0
 53 54  1  0  0  0
 54 55  2  0  0  0
 54124  1  0  0  0
 55 57  1  0  0  0
 55125  1  0  0  0
 56 69  2  0  0  0
 57 58  2  0  0  0
 57126  1  0  0  0
 58127  1  0  0  0
 59 60  1  0  0  0
 59 61  1  0  0  0
 59 62  1  0  0  0
 60128  1  0  0  0
 60129  1  0  0  0
 60130  1  0  0  0
 61131  1  0  0  0
 61132  1  0  0  0
 61133  1  0  0  0
 62134  1  0  0  0
 62135  1  0  0  0
 62136  1  0  0  0
 63 65  1  0  0  0
 63137  1  0  0  0
 63138  1  0  0  0
 63139  1  0  0  0
 64140  1  0  0  0
 65141  1  0  0  0
 68 78  1  0  0  0
 71 72  2  0  0  0
 71 74  1  0  0  0
 71142  1  0  0  0
 72 75  1  0  0  0
 72143  1  0  0  0
 73 75  2  0  0  0
 73 76  1  0  0  0
 73144  1  0  0  0
 74 76  2  0  0  0
 74 80  1  0  0  0
 75 81  1  0  0  0
 76 82  1  0  0  0
 77 78  1  0  0  0
 77 79  1  0  0  0
 77145  1  0  0  0
 77146  1  0  0  0
 78147  1  0  0  0
 78148  1  0  0  0
 79 81  1  0  0  0
 79149  1  0  0  0
 79150  1  0  0  0
 80151  1  0  0  0
M  ISO  4   1 100  68 101  78 101  80 100
M  END
> <chiral flag>
0

> <version>
0

> <s_m_source_file>
/data/baiqing/PycharmProjects/Reinvent-master-3.2/result/LINK_invent/BTK/process_docking_weight1_custom_sum_contain_oxygen_bond_distance_aromatic_linkinvent_7_9_3/rearranged_h_0004.sdf

> <i_m_source_file_index>
67

> <r_mmod_Potential_Energy-OPLS-2005>
8.48562717437744

> <r_mmod_Stretch_Energy-OPLS-2005>
78.0414810180664

> <r_mmod_Bend_Energy-OPLS-2005>
145.352081298828

> <r_mmod_Torsional_Energy-OPLS-2005>
209.226409912109

> <r_mmod_Improper_Torsional_Energy-OPLS-2005>
4.5839262008667

> <r_mmod_Van_der_Waal_Energy-OPLS-2005>
144.377670288086

> <r_mmod_Electrostatic_Energy-OPLS-2005>
-422.268218994141

> <r_mmod_Solvation_Energy-OPLS-2005>
-201.274765014648

> <b_mmod_Minimization_Converged-OPLS-2005>
0

> <r_mmod_RMS_Derivative-OPLS-2005>
0.238112762570381

$$$$
67
                    3D
 Structure written by MMmdl.
193200  0  0  1  0            999 V2000
  -30.7231  -14.4079   20.6124 C   0  0  0  0  0  0
  -30.4210  -12.2852   19.4127 C   0  0  0  0  0  0
  -29.4904  -12.5118   18.2037 C   0  0  0  0  0  0
  -28.0129  -12.3726   18.6172 C   0  0  0  0  0  0
  -27.6669  -13.1987   19.8855 C   0  0  2  0  0  0
  -28.7046  -12.9460   21.0041 C   0  0  0  0  0  0
  -25.2609  -13.8151   20.5676 C   0  0  0  0  0  0
  -24.1837  -13.0435   20.9163 C   0  0  0  0  0  0
  -24.6374  -11.6901   20.8734 C   0  0  0  0  0  0
  -23.9042  -10.4290   21.0413 C   0  0  0  0  0  0
  -24.3600   -9.4211   21.9187 C   0  0  0  0  0  0
  -23.6281   -8.2241   22.0752 C   0  0  0  0  0  0
  -22.4269   -8.0278   21.3538 C   0  0  0  0  0  0
  -21.9893   -9.0253   20.4642 C   0  0  0  0  0  0
  -22.7216  -10.2134   20.3056 C   0  0  0  0  0  0
  -21.6856   -6.0725   22.5273 C   0  0  0  0  0  0
  -21.4012   -6.5636   23.8209 C   0  0  0  0  0  0
  -21.3658   -5.6794   24.9169 C   0  0  0  0  0  0
  -21.6054   -4.3053   24.7224 C   0  0  0  0  0  0
  -21.8818   -3.8140   23.4350 C   0  0  0  0  0  0
  -21.9194   -4.6957   22.3402 C   0  0  0  0  0  0
  -22.7870  -13.5257   21.1840 C   0  0  0  0  0  0
  -22.1663   -4.2141   21.0981 F   0  0  0  0  0  0
  -21.5633   -3.4538   25.7739 F   0  0  0  0  0  0
  -30.0457  -13.2408   20.4650 N   0  0  0  0  0  0
  -26.3037  -12.9299   20.3395 N   0  0  0  0  0  0
  -25.9304  -11.6465   20.5773 N   0  0  0  0  0  0
  -22.0504  -12.8241   22.0396 N   0  0  0  0  0  0
  -25.4351  -15.1857   20.4098 N   0  0  0  0  0  0
  -31.7968  -14.6429   20.0511 O   0  0  0  0  0  0
  -21.6639   -6.8869   21.4235 O   0  0  0  0  0  0
  -22.3571  -14.5568   20.6708 O   0  0  0  0  0  0
  -24.6064  -31.8699   23.2111 C   0  0  0  0  0  0
  -25.8955  -32.4852   23.8404 C   0  0  1  0  0  0
  -27.2647  -27.4793   20.1139 C   0  0  0  0  0  0
  -25.5825  -33.8646   24.2334 N   0  0  0  0  0  0
  -23.3925  -30.4902   21.5486 C   0  0  2  0  0  0
  -24.8473  -28.9581   20.1182 C   0  0  0  0  0  0
  -22.7369  -29.4630   22.4988 C   0  0  0  0  0  0
  -18.0270  -28.1369   22.8496 C   0  0  0  0  0  0
  -24.1474  -36.7327   23.2646 C   0  0  0  0  0  0
  -25.9091  -30.8573   21.3491 C   0  0  0  0  0  0
  -25.9962  -29.4869   20.7180 C   0  0  0  0  0  0
  -27.2001  -28.7551   20.7260 C   0  0  0  0  0  0
  -26.0982  -26.9640   19.5097 C   0  0  0  0  0  0
  -24.8893  -27.6899   19.5138 C   0  0  0  0  0  0
  -23.6025  -29.8150   20.1639 C   0  0  0  0  0  0
  -25.4087  -36.3126   24.0356 C   0  0  1  0  0  0
  -20.5848  -28.3618   23.1343 C   0  0  2  0  0  0
  -20.6743  -26.9362   22.5425 C   0  0  0  0  0  0
  -19.5730  -26.6377   21.5215 C   0  0  0  0  0  0
  -18.1907  -26.7914   22.1628 C   0  0  0  0  0  0
  -19.1522  -28.8816   23.2913 C   0  0  0  0  0  0
  -18.9452  -30.1427   23.8909 C   0  0  0  0  0  0
  -17.6461  -30.6582   24.0569 C   0  0  0  0  0  0
  -25.9009  -34.9498   23.5157 C   0  0  0  0  0  0
  -16.5352  -29.9085   23.6324 C   0  0  0  0  0  0
  -16.7262  -28.6501   23.0343 C   0  0  0  0  0  0
  -26.4435  -31.6616   25.0703 C   0  0  0  0  0  0
  -25.3747  -31.3687   26.1484 C   0  0  0  0  0  0
  -27.0257  -30.3098   24.5958 C   0  0  0  0  0  0
  -27.6018  -32.4325   25.7453 C   0  0  0  0  0  0
  -27.5570  -37.1800   24.8476 C   0  0  0  0  0  0
  -21.4104  -29.2998   22.3746 N   0  0  0  0  0  0
  -26.4277  -37.3814   23.9427 N   0  0  0  0  0  0
  -24.6545  -31.0840   22.0983 N   0  0  0  0  0  0
  -23.4171  -28.8209   23.3032 O   0  0  0  0  0  0
  -28.3986  -26.6961   20.0268 O   0  0  0  0  0  0
  -26.5594  -34.8947   22.4731 O   0  0  0  0  0  0
  -23.5273  -32.1409   23.7547 O   0  0  0  0  0  0
  -34.3366  -21.1104   26.2876 C   0  0  0  0  0  0
  -29.6527  -26.0868   22.0176 C   0  0  0  0  0  0
  -33.2869  -18.9559   26.5859 C   0  0  0  0  0  0
  -36.1381  -24.2783   25.5452 C   0  0  0  0  0  0
  -34.3953  -22.6307   26.1096 C   0  0  0  0  0  0
  -29.5688  -27.0023   20.7901 C   0  0  0  0  0  0
  -33.2537  -19.2360   21.9552 C   0  0  0  0  0  0
  -34.0196  -20.2787   21.1077 C   0  0  0  0  0  0
  -32.0283  -18.6478   21.2374 C   0  0  0  0  0  0
  -34.1225  -21.6719   21.7494 C   0  0  0  0  0  0
  -30.1757  -21.7747   24.1227 C   0  0  0  0  0  0
  -31.5317  -17.3371   21.8660 C   0  0  0  0  0  0
  -29.7887  -22.9054   23.1316 C   0  0  0  0  0  0
  -31.5258  -21.9081   24.8621 C   0  0  0  0  0  0
  -34.9884  -21.6976   23.0218 C   0  0  0  0  0  0
  -30.7912  -24.0669   22.9542 C   0  0  0  0  0  0
  -30.2962  -16.7931   21.1230 C   0  0  0  0  0  0
  -31.7935  -20.7430   25.8430 C   0  0  0  0  0  0
  -34.9954  -23.0721   23.7288 C   0  0  0  0  0  0
  -30.3972  -24.9814   21.8860 N   0  0  0  0  0  0
  -30.0790  -15.3583   21.3043 N   0  0  0  0  0  0
  -33.1895  -20.3753   26.2027 N   0  0  0  0  0  0
  -35.4611  -23.0215   25.1445 N   0  3  1  0  0  0
  -35.4246  -20.5713   26.5173 O   0  0  0  0  0  0
  -29.0771  -26.3847   23.0668 O   0  0  0  0  0  0
  -31.4650  -12.3825   19.1105 H   0  0  0  0  0  0
  -30.3185  -11.2672   19.7890 H   0  0  0  0  0  0
  -29.7265  -11.8018   17.4108 H   0  0  0  0  0  0
  -29.6606  -13.5046   17.7848 H   0  0  0  0  0  0
  -27.8205  -11.3149   18.8020 H   0  0  0  0  0  0
  -27.3619  -12.6597   17.7910 H   0  0  0  0  0  0
  -27.7251  -14.2510   19.6096 H   0  0  0  0  0  0
  -28.6675  -11.9013   21.3189 H   0  0  0  0  0  0
  -28.4627  -13.5239   21.8969 H   0  0  0  0  0  0
  -25.2746   -9.5704   22.4752 H   0  0  0  0  0  0
  -24.0005   -7.4639   22.7468 H   0  0  0  0  0  0
  -21.0826   -8.8773   19.8940 H   0  0  0  0  0  0
  -22.3681  -10.9676   19.6166 H   0  0  0  0  0  0
  -21.2001   -7.6144   23.9709 H   0  0  0  0  0  0
  -21.1484   -6.0521   25.9075 H   0  0  0  0  0  0
  -22.0597   -2.7602   23.2853 H   0  0  0  0  0  0
  -22.4118  -11.9901   22.4774 H   0  0  0  0  0  0
  -21.1121  -13.1265   22.2597 H   0  0  0  0  0  0
  -24.6728  -15.8462   20.5169 H   0  0  0  0  0  0
  -26.2975  -15.6201   20.1048 H   0  0  0  0  0  0
  -26.7018  -32.5629   23.1169 H   0  0  0  0  0  0
  -24.9946  -33.9824   25.0455 H   0  0  0  0  0  0
  -22.6764  -31.3013   21.4073 H   0  0  0  0  0  0
  -23.3748  -35.9657   23.3344 H   0  0  0  0  0  0
  -24.3567  -36.8912   22.2055 H   0  0  0  0  0  0
  -23.7226  -37.6542   23.6644 H   0  0  0  0  0  0
  -25.9868  -31.6112   20.5643 H   0  0  0  0  0  0
  -26.8066  -30.9423   21.9456 H   0  0  0  0  0  0
  -28.0534  -29.2108   21.2006 H   0  0  0  0  0  0
  -26.1293  -25.9950   19.0341 H   0  0  0  0  0  0
  -24.0061  -27.2693   19.0499 H   0  0  0  0  0  0
  -23.6972  -30.5837   19.3962 H   0  0  0  0  0  0
  -22.7321  -29.2249   19.8741 H   0  0  0  0  0  0
  -25.1261  -36.1986   25.0855 H   0  0  0  0  0  0
  -20.9957  -28.3163   24.1454 H   0  0  0  0  0  0
  -20.5619  -26.2219   23.3595 H   0  0  0  0  0  0
  -21.6614  -26.7396   22.1233 H   0  0  0  0  0  0
  -19.6888  -25.6294   21.1208 H   0  0  0  0  0  0
  -19.6673  -27.3219   20.6768 H   0  0  0  0  0  0
  -17.4176  -26.6683   21.4030 H   0  0  0  0  0  0
  -18.0294  -26.0047   22.9011 H   0  0  0  0  0  0
  -19.7939  -30.7243   24.2257 H   0  0  0  0  0  0
  -17.5036  -31.6260   24.5178 H   0  0  0  0  0  0
  -15.5358  -30.3014   23.7633 H   0  0  0  0  0  0
  -15.8657  -28.0851   22.7026 H   0  0  0  0  0  0
  -24.5906  -30.7031   25.7850 H   0  0  0  0  0  0
  -24.8952  -32.2848   26.4965 H   0  0  0  0  0  0
  -25.8147  -30.8864   27.0220 H   0  0  0  0  0  0
  -26.2754  -29.6839   24.1107 H   0  0  0  0  0  0
  -27.4237  -29.7311   25.4300 H   0  0  0  0  0  0
  -27.8483  -30.4507   23.8940 H   0  0  0  0  0  0
  -27.2613  -33.3606   26.2053 H   0  0  0  0  0  0
  -28.3800  -32.6902   25.0258 H   0  0  0  0  0  0
  -28.0710  -31.8440   26.5345 H   0  0  0  0  0  0
  -28.2599  -38.0077   24.7510 H   0  0  0  0  0  0
  -28.1041  -36.2615   24.6310 H   0  0  0  0  0  0
  -27.2299  -37.1476   25.8880 H   0  0  0  0  0  0
  -20.9224  -29.8748   21.7020 H   0  0  0  0  0  0
  -26.0187  -38.2903   24.1437 H   0  0  0  0  0  0
  -33.8522  -18.8266   27.5113 H   0  0  0  0  0  0
  -33.7908  -18.3875   25.8037 H   0  0  0  0  0  0
  -32.3181  -18.4860   26.7595 H   0  0  0  0  0  0
  -36.5557  -24.2015   26.5489 H   0  0  0  0  0  0
  -35.4461  -25.1200   25.5251 H   0  0  0  0  0  0
  -36.9674  -24.5059   24.8743 H   0  0  0  0  0  0
  -34.6655  -22.9974   27.0996 H   0  0  0  0  0  0
  -33.4627  -23.1296   25.8958 H   0  0  0  0  0  0
  -30.4293  -26.8177   20.1486 H   0  0  0  0  0  0
  -29.6872  -28.0368   21.0988 H   0  0  0  0  0  0
  -32.9350  -19.6477   22.9120 H   0  0  0  0  0  0
  -33.9448  -18.4313   22.2079 H   0  0  0  0  0  0
  -33.5444  -20.3886   20.1313 H   0  0  0  0  0  0
  -35.0217  -19.9022   20.8922 H   0  0  0  0  0  0
  -32.2813  -18.4476   20.1946 H   0  0  0  0  0  0
  -31.2234  -19.3854   21.2218 H   0  0  0  0  0  0
  -34.5332  -22.3716   21.0190 H   0  0  0  0  0  0
  -33.1143  -22.0234   21.9637 H   0  0  0  0  0  0
  -29.3751  -21.6690   24.8569 H   0  0  0  0  0  0
  -30.1799  -20.8337   23.5693 H   0  0  0  0  0  0
  -31.2923  -17.4916   22.9206 H   0  0  0  0  0  0
  -32.3433  -16.6093   21.8360 H   0  0  0  0  0  0
  -28.8287  -23.3219   23.4440 H   0  0  0  0  0  0
  -29.5980  -22.4519   22.1558 H   0  0  0  0  0  0
  -31.4891  -22.8450   25.4143 H   0  0  0  0  0  0
  -32.3247  -21.9604   24.1280 H   0  0  0  0  0  0
  -36.0153  -21.4181   22.7720 H   0  0  0  0  0  0
  -34.6279  -20.9178   23.6849 H   0  0  0  0  0  0
  -31.7678  -23.6799   22.6789 H   0  0  0  0  0  0
  -30.9283  -24.6150   23.8859 H   0  0  0  0  0  0
  -30.3789  -16.9922   20.0534 H   0  0  0  0  0  0
  -29.4028  -17.3272   21.4482 H   0  0  0  0  0  0
  -31.3501  -19.8660   25.3688 H   0  0  0  0  0  0
  -31.2263  -20.8974   26.7629 H   0  0  0  0  0  0
  -34.0133  -23.5443   23.6920 H   0  0  0  0  0  0
  -35.6510  -23.7254   23.1510 H   0  0  0  0  0  0
  -30.7987  -24.8138   20.9711 H   0  0  0  0  0  0
  -29.2269  -15.0804   21.7682 H   0  0  0  0  0  0
  -36.1646  -22.3002   25.2144 H   0  0  0  0  0  0
  1 25  1  0  0  0
  1 30  2  0  0  0
  1 91  1  0  0  0
  2  3  1  0  0  0
  2 25  1  0  0  0
  2 96  1  0  0  0
  2 97  1  0  0  0
  3  4  1  0  0  0
  3 98  1  0  0  0
  3 99  1  0  0  0
  4  5  1  0  0  0
  4100  1  0  0  0
  4101  1  0  0  0
  5  6  1  0  0  0
  5 26  1  0  0  0
  5102  1  0  0  0
  6 25  1  0  0  0
  6103  1  0  0  0
  6104  1  0  0  0
  7  8  2  0  0  0
  7 26  1  0  0  0
  7 29  1  0  0  0
  8  9  1  0  0  0
  8 22  1  0  0  0
  9 10  1  0  0  0
  9 27  2  0  0  0
 10 11  2  0  0  0
 10 15  1  0  0  0
 11 12  1  0  0  0
 11105  1  0  0  0
 12 13  2  0  0  0
 12106  1  0  0  0
 13 14  1  0  0  0
 13 31  1  0  0  0
 14 15  2  0  0  0
 14107  1  0  0  0
 15108  1  0  0  0
 16 17  2  0  0  0
 16 21  1  0  0  0
 16 31  1  0  0  0
 17 18  1  0  0  0
 17109  1  0  0  0
 18 19  2  0  0  0
 18110  1  0  0  0
 19 20  1  0  0  0
 19 24  1  0  0  0
 20 21  2  0  0  0
 20111  1  0  0  0
 21 23  1  0  0  0
 22 28  1  0  0  0
 22 32  2  0  0  0
 26 27  1  0  0  0
 28112  1  0  0  0
 28113  1  0  0  0
 29114  1  0  0  0
 29115  1  0  0  0
 33 34  1  0  0  0
 33 66  1  0  0  0
 33 70  2  0  0  0
 34 36  1  0  0  0
 34 59  1  0  0  0
 34116  1  0  0  0
 35 44  2  0  0  0
 35 45  1  0  0  0
 35 68  1  0  0  0
 36 56  1  0  0  0
 36117  1  0  0  0
 37 39  1  0  0  0
 37 47  1  0  0  0
 37 66  1  0  0  0
 37118  1  0  0  0
 38 43  2  0  0  0
 38 46  1  0  0  0
 38 47  1  0  0  0
 39 64  1  0  0  0
 39 67  2  0  0  0
 40 52  1  0  0  0
 40 53  2  0  0  0
 40 58  1  0  0  0
 41119  1  0  0  0
 41120  1  0  0  0
 41121  1  0  0  0
 41 48  1  0  0  0
 42 43  1  0  0  0
 42 66  1  0  0  0
 42122  1  0  0  0
 42123  1  0  0  0
 43 44  1  0  0  0
 44124  1  0  0  0
 45 46  2  0  0  0
 45125  1  0  0  0
 46126  1  0  0  0
 47127  1  0  0  0
 47128  1  0  0  0
 48 56  1  0  0  0
 48 65  1  0  0  0
 48129  1  0  0  0
 49 50  1  0  0  0
 49 53  1  0  0  0
 49 64  1  0  0  0
 49130  1  0  0  0
 50 51  1  0  0  0
 50131  1  0  0  0
 50132  1  0  0  0
 51 52  1  0  0  0
 51133  1  0  0  0
 51134  1  0  0  0
 52135  1  0  0  0
 52136  1  0  0  0
 53 54  1  0  0  0
 54 55  2  0  0  0
 54137  1  0  0  0
 55 57  1  0  0  0
 55138  1  0  0  0
 56 69  2  0  0  0
 57 58  2  0  0  0
 57139  1  0  0  0
 58140  1  0  0  0
 59 60  1  0  0  0
 59 61  1  0  0  0
 59 62  1  0  0  0
 60141  1  0  0  0
 60142  1  0  0  0
 60143  1  0  0  0
 61144  1  0  0  0
 61145  1  0  0  0
 61146  1  0  0  0
 62147  1  0  0  0
 62148  1  0  0  0
 62149  1  0  0  0
 63 65  1  0  0  0
 63150  1  0  0  0
 63151  1  0  0  0
 63152  1  0  0  0
 64153  1  0  0  0
 65154  1  0  0  0
 68 76  1  0  0  0
 71 75  1  0  0  0
 71 92  1  0  0  0
 71 94  2  0  0  0
 72 76  1  0  0  0
 72 90  1  0  0  0
 72 95  2  0  0  0
 73 92  1  0  0  0
 73155  1  0  0  0
 73156  1  0  0  0
 73157  1  0  0  0
 74158  1  0  0  0
 74159  1  0  0  0
 74160  1  0  0  0
 74 93  1  0  0  0
 75 93  1  0  0  0
 75161  1  0  0  0
 75162  1  0  0  0
 76163  1  0  0  0
 76164  1  0  0  0
 77 78  1  0  0  0
 77 79  1  0  0  0
 77165  1  0  0  0
 77166  1  0  0  0
 78 80  1  0  0  0
 78167  1  0  0  0
 78168  1  0  0  0
 79 82  1  0  0  0
 79169  1  0  0  0
 79170  1  0  0  0
 80 85  1  0  0  0
 80171  1  0  0  0
 80172  1  0  0  0
 81 83  1  0  0  0
 81 84  1  0  0  0
 81173  1  0  0  0
 81174  1  0  0  0
 82 87  1  0  0  0
 82175  1  0  0  0
 82176  1  0  0  0
 83 86  1  0  0  0
 83177  1  0  0  0
 83178  1  0  0  0
 84 88  1  0  0  0
 84179  1  0  0  0
 84180  1  0  0  0
 85 89  1  0  0  0
 85181  1  0  0  0
 85182  1  0  0  0
 86 90  1  0  0  0
 86183  1  0  0  0
 86184  1  0  0  0
 87 91  1  0  0  0
 87185  1  0  0  0
 87186  1  0  0  0
 88 92  1  0  0  0
 88187  1  0  0  0
 88188  1  0  0  0
 89 93  1  0  0  0
 89189  1  0  0  0
 89190  1  0  0  0
 90191  1  0  0  0
 91192  1  0  0  0
 93193  1  0  0  0
M  CHG  1  93   1
M  ISO  4   1 100  68 101  76 101  91 100
M  END
> <chiral flag>
0

> <version>
0

> <s_m_source_file>
/data/baiqing/PycharmProjects/Reinvent-master-3.2/result/LINK_invent/BTK/process_docking_weight1_custom_sum_contain_oxygen_bond_distance_aromatic_linkinvent_7_9_3/rearranged_h_0004.sdf

> <i_m_source_file_index>
68

> <r_mmod_Potential_Energy-OPLS-2005>
-234.511505126953

> <r_mmod_Stretch_Energy-OPLS-2005>
39.7812957763672

> <r_mmod_Bend_Energy-OPLS-2005>
149.21696472168

> <r_mmod_Torsional_Energy-OPLS-2005>
260.961700439453

> <r_mmod_Improper_Torsional_Energy-OPLS-2005>
4.107008934021

> <r_mmod_Van_der_Waal_Energy-OPLS-2005>
146.31867980957

> <r_mmod_Electrostatic_Energy-OPLS-2005>
-345.533966064453

> <r_mmod_Solvation_Energy-OPLS-2005>
-495.666778564453

> <b_mmod_Minimization_Converged-OPLS-2005>
0

> <r_mmod_RMS_Derivative-OPLS-2005>
3.49109935760498

$$$$
68
                    3D
 Structure written by MMmdl.
144152  0  0  1  0            999 V2000
  -30.2491  -15.7690   20.3185 C   0  0  0  0  0  0
  -30.4165  -13.1824   19.5389 C   0  0  0  0  0  0
  -29.5561  -12.6883   18.3366 C   0  0  0  0  0  0
  -28.1400  -12.3025   18.7870 C   0  0  0  0  0  0
  -27.5914  -13.3204   19.8100 C   0  0  2  0  0  0
  -28.5996  -13.7101   20.9197 C   0  0  0  0  0  0
  -25.2302  -13.8299   20.5812 C   0  0  0  0  0  0
  -24.1705  -13.0432   20.9298 C   0  0  0  0  0  0
  -24.6425  -11.6949   20.8764 C   0  0  0  0  0  0
  -23.9129  -10.4292   21.0393 C   0  0  0  0  0  0
  -24.3660   -9.4205   21.9178 C   0  0  0  0  0  0
  -23.6316   -8.2248   22.0754 C   0  0  0  0  0  0
  -22.4296   -8.0290   21.3545 C   0  0  0  0  0  0
  -21.9945   -9.0266   20.4644 C   0  0  0  0  0  0
  -22.7293  -10.2135   20.3047 C   0  0  0  0  0  0
  -21.6860   -6.0742   22.5279 C   0  0  0  0  0  0
  -21.4020   -6.5644   23.8213 C   0  0  0  0  0  0
  -21.3660   -5.6795   24.9174 C   0  0  0  0  0  0
  -21.6043   -4.3057   24.7223 C   0  0  0  0  0  0
  -21.8818   -3.8151   23.4344 C   0  0  0  0  0  0
  -21.9195   -4.6969   22.3401 C   0  0  0  0  0  0
  -22.7713  -13.5153   21.1928 C   0  0  0  0  0  0
  -22.1662   -4.2154   21.0979 F   0  0  0  0  0  0
  -21.5627   -3.4540   25.7735 F   0  0  0  0  0  0
  -29.7500  -14.3765   20.2532 N   0  0  0  0  0  0
  -26.2766  -12.9654   20.3247 N   0  0  0  0  0  0
  -25.9376  -11.6711   20.5692 N   0  0  0  0  0  0
  -22.0381  -12.8128   22.0480 N   0  0  0  0  0  0
  -25.3868  -15.2043   20.4253 N   0  0  0  0  0  0
  -31.4896  -15.6885   20.1870 O   0  0  0  0  0  0
  -21.6650   -6.8891   21.4243 O   0  0  0  0  0  0
  -22.3385  -14.5450   20.6762 O   0  0  0  0  0  0
  -24.6936  -31.7881   23.1428 C   0  0  0  0  0  0
  -25.9467  -32.4408   23.8014 C   0  0  1  0  0  0
  -27.2314  -26.6000   20.2259 C   0  0  0  0  0  0
  -25.6003  -33.8239   24.1889 N   0  0  0  0  0  0
  -23.5248  -30.3852   21.4992 C   0  0  2  0  0  0
  -24.9837  -28.7043   20.1217 C   0  0  0  0  0  0
  -22.7812  -29.4252   22.4682 C   0  0  0  0  0  0
  -18.0345  -28.1427   22.8448 C   0  0  0  0  0  0
  -24.1496  -36.7128   23.2656 C   0  0  0  0  0  0
  -26.1099  -30.4873   21.4229 C   0  0  0  0  0  0
  -26.1749  -29.0406   20.7752 C   0  0  0  0  0  0
  -27.2793  -28.0201   20.7903 C   0  0  0  0  0  0
  -26.0052  -26.4991   19.5134 C   0  0  0  0  0  0
  -24.9440  -27.4606   19.4663 C   0  0  0  0  0  0
  -23.7849  -29.6724   20.1393 C   0  0  0  0  0  0
  -25.4150  -36.2860   24.0273 C   0  0  1  0  0  0
  -20.5986  -28.3792   23.1121 C   0  0  2  0  0  0
  -20.6806  -26.9441   22.5405 C   0  0  0  0  0  0
  -19.5784  -26.6367   21.5217 C   0  0  0  0  0  0
  -18.1967  -26.7952   22.1618 C   0  0  0  0  0  0
  -19.1614  -28.8936   23.2762 C   0  0  0  0  0  0
  -18.9518  -30.1517   23.8813 C   0  0  0  0  0  0
  -17.6507  -30.6607   24.0547 C   0  0  0  0  0  0
  -25.9137  -34.9253   23.4926 C   0  0  0  0  0  0
  -16.5395  -29.9086   23.6353 C   0  0  0  0  0  0
  -16.7324  -28.6509   23.0369 C   0  0  0  0  0  0
  -26.4611  -31.6488   25.0681 C   0  0  0  0  0  0
  -25.3648  -31.3836   26.1276 C   0  0  0  0  0  0
  -27.0562  -30.2813   24.6660 C   0  0  0  0  0  0
  -27.6036  -32.4377   25.7508 C   0  0  0  0  0  0
  -27.5560  -37.1721   24.8466 C   0  0  0  0  0  0
  -21.4449  -29.3019   22.3429 N   0  0  0  0  0  0
  -26.4267  -37.3633   23.9406 N   0  0  0  0  0  0
  -24.8007  -30.9224   22.0738 N   0  0  0  0  0  0
  -23.4206  -28.7870   23.3076 O   0  0  0  0  0  0
  -28.1813  -25.3340   20.2925 O   0  0  0  0  0  0
  -26.5793  -34.8851   22.4554 O   0  0  0  0  0  0
  -23.5932  -32.1003   23.6316 O   0  0  0  0  0  0
  -31.2233  -20.8510   20.4443 C   0  0  0  0  0  0
  -30.3278  -21.9742   20.3863 C   0  0  0  0  0  0
  -30.8973  -19.4510   20.4170 C   0  0  0  0  0  0
  -28.6498  -20.2656   20.2683 C   0  0  0  0  0  0
  -28.9175  -21.8849   20.2883 C   0  0  0  0  0  0
  -29.5860  -18.9200   20.3295 C   0  0  0  0  0  0
  -27.9553  -23.5403   20.1946 C   0  0  0  0  0  0
  -29.4678  -17.1584   20.3338 N   0  0  0  0  0  0
  -31.3972  -13.4683   19.1574 H   0  0  0  0  0  0
  -30.6150  -12.3654   20.2348 H   0  0  0  0  0  0
  -30.0382  -11.8449   17.8404 H   0  0  0  0  0  0
  -29.4933  -13.4857   17.5947 H   0  0  0  0  0  0
  -28.1920  -11.3161   19.2495 H   0  0  0  0  0  0
  -27.4721  -12.2092   17.9298 H   0  0  0  0  0  0
  -27.4353  -14.2232   19.2177 H   0  0  0  0  0  0
  -28.8922  -12.8505   21.5245 H   0  0  0  0  0  0
  -28.1402  -14.4228   21.6061 H   0  0  0  0  0  0
  -25.2799   -9.5677   22.4764 H   0  0  0  0  0  0
  -24.0015   -7.4641   22.7480 H   0  0  0  0  0  0
  -21.0874   -8.8796   19.8951 H   0  0  0  0  0  0
  -22.3752  -10.9677   19.6160 H   0  0  0  0  0  0
  -21.2015   -7.6152   23.9718 H   0  0  0  0  0  0
  -21.1481   -6.0525   25.9077 H   0  0  0  0  0  0
  -22.0595   -2.7612   23.2843 H   0  0  0  0  0  0
  -22.4028  -11.9810   22.4881 H   0  0  0  0  0  0
  -21.0984  -13.1116   22.2673 H   0  0  0  0  0  0
  -24.6121  -15.8494   20.5375 H   0  0  0  0  0  0
  -26.2233  -15.6482   20.0710 H   0  0  0  0  0  0
  -26.7560  -32.4853   23.0732 H   0  0  0  0  0  0
  -25.0040  -33.9259   24.9969 H   0  0  0  0  0  0
  -22.8560  -31.2251   21.3001 H   0  0  0  0  0  0
  -23.3778  -35.9436   23.3259 H   0  0  0  0  0  0
  -24.3559  -36.8857   22.2082 H   0  0  0  0  0  0
  -23.7237  -37.6279   23.6781 H   0  0  0  0  0  0
  -26.3235  -31.2052   20.6299 H   0  0  0  0  0  0
  -26.9566  -30.5591   22.0929 H   0  0  0  0  0  0
  -28.1740  -28.2884   21.3341 H   0  0  0  0  0  0
  -25.8210  -25.5639   19.0038 H   0  0  0  0  0  0
  -24.0480  -27.1923   18.9234 H   0  0  0  0  0  0
  -23.9691  -30.4280   19.3747 H   0  0  0  0  0  0
  -22.8876  -29.1444   19.8122 H   0  0  0  0  0  0
  -25.1366  -36.1607   25.0763 H   0  0  0  0  0  0
  -21.0064  -28.3426   24.1249 H   0  0  0  0  0  0
  -20.5660  -26.2419   23.3677 H   0  0  0  0  0  0
  -21.6666  -26.7367   22.1230 H   0  0  0  0  0  0
  -19.6938  -25.6255   21.1303 H   0  0  0  0  0  0
  -19.6730  -27.3129   20.6710 H   0  0  0  0  0  0
  -17.4236  -26.6693   21.4021 H   0  0  0  0  0  0
  -18.0352  -26.0116   22.9034 H   0  0  0  0  0  0
  -19.7994  -30.7354   24.2146 H   0  0  0  0  0  0
  -17.5057  -31.6278   24.5166 H   0  0  0  0  0  0
  -15.5392  -30.2961   23.7726 H   0  0  0  0  0  0
  -15.8725  -28.0800   22.7132 H   0  0  0  0  0  0
  -24.5864  -30.7155   25.7572 H   0  0  0  0  0  0
  -24.8806  -32.3067   26.4469 H   0  0  0  0  0  0
  -25.7799  -30.9150   27.0207 H   0  0  0  0  0  0
  -26.3300  -29.6394   24.1665 H   0  0  0  0  0  0
  -27.3958  -29.7305   25.5442 H   0  0  0  0  0  0
  -27.9292  -30.3914   24.0226 H   0  0  0  0  0  0
  -27.2557  -33.3759   26.1844 H   0  0  0  0  0  0
  -28.3970  -32.6810   25.0429 H   0  0  0  0  0  0
  -28.0570  -31.8672   26.5625 H   0  0  0  0  0  0
  -28.2540  -38.0050   24.7512 H   0  0  0  0  0  0
  -28.1093  -36.2570   24.6297 H   0  0  0  0  0  0
  -27.2273  -37.1358   25.8868 H   0  0  0  0  0  0
  -20.9779  -29.8658   21.6465 H   0  0  0  0  0  0
  -26.0084  -38.2675   24.1421 H   0  0  0  0  0  0
  -32.2755  -21.0887   20.5173 H   0  0  0  0  0  0
  -30.7626  -22.9641   20.4154 H   0  0  0  0  0  0
  -31.7198  -18.7513   20.4730 H   0  0  0  0  0  0
  -27.5975  -20.0310   20.1940 H   0  0  0  0  0  0
  -27.1705  -23.3778   20.9334 H   0  0  0  0  0  0
  -27.4334  -23.4350   19.2435 H   0  0  0  0  0  0
  -28.4908  -16.9030   20.3508 H   0  0  0  0  0  0
  1 25  1  0  0  0
  1 30  2  0  0  0
  1 78  1  0  0  0
  2  3  1  0  0  0
  2 25  1  0  0  0
  2 79  1  0  0  0
  2 80  1  0  0  0
  3  4  1  0  0  0
  3 81  1  0  0  0
  3 82  1  0  0  0
  4  5  1  0  0  0
  4 83  1  0  0  0
  4 84  1  0  0  0
  5  6  1  0  0  0
  5 26  1  0  0  0
  5 85  1  0  0  0
  6 25  1  0  0  0
  6 86  1  0  0  0
  6 87  1  0  0  0
  7  8  2  0  0  0
  7 26  1  0  0  0
  7 29  1  0  0  0
  8  9  1  0  0  0
  8 22  1  0  0  0
  9 10  1  0  0  0
  9 27  2  0  0  0
 10 11  2  0  0  0
 10 15  1  0  0  0
 11 12  1  0  0  0
 11 88  1  0  0  0
 12 13  2  0  0  0
 12 89  1  0  0  0
 13 14  1  0  0  0
 13 31  1  0  0  0
 14 15  2  0  0  0
 14 90  1  0  0  0
 15 91  1  0  0  0
 16 17  2  0  0  0
 16 21  1  0  0  0
 16 31  1  0  0  0
 17 18  1  0  0  0
 17 92  1  0  0  0
 18 19  2  0  0  0
 18 93  1  0  0  0
 19 20  1  0  0  0
 19 24  1  0  0  0
 20 21  2  0  0  0
 20 94  1  0  0  0
 21 23  1  0  0  0
 22 28  1  0  0  0
 22 32  2  0  0  0
 26 27  1  0  0  0
 28 95  1  0  0  0
 28 96  1  0  0  0
 29 97  1  0  0  0
 29 98  1  0  0  0
 33 34  1  0  0  0
 33 66  1  0  0  0
 33 70  2  0  0  0
 34 36  1  0  0  0
 34 59  1  0  0  0
 34 99  1  0  0  0
 35 44  2  0  0  0
 35 45  1  0  0  0
 35 68  1  0  0  0
 36 56  1  0  0  0
 36100  1  0  0  0
 37 39  1  0  0  0
 37 47  1  0  0  0
 37 66  1  0  0  0
 37101  1  0  0  0
 38 43  2  0  0  0
 38 46  1  0  0  0
 38 47  1  0  0  0
 39 64  1  0  0  0
 39 67  2  0  0  0
 40 52  1  0  0  0
 40 53  2  0  0  0
 40 58  1  0  0  0
 41102  1  0  0  0
 41103  1  0  0  0
 41104  1  0  0  0
 41 48  1  0  0  0
 42 43  1  0  0  0
 42 66  1  0  0  0
 42105  1  0  0  0
 42106  1  0  0  0
 43 44  1  0  0  0
 44107  1  0  0  0
 45 46  2  0  0  0
 45108  1  0  0  0
 46109  1  0  0  0
 47110  1  0  0  0
 47111  1  0  0  0
 48 56  1  0  0  0
 48 65  1  0  0  0
 48112  1  0  0  0
 49 50  1  0  0  0
 49 53  1  0  0  0
 49 64  1  0  0  0
 49113  1  0  0  0
 50 51  1  0  0  0
 50114  1  0  0  0
 50115  1  0  0  0
 51 52  1  0  0  0
 51116  1  0  0  0
 51117  1  0  0  0
 52118  1  0  0  0
 52119  1  0  0  0
 53 54  1  0  0  0
 54 55  2  0  0  0
 54120  1  0  0  0
 55 57  1  0  0  0
 55121  1  0  0  0
 56 69  2  0  0  0
 57 58  2  0  0  0
 57122  1  0  0  0
 58123  1  0  0  0
 59 60  1  0  0  0
 59 61  1  0  0  0
 59 62  1  0  0  0
 60124  1  0  0  0
 60125  1  0  0  0
 60126  1  0  0  0
 61127  1  0  0  0
 61128  1  0  0  0
 61129  1  0  0  0
 62130  1  0  0  0
 62131  1  0  0  0
 62132  1  0  0  0
 63 65  1  0  0  0
 63133  1  0  0  0
 63134  1  0  0  0
 63135  1  0  0  0
 64136  1  0  0  0
 65137  1  0  0  0
 68 77  1  0  0  0
 71 72  2  0  0  0
 71 73  1  0  0  0
 71138  1  0  0  0
 72 75  1  0  0  0
 72139  1  0  0  0
 73 76  2  0  0  0
 73140  1  0  0  0
 74 75  2  0  0  0
 74 76  1  0  0  0
 74141  1  0  0  0
 75 77  1  0  0  0
 76 78  1  0  0  0
 77142  1  0  0  0
 77143  1  0  0  0
 78144  1  0  0  0
M  ISO  4   1 100  68 101  77 101  78 100
M  END
> <chiral flag>
0

> <version>
0

> <s_m_source_file>
/data/baiqing/PycharmProjects/Reinvent-master-3.2/result/LINK_invent/BTK/process_docking_weight1_custom_sum_contain_oxygen_bond_distance_aromatic_linkinvent_7_9_3/rearranged_h_0004.sdf

> <i_m_source_file_index>
69

> <r_mmod_Potential_Energy-OPLS-2005>
2813.380859375

> <r_mmod_Stretch_Energy-OPLS-2005>
1256.92761230469

> <r_mmod_Bend_Energy-OPLS-2005>
641.894226074219

> <r_mmod_Torsional_Energy-OPLS-2005>
222.88850402832

> <r_mmod_Improper_Torsional_Energy-OPLS-2005>
4.12787246704102

> <r_mmod_Van_der_Waal_Energy-OPLS-2005>
126.438247680664

> <r_mmod_Electrostatic_Energy-OPLS-2005>
-346.341064453125

> <r_mmod_Solvation_Energy-OPLS-2005>
-213.760787963867

> <b_mmod_Minimization_Converged-OPLS-2005>
0

> <r_mmod_RMS_Derivative-OPLS-2005>
0.157229289412498

$$$$
69
                    3D
 Structure written by MMmdl.
168175  0  0  1  0            999 V2000
  -30.6939  -14.4620   20.5126 C   0  0  0  0  0  0
  -30.4147  -12.2762   19.4420 C   0  0  0  0  0  0
  -29.5004  -12.4975   18.2179 C   0  0  0  0  0  0
  -28.0168  -12.3686   18.6186 C   0  0  0  0  0  0
  -27.6604  -13.2108   19.8735 C   0  0  2  0  0  0
  -28.6979  -13.0056   20.9992 C   0  0  0  0  0  0
  -25.2586  -13.8180   20.5698 C   0  0  0  0  0  0
  -24.1828  -13.0446   20.9174 C   0  0  0  0  0  0
  -24.6385  -11.6921   20.8726 C   0  0  0  0  0  0
  -23.9056  -10.4294   21.0402 C   0  0  0  0  0  0
  -24.3610   -9.4205   21.9180 C   0  0  0  0  0  0
  -23.6287   -8.2239   22.0748 C   0  0  0  0  0  0
  -22.4269   -8.0276   21.3544 C   0  0  0  0  0  0
  -21.9910   -9.0242   20.4644 C   0  0  0  0  0  0
  -22.7230  -10.2130   20.3051 C   0  0  0  0  0  0
  -21.6850   -6.0733   22.5276 C   0  0  0  0  0  0
  -21.4020   -6.5635   23.8209 C   0  0  0  0  0  0
  -21.3662   -5.6793   24.9167 C   0  0  0  0  0  0
  -21.6045   -4.3053   24.7223 C   0  0  0  0  0  0
  -21.8821   -3.8145   23.4342 C   0  0  0  0  0  0
  -21.9192   -4.6961   22.3397 C   0  0  0  0  0  0
  -22.7850  -13.5239   21.1847 C   0  0  0  0  0  0
  -22.1655   -4.2146   21.0975 F   0  0  0  0  0  0
  -21.5630   -3.4535   25.7735 F   0  0  0  0  0  0
  -30.0360  -13.2752   20.4525 N   0  0  0  0  0  0
  -26.3014  -12.9354   20.3356 N   0  0  0  0  0  0
  -25.9310  -11.6507   20.5758 N   0  0  0  0  0  0
  -22.0489  -12.8218   22.0408 N   0  0  0  0  0  0
  -25.4324  -15.1895   20.4143 N   0  0  0  0  0  0
  -31.8653  -14.5781   20.1498 O   0  0  0  0  0  0
  -21.6633   -6.8872   21.4239 O   0  0  0  0  0  0
  -22.3534  -14.5545   20.6713 O   0  0  0  0  0  0
  -24.6129  -31.8698   23.2114 C   0  0  0  0  0  0
  -25.9024  -32.4832   23.8401 C   0  0  1  0  0  0
  -27.2352  -27.4541   20.0885 C   0  0  0  0  0  0
  -25.5890  -33.8626   24.2340 N   0  0  0  0  0  0
  -23.4000  -30.4944   21.5523 C   0  0  2  0  0  0
  -24.8454  -28.9597   20.1186 C   0  0  0  0  0  0
  -22.7396  -29.4687   22.5013 C   0  0  0  0  0  0
  -18.0267  -28.1385   22.8474 C   0  0  0  0  0  0
  -24.1483  -36.7328   23.2638 C   0  0  0  0  0  0
  -25.9275  -30.8391   21.3607 C   0  0  0  0  0  0
  -26.0050  -29.4738   20.7136 C   0  0  0  0  0  0
  -27.2046  -28.7275   20.6979 C   0  0  0  0  0  0
  -26.0621  -26.9520   19.4862 C   0  0  0  0  0  0
  -24.8672  -27.6952   19.5063 C   0  0  0  0  0  0
  -23.6070  -29.8246   20.1678 C   0  0  0  0  0  0
  -25.4093  -36.3117   24.0342 C   0  0  1  0  0  0
  -20.5851  -28.3657   23.1329 C   0  0  2  0  0  0
  -20.6759  -26.9404   22.5417 C   0  0  0  0  0  0
  -19.5751  -26.6389   21.5210 C   0  0  0  0  0  0
  -18.1918  -26.7921   22.1616 C   0  0  0  0  0  0
  -19.1512  -28.8841   23.2887 C   0  0  0  0  0  0
  -18.9445  -30.1438   23.8914 C   0  0  0  0  0  0
  -17.6453  -30.6584   24.0570 C   0  0  0  0  0  0
  -25.9033  -34.9480   23.5140 C   0  0  0  0  0  0
  -16.5344  -29.9083   23.6332 C   0  0  0  0  0  0
  -16.7251  -28.6499   23.0337 C   0  0  0  0  0  0
  -26.4461  -31.6588   25.0711 C   0  0  0  0  0  0
  -25.3738  -31.3648   26.1466 C   0  0  0  0  0  0
  -27.0293  -30.3039   24.6040 C   0  0  0  0  0  0
  -27.6051  -32.4297   25.7454 C   0  0  0  0  0  0
  -27.5580  -37.1808   24.8462 C   0  0  0  0  0  0
  -21.4135  -29.3033   22.3742 N   0  0  0  0  0  0
  -26.4284  -37.3796   23.9410 N   0  0  0  0  0  0
  -24.6657  -31.0814   22.1006 N   0  0  0  0  0  0
  -23.4172  -28.8214   23.3047 O   0  0  0  0  0  0
  -28.4140  -26.7470   20.0299 O   0  0  0  0  0  0
  -26.5591  -34.8919   22.4700 O   0  0  0  0  0  0
  -23.5322  -32.1452   23.7513 O   0  0  0  0  0  0
  -30.6618  -20.5749   20.2431 C   0  0  0  0  0  0
  -30.2668  -16.3617   21.7518 C   0  0  0  0  0  0
  -27.9028  -24.3369   20.0885 C   0  0  0  0  0  0
  -28.6088  -18.1889   22.4751 C   0  0  0  0  0  0
  -31.1667  -15.9841   22.9318 C   0  0  0  0  0  0
  -30.8050  -20.2988   21.6813 C   0  0  0  0  0  0
  -28.4828  -25.5576   20.8280 C   0  0  0  0  0  0
  -31.0418  -18.8119   22.0173 C   0  0  0  0  0  0
  -26.4572  -21.2092   20.4869 C   0  0  0  0  0  0
  -26.3927  -20.9290   22.0036 C   0  0  0  0  0  0
  -26.0616  -22.6461   20.0945 C   0  0  0  0  0  0
  -26.4368  -19.4313   22.3746 C   0  0  0  0  0  0
  -29.8722  -17.8520   21.6609 C   0  0  1  0  0  0
  -30.5487  -20.7900   19.1092 N   0  0  0  0  0  0
  -29.9105  -15.5702   20.8073 N   0  0  0  0  0  0
  -26.9154  -23.6677   20.7024 N   0  0  0  0  0  0
  -27.6078  -18.7731   21.7995 N   0  0  0  0  0  0
  -28.3051  -24.0438   18.9600 O   0  0  0  0  0  0
  -28.5756  -18.0173   23.6961 O   0  0  0  0  0  0
  -31.4639  -12.3473   19.1489 H   0  0  0  0  0  0
  -30.2824  -11.2688   19.8389 H   0  0  0  0  0  0
  -29.7396  -11.7789   17.4331 H   0  0  0  0  0  0
  -29.6846  -13.4857   17.7928 H   0  0  0  0  0  0
  -27.8198  -11.3134   18.8120 H   0  0  0  0  0  0
  -27.3737  -12.6473   17.7830 H   0  0  0  0  0  0
  -27.7038  -14.2578   19.5740 H   0  0  0  0  0  0
  -28.6545  -11.9833   21.3766 H   0  0  0  0  0  0
  -28.4741  -13.6479   21.8527 H   0  0  0  0  0  0
  -25.2762   -9.5671   22.4747 H   0  0  0  0  0  0
  -23.9995   -7.4631   22.7467 H   0  0  0  0  0  0
  -21.0839   -8.8757   19.8948 H   0  0  0  0  0  0
  -22.3692  -10.9658   19.6150 H   0  0  0  0  0  0
  -21.2014   -7.6147   23.9709 H   0  0  0  0  0  0
  -21.1488   -6.0522   25.9073 H   0  0  0  0  0  0
  -22.0603   -2.7611   23.2841 H   0  0  0  0  0  0
  -22.4131  -11.9878   22.4781 H   0  0  0  0  0  0
  -21.1100  -13.1232   22.2626 H   0  0  0  0  0  0
  -24.6791  -15.8553   20.5418 H   0  0  0  0  0  0
  -26.3053  -15.6224   20.1391 H   0  0  0  0  0  0
  -26.7093  -32.5545   23.1166 H   0  0  0  0  0  0
  -25.0038  -33.9790   25.0479 H   0  0  0  0  0  0
  -22.6897  -31.3105   21.4116 H   0  0  0  0  0  0
  -23.3735  -35.9675   23.3304 H   0  0  0  0  0  0
  -24.3597  -36.8945   22.2060 H   0  0  0  0  0  0
  -23.7251  -37.6534   23.6656 H   0  0  0  0  0  0
  -26.0351  -31.6016   20.5870 H   0  0  0  0  0  0
  -26.8187  -30.8967   21.9735 H   0  0  0  0  0  0
  -28.1056  -29.1257   21.1437 H   0  0  0  0  0  0
  -26.0640  -25.9972   18.9792 H   0  0  0  0  0  0
  -23.9756  -27.2934   19.0428 H   0  0  0  0  0  0
  -23.7127  -30.5986   19.4069 H   0  0  0  0  0  0
  -22.7315  -29.2412   19.8747 H   0  0  0  0  0  0
  -25.1265  -36.1993   25.0836 H   0  0  0  0  0  0
  -20.9931  -28.3214   24.1452 H   0  0  0  0  0  0
  -20.5679  -26.2261   23.3586 H   0  0  0  0  0  0
  -21.6627  -26.7462   22.1214 H   0  0  0  0  0  0
  -19.6915  -25.6301   21.1226 H   0  0  0  0  0  0
  -19.6696  -27.3217   20.6754 H   0  0  0  0  0  0
  -17.4192  -26.6664   21.4009 H   0  0  0  0  0  0
  -18.0309  -26.0076   22.9030 H   0  0  0  0  0  0
  -19.7928  -30.7231   24.2303 H   0  0  0  0  0  0
  -17.5015  -31.6275   24.5152 H   0  0  0  0  0  0
  -15.5340  -30.2989   23.7657 H   0  0  0  0  0  0
  -15.8654  -28.0835   22.7036 H   0  0  0  0  0  0
  -24.5931  -30.6985   25.7794 H   0  0  0  0  0  0
  -24.8896  -32.2771   26.4951 H   0  0  0  0  0  0
  -25.8105  -30.8799   27.0202 H   0  0  0  0  0  0
  -26.2821  -29.6781   24.1150 H   0  0  0  0  0  0
  -27.4156  -29.7280   25.4458 H   0  0  0  0  0  0
  -27.8608  -30.4374   23.9114 H   0  0  0  0  0  0
  -27.2706  -33.3595   26.2049 H   0  0  0  0  0  0
  -28.3835  -32.6856   25.0260 H   0  0  0  0  0  0
  -28.0737  -31.8403   26.5342 H   0  0  0  0  0  0
  -28.2591  -38.0119   24.7542 H   0  0  0  0  0  0
  -28.1093  -36.2653   24.6247 H   0  0  0  0  0  0
  -27.2315  -37.1416   25.8873 H   0  0  0  0  0  0
  -20.9290  -29.8770   21.6981 H   0  0  0  0  0  0
  -26.0182  -38.2876   24.1414 H   0  0  0  0  0  0
  -30.9042  -16.5623   23.8174 H   0  0  0  0  0  0
  -32.2123  -16.1746   22.6920 H   0  0  0  0  0  0
  -31.0540  -14.9329   23.1995 H   0  0  0  0  0  0
  -29.9190  -20.6857   22.1850 H   0  0  0  0  0  0
  -31.6456  -20.8959   22.0353 H   0  0  0  0  0  0
  -29.5338  -25.3524   21.0360 H   0  0  0  0  0  0
  -27.9947  -25.7091   21.7923 H   0  0  0  0  0  0
  -31.2694  -18.7428   23.0812 H   0  0  0  0  0  0
  -31.9450  -18.4919   21.4966 H   0  0  0  0  0  0
  -25.7784  -20.5263   19.9739 H   0  0  0  0  0  0
  -27.4522  -20.9845   20.1012 H   0  0  0  0  0  0
  -25.4701  -21.3496   22.4037 H   0  0  0  0  0  0
  -27.2041  -21.4574   22.5054 H   0  0  0  0  0  0
  -25.0366  -22.8394   20.4116 H   0  0  0  0  0  0
  -26.0518  -22.7453   19.0062 H   0  0  0  0  0  0
  -25.5408  -18.9285   22.0073 H   0  0  0  0  0  0
  -26.4131  -19.3304   23.4609 H   0  0  0  0  0  0
  -29.6378  -18.0360   20.6114 H   0  0  0  0  0  0
  -26.6580  -23.9829   21.6291 H   0  0  0  0  0  0
  -27.7007  -18.8344   20.7941 H   0  0  0  0  0  0
  1 25  1  0  0  0
  1 30  2  0  0  0
  1 85  1  0  0  0
  2  3  1  0  0  0
  2 25  1  0  0  0
  2 90  1  0  0  0
  2 91  1  0  0  0
  3  4  1  0  0  0
  3 92  1  0  0  0
  3 93  1  0  0  0
  4  5  1  0  0  0
  4 94  1  0  0  0
  4 95  1  0  0  0
  5  6  1  0  0  0
  5 26  1  0  0  0
  5 96  1  0  0  0
  6 25  1  0  0  0
  6 97  1  0  0  0
  6 98  1  0  0  0
  7  8  2  0  0  0
  7 26  1  0  0  0
  7 29  1  0  0  0
  8  9  1  0  0  0
  8 22  1  0  0  0
  9 10  1  0  0  0
  9 27  2  0  0  0
 10 11  2  0  0  0
 10 15  1  0  0  0
 11 12  1  0  0  0
 11 99  1  0  0  0
 12 13  2  0  0  0
 12100  1  0  0  0
 13 14  1  0  0  0
 13 31  1  0  0  0
 14 15  2  0  0  0
 14101  1  0  0  0
 15102  1  0  0  0
 16 17  2  0  0  0
 16 21  1  0  0  0
 16 31  1  0  0  0
 17 18  1  0  0  0
 17103  1  0  0  0
 18 19  2  0  0  0
 18104  1  0  0  0
 19 20  1  0  0  0
 19 24  1  0  0  0
 20 21  2  0  0  0
 20105  1  0  0  0
 21 23  1  0  0  0
 22 28  1  0  0  0
 22 32  2  0  0  0
 26 27  1  0  0  0
 28106  1  0  0  0
 28107  1  0  0  0
 29108  1  0  0  0
 29109  1  0  0  0
 33 34  1  0  0  0
 33 66  1  0  0  0
 33 70  2  0  0  0
 34 36  1  0  0  0
 34 59  1  0  0  0
 34110  1  0  0  0
 35 44  2  0  0  0
 35 45  1  0  0  0
 35 68  1  0  0  0
 36 56  1  0  0  0
 36111  1  0  0  0
 37 39  1  0  0  0
 37 47  1  0  0  0
 37 66  1  0  0  0
 37112  1  0  0  0
 38 43  2  0  0  0
 38 46  1  0  0  0
 38 47  1  0  0  0
 39 64  1  0  0  0
 39 67  2  0  0  0
 40 52  1  0  0  0
 40 53  2  0  0  0
 40 58  1  0  0  0
 41113  1  0  0  0
 41114  1  0  0  0
 41115  1  0  0  0
 41 48  1  0  0  0
 42 43  1  0  0  0
 42 66  1  0  0  0
 42116  1  0  0  0
 42117  1  0  0  0
 43 44  1  0  0  0
 44118  1  0  0  0
 45 46  2  0  0  0
 45119  1  0  0  0
 46120  1  0  0  0
 47121  1  0  0  0
 47122  1  0  0  0
 48 56  1  0  0  0
 48 65  1  0  0  0
 48123  1  0  0  0
 49 50  1  0  0  0
 49 53  1  0  0  0
 49 64  1  0  0  0
 49124  1  0  0  0
 50 51  1  0  0  0
 50125  1  0  0  0
 50126  1  0  0  0
 51 52  1  0  0  0
 51127  1  0  0  0
 51128  1  0  0  0
 52129  1  0  0  0
 52130  1  0  0  0
 53 54  1  0  0  0
 54 55  2  0  0  0
 54131  1  0  0  0
 55 57  1  0  0  0
 55132  1  0  0  0
 56 69  2  0  0  0
 57 58  2  0  0  0
 57133  1  0  0  0
 58134  1  0  0  0
 59 60  1  0  0  0
 59 61  1  0  0  0
 59 62  1  0  0  0
 60135  1  0  0  0
 60136  1  0  0  0
 60137  1  0  0  0
 61138  1  0  0  0
 61139  1  0  0  0
 61140  1  0  0  0
 62141  1  0  0  0
 62142  1  0  0  0
 62143  1  0  0  0
 63 65  1  0  0  0
 63144  1  0  0  0
 63145  1  0  0  0
 63146  1  0  0  0
 64147  1  0  0  0
 65148  1  0  0  0
 68 77  1  0  0  0
 71 76  1  0  0  0
 71 84  3  0  0  0
 72 75  1  0  0  0
 72 83  1  0  0  0
 72 85  2  0  0  0
 73 77  1  0  0  0
 73 86  1  0  0  0
 73 88  2  0  0  0
 74 83  1  0  0  0
 74 87  1  0  0  0
 74 89  2  0  0  0
 75149  1  0  0  0
 75150  1  0  0  0
 75151  1  0  0  0
 76 78  1  0  0  0
 76152  1  0  0  0
 76153  1  0  0  0
 77154  1  0  0  0
 77155  1  0  0  0
 78156  1  0  0  0
 78157  1  0  0  0
 78 83  1  0  0  0
 79 80  1  0  0  0
 79 81  1  0  0  0
 79158  1  0  0  0
 79159  1  0  0  0
 80 82  1  0  0  0
 80160  1  0  0  0
 80161  1  0  0  0
 81 86  1  0  0  0
 81162  1  0  0  0
 81163  1  0  0  0
 82 87  1  0  0  0
 82164  1  0  0  0
 82165  1  0  0  0
 83166  1  0  0  0
 86167  1  0  0  0
 87168  1  0  0  0
M  ISO  4   1 100  68 101  77 101  85 100
M  END
> <chiral flag>
0

> <version>
0

> <s_m_source_file>
/data/baiqing/PycharmProjects/Reinvent-master-3.2/result/LINK_invent/BTK/process_docking_weight1_custom_sum_contain_oxygen_bond_distance_aromatic_linkinvent_7_9_3/rearranged_h_0004.sdf

> <i_m_source_file_index>
70

> <r_mmod_Potential_Energy-OPLS-2005>
-104.241096496582

> <r_mmod_Stretch_Energy-OPLS-2005>
36.5270729064941

> <r_mmod_Bend_Energy-OPLS-2005>
105.249473571777

> <r_mmod_Torsional_Energy-OPLS-2005>
230.566162109375

> <r_mmod_Improper_Torsional_Energy-OPLS-2005>
6.6544885635376

> <r_mmod_Van_der_Waal_Energy-OPLS-2005>
129.294708251953

> <r_mmod_Electrostatic_Energy-OPLS-2005>
-376.981475830078

> <r_mmod_Solvation_Energy-OPLS-2005>
-249.651641845703

> <b_mmod_Minimization_Converged-OPLS-2005>
0

> <r_mmod_RMS_Derivative-OPLS-2005>
2.4295539855957

$$$$
70
                    3D
 Structure written by MMmdl.
191199  0  0  1  0            999 V2000
  -30.2679  -15.0331   20.3967 C   0  0  0  0  0  0
  -30.4116  -12.6423   19.5177 C   0  0  0  0  0  0
  -29.5132  -12.5277   18.2623 C   0  0  0  0  0  0
  -28.0432  -12.2847   18.6665 C   0  0  0  0  0  0
  -27.5889  -13.2078   19.8286 C   0  0  2  0  0  0
  -28.5975  -13.2360   20.9821 C   0  0  0  0  0  0
  -25.2328  -13.8110   20.5708 C   0  0  0  0  0  0
  -24.1621  -13.0375   20.9210 C   0  0  0  0  0  0
  -24.6208  -11.6849   20.8765 C   0  0  0  0  0  0
  -23.8935  -10.4246   21.0453 C   0  0  0  0  0  0
  -24.3545   -9.4172   21.9216 C   0  0  0  0  0  0
  -23.6251   -8.2200   22.0769 C   0  0  0  0  0  0
  -22.4234   -8.0247   21.3557 C   0  0  0  0  0  0
  -21.9834   -9.0204   20.4660 C   0  0  0  0  0  0
  -22.7137  -10.2090   20.3075 C   0  0  0  0  0  0
  -21.6844   -6.0710   22.5286 C   0  0  0  0  0  0
  -21.4015   -6.5625   23.8215 C   0  0  0  0  0  0
  -21.3647   -5.6781   24.9178 C   0  0  0  0  0  0
  -21.6038   -4.3043   24.7224 C   0  0  0  0  0  0
  -21.8825   -3.8131   23.4351 C   0  0  0  0  0  0
  -21.9194   -4.6947   22.3406 C   0  0  0  0  0  0
  -22.7685  -13.5230   21.1868 C   0  0  0  0  0  0
  -22.1675   -4.2145   21.0986 F   0  0  0  0  0  0
  -21.5607   -3.4520   25.7730 F   0  0  0  0  0  0
  -29.8317  -13.7128   20.3850 N   0  0  0  0  0  0
  -26.2590  -12.9197   20.3108 N   0  0  0  0  0  0
  -25.9085  -11.6383   20.5671 N   0  0  0  0  0  0
  -22.0332  -12.8241   22.0440 N   0  0  0  0  0  0
  -25.4127  -15.1831   20.4277 N   0  0  0  0  0  0
  -31.4878  -15.1689   20.1790 O   0  0  0  0  0  0
  -21.6620   -6.8842   21.4247 O   0  0  0  0  0  0
  -22.3426  -14.5563   20.6732 O   0  0  0  0  0  0
  -24.7645  -31.8964   23.1058 C   0  0  0  0  0  0
  -26.0166  -32.5145   23.8192 C   0  0  1  0  0  0
  -27.0401  -27.5380   20.5742 C   0  0  0  0  0  0
  -25.6466  -33.8811   24.2064 N   0  0  0  0  0  0
  -23.6098  -30.2703   21.4596 C   0  0  2  0  0  0
  -25.0272  -29.1488   19.8274 C   0  0  0  0  0  0
  -22.9610  -28.8287   22.0150 C   0  0  0  0  0  0
  -18.0390  -28.0596   22.8562 C   0  0  0  0  0  0
  -24.1493  -36.7338   23.2560 C   0  0  0  0  0  0
  -26.0501  -30.9438   21.2731 C   0  0  0  0  0  0
  -26.1599  -29.6656   20.4702 C   0  0  0  0  0  0
  -27.3124  -28.8939   20.5775 C   0  0  0  0  0  0
  -26.1110  -27.0028   19.6591 C   0  0  0  0  0  0
  -25.0429  -27.8374   19.2910 C   0  0  0  0  0  0
  -23.8596  -30.0726   19.9617 C   0  0  0  0  0  0
  -25.4169  -36.3208   24.0216 C   0  0  1  0  0  0
  -20.6400  -27.9297   23.2752 C   0  0  2  0  0  0
  -20.5677  -26.5573   22.6408 C   0  0  0  0  0  0
  -19.4186  -26.3256   21.6546 C   0  0  0  0  0  0
  -18.0752  -26.6852   22.2422 C   0  0  0  0  0  0
  -19.2222  -28.6768   23.3531 C   0  0  0  0  0  0
  -19.0062  -29.9261   24.0093 C   0  0  0  0  0  0
  -17.7449  -30.5624   24.0854 C   0  0  0  0  0  0
  -25.9258  -34.9708   23.4889 C   0  0  0  0  0  0
  -16.6095  -29.9174   23.5785 C   0  0  0  0  0  0
  -16.7631  -28.6573   22.9842 C   0  0  0  0  0  0
  -26.5386  -31.7668   25.1175 C   0  0  0  0  0  0
  -25.4656  -31.5140   26.2103 C   0  0  0  0  0  0
  -27.2521  -30.4568   24.7836 C   0  0  0  0  0  0
  -27.6579  -32.6040   25.7811 C   0  0  0  0  0  0
  -27.5594  -37.1853   24.8471 C   0  0  0  0  0  0
  -21.7538  -28.6571   22.6628 N   0  0  0  0  0  0
  -26.4314  -37.3949   23.9414 N   0  0  0  0  0  0
  -24.8218  -30.9601   22.0913 N   0  0  0  0  0  0
  -23.5857  -27.8242   21.9530 O   0  0  0  0  0  0
  -26.8519  -27.1100   21.8709 O   0  0  0  0  0  0
  -26.5745  -34.9251   22.4408 O   0  0  0  0  0  0
  -23.6945  -32.3276   23.5251 O   0  0  0  0  0  0
  -29.5031  -19.2069   23.5452 C   0  0  0  0  0  0
  -30.2585  -18.0498   23.4714 C   0  0  0  0  0  0
  -28.5510  -19.4685   22.5577 C   0  0  0  0  0  0
  -30.0577  -17.1687   22.4082 C   0  0  0  0  0  0
  -28.2701  -18.6598   21.4119 C   0  0  0  0  0  0
  -29.1363  -17.3621   21.3330 C   0  0  0  0  0  0
  -27.0461  -19.4672   20.6668 C   0  0  0  0  0  0
  -26.5669  -20.8327   20.8052 C   0  0  0  0  0  0
  -25.2914  -21.6719   20.3767 C   0  0  0  0  0  0
  -24.8689  -23.0315   20.6167 C   0  0  0  0  0  0
  -21.9476  -26.2002   19.9323 C   0  0  0  0  0  0
  -22.3142  -23.1858   21.1206 C   0  0  0  0  0  0
  -22.4939  -30.4632   24.0164 C   0  0  0  0  0  0
  -29.4897  -17.6138   18.3208 C   0  0  0  0  0  0
  -21.6247  -27.8565   19.7127 C   0  0  0  0  0  0
  -20.6424  -29.1797   20.4257 C   0  0  0  0  0  0
  -28.7715  -16.4486   19.0297 C   0  0  0  0  0  0
  -24.7541  -28.2944   24.0908 C   0  0  0  0  0  0
  -20.8439  -30.6780   21.4159 C   0  0  0  0  0  0
  -26.1788  -28.0769   23.0221 C   0  0  0  0  0  0
  -23.4290  -23.8373   20.2920 C   0  0  1  0  0  0
  -21.0148  -25.4168   19.3532 N   0  0  0  0  0  0
  -21.6217  -22.1988   20.5632 N   0  0  0  0  0  0
  -22.0703  -30.9747   25.1845 N   0  0  0  0  0  0
  -23.6822  -29.5751   24.4051 N   0  0  0  0  0  0
  -29.3168  -16.1592   20.3643 N   0  0  0  0  0  0
  -23.1188  -25.4404   20.3580 N   0  3  0  0  0  0
  -21.5024  -30.9982   22.9658 N   0  3  0  0  0  0
  -22.0775  -23.5590   22.2670 O   0  0  0  0  0  0
  -31.4395  -12.8703   19.2283 H   0  0  0  0  0  0
  -30.4542  -11.6916   20.0520 H   0  0  0  0  0  0
  -29.8631  -11.7246   17.6117 H   0  0  0  0  0  0
  -29.5878  -13.4443   17.6755 H   0  0  0  0  0  0
  -27.9545  -11.2403   18.9705 H   0  0  0  0  0  0
  -27.3914  -12.4052   17.8010 H   0  0  0  0  0  0
  -27.5231  -14.1985   19.3954 H   0  0  0  0  0  0
  -28.7150  -12.2475   21.4315 H   0  0  0  0  0  0
  -28.2681  -13.9140   21.7722 H   0  0  0  0  0  0
  -25.2700   -9.5648   22.4780 H   0  0  0  0  0  0
  -23.9967   -7.4585   22.7467 H   0  0  0  0  0  0
  -21.0763   -8.8698   19.8975 H   0  0  0  0  0  0
  -22.3601  -10.9619   19.6177 H   0  0  0  0  0  0
  -21.2034   -7.6137   23.9713 H   0  0  0  0  0  0
  -21.1462   -6.0515   25.9078 H   0  0  0  0  0  0
  -22.0623   -2.7596   23.2847 H   0  0  0  0  0  0
  -22.3952  -11.9894   22.4794 H   0  0  0  0  0  0
  -21.0986  -13.1308   22.2732 H   0  0  0  0  0  0
  -24.6627  -15.8458   20.5879 H   0  0  0  0  0  0
  -26.2864  -15.6206   20.1684 H   0  0  0  0  0  0
  -26.8595  -32.6029   23.1394 H   0  0  0  0  0  0
  -25.0591  -33.9771   25.0216 H   0  0  0  0  0  0
  -23.0581  -31.1804   21.3377 H   0  0  0  0  0  0
  -23.3861  -35.9558   23.3205 H   0  0  0  0  0  0
  -24.3548  -36.9069   22.1981 H   0  0  0  0  0  0
  -23.7105  -37.6429   23.6682 H   0  0  0  0  0  0
  -26.0501  -31.7951   20.5885 H   0  0  0  0  0  0
  -26.9672  -31.0388   21.8457 H   0  0  0  0  0  0
  -28.1037  -29.2660   21.2147 H   0  0  0  0  0  0
  -26.0113  -25.9361   19.5229 H   0  0  0  0  0  0
  -24.2479  -27.4064   18.7073 H   0  0  0  0  0  0
  -24.2026  -31.0199   19.5387 H   0  0  0  0  0  0
  -22.9956  -30.0031   19.3200 H   0  0  0  0  0  0
  -25.1352  -36.1941   25.0692 H   0  0  0  0  0  0
  -20.9536  -27.7901   24.3123 H   0  0  0  0  0  0
  -20.3988  -25.8571   23.4581 H   0  0  0  0  0  0
  -21.5208  -26.2363   22.2350 H   0  0  0  0  0  0
  -19.3825  -25.2633   21.4099 H   0  0  0  0  0  0
  -19.5172  -26.8216   20.7061 H   0  0  0  0  0  0
  -17.3008  -26.5923   21.4802 H   0  0  0  0  0  0
  -17.8214  -25.9691   23.0269 H   0  0  0  0  0  0
  -19.8022  -30.3959   24.5462 H   0  0  0  0  0  0
  -17.6477  -31.5182   24.5831 H   0  0  0  0  0  0
  -15.6330  -30.3760   23.6599 H   0  0  0  0  0  0
  -15.8849  -28.1429   22.6178 H   0  0  0  0  0  0
  -25.6543  -30.6097   26.7911 H   0  0  0  0  0  0
  -24.4599  -31.4707   25.8294 H   0  0  0  0  0  0
  -25.4433  -32.3345   26.9295 H   0  0  0  0  0  0
  -27.7353  -30.4683   23.8106 H   0  0  0  0  0  0
  -26.5981  -29.6297   24.9295 H   0  0  0  0  0  0
  -28.0590  -30.2407   25.4848 H   0  0  0  0  0  0
  -27.3045  -33.5724   26.1356 H   0  0  0  0  0  0
  -28.4806  -32.8014   25.0927 H   0  0  0  0  0  0
  -28.0802  -32.1131   26.6603 H   0  0  0  0  0  0
  -28.2580  -38.0196   24.7674 H   0  0  0  0  0  0
  -28.1125  -36.2746   24.6158 H   0  0  0  0  0  0
  -27.2287  -37.1283   25.8855 H   0  0  0  0  0  0
  -21.4265  -29.6255   22.7237 H   0  0  0  0  0  0
  -26.0181  -38.2994   24.1507 H   0  0  0  0  0  0
  -29.6363  -19.8895   24.3753 H   0  0  0  0  0  0
  -30.9924  -17.8299   24.2338 H   0  0  0  0  0  0
  -27.9925  -20.3573   22.7876 H   0  0  0  0  0  0
  -30.7065  -16.3097   22.4737 H   0  0  0  0  0  0
  -26.4431  -18.8279   20.0373 H   0  0  0  0  0  0
  -27.2096  -21.4810   21.3787 H   0  0  0  0  0  0
  -24.5633  -21.0889   19.8301 H   0  0  0  0  0  0
  -25.5757  -23.6530   21.1468 H   0  0  0  0  0  0
  -29.4046  -18.5546   18.8639 H   0  0  0  0  0  0
  -29.0577  -17.7813   17.3345 H   0  0  0  0  0  0
  -30.5502  -17.4082   18.1783 H   0  0  0  0  0  0
  -21.0122  -27.7725   18.8147 H   0  0  0  0  0  0
  -22.4816  -28.1905   19.1895 H   0  0  0  0  0  0
  -19.6744  -28.8039   20.7216 H   0  0  0  0  0  0
  -20.3435  -29.6697   19.4995 H   0  0  0  0  0  0
  -28.8331  -15.5799   18.3741 H   0  0  0  0  0  0
  -27.7113  -16.6818   19.1293 H   0  0  0  0  0  0
  -25.1680  -28.1607   25.0892 H   0  0  0  0  0  0
  -24.1807  -27.3662   24.1155 H   0  0  0  0  0  0
  -19.8145  -31.0160   21.5418 H   0  0  0  0  0  0
  -21.1965  -31.4508   20.7323 H   0  0  0  0  0  0
  -26.8907  -27.7633   23.7838 H   0  0  0  0  0  0
  -26.5055  -29.0747   22.8473 H   0  0  0  0  0  0
  -23.2448  -23.5948   19.2452 H   0  0  0  0  0  0
  -20.2155  -25.8092   18.8728 H   0  0  0  0  0  0
  -21.0770  -24.4106   19.3547 H   0  0  0  0  0  0
  -21.8553  -21.8492   19.6440 H   0  0  0  0  0  0
  -20.8872  -21.7420   21.0857 H   0  0  0  0  0  0
  -22.4228  -30.6715   26.0781 H   0  0  0  0  0  0
  -21.3703  -31.6995   25.2365 H   0  0  0  0  0  0
  -23.9737  -29.8538   25.3284 H   0  0  0  0  0  0
  -23.8107  -25.9905   20.8601 H   0  0  0  0  0  0
  -21.1244  -31.8916   23.2534 H   0  0  0  0  0  0
  1 25  1  0  0  0
  1 30  2  0  0  0
  1 96  1  0  0  0
  2  3  1  0  0  0
  2 25  1  0  0  0
  2100  1  0  0  0
  2101  1  0  0  0
  3  4  1  0  0  0
  3102  1  0  0  0
  3103  1  0  0  0
  4  5  1  0  0  0
  4104  1  0  0  0
  4105  1  0  0  0
  5  6  1  0  0  0
  5 26  1  0  0  0
  5106  1  0  0  0
  6 25  1  0  0  0
  6107  1  0  0  0
  6108  1  0  0  0
  7  8  2  0  0  0
  7 26  1  0  0  0
  7 29  1  0  0  0
  8  9  1  0  0  0
  8 22  1  0  0  0
  9 10  1  0  0  0
  9 27  2  0  0  0
 10 11  2  0  0  0
 10 15  1  0  0  0
 11 12  1  0  0  0
 11109  1  0  0  0
 12 13  2  0  0  0
 12110  1  0  0  0
 13 14  1  0  0  0
 13 31  1  0  0  0
 14 15  2  0  0  0
 14111  1  0  0  0
 15112  1  0  0  0
 16 17  2  0  0  0
 16 21  1  0  0  0
 16 31  1  0  0  0
 17 18  1  0  0  0
 17113  1  0  0  0
 18 19  2  0  0  0
 18114  1  0  0  0
 19 20  1  0  0  0
 19 24  1  0  0  0
 20 21  2  0  0  0
 20115  1  0  0  0
 21 23  1  0  0  0
 22 28  1  0  0  0
 22 32  2  0  0  0
 26 27  1  0  0  0
 28116  1  0  0  0
 28117  1  0  0  0
 29118  1  0  0  0
 29119  1  0  0  0
 33 34  1  0  0  0
 33 66  1  0  0  0
 33 70  2  0  0  0
 34 36  1  0  0  0
 34 59  1  0  0  0
 34120  1  0  0  0
 35 44  2  0  0  0
 35 45  1  0  0  0
 35 68  1  0  0  0
 36 56  1  0  0  0
 36121  1  0  0  0
 37 39  1  0  0  0
 37 47  1  0  0  0
 37 66  1  0  0  0
 37122  1  0  0  0
 38 43  2  0  0  0
 38 46  1  0  0  0
 38 47  1  0  0  0
 39 64  1  0  0  0
 39 67  2  0  0  0
 40 52  1  0  0  0
 40 53  2  0  0  0
 40 58  1  0  0  0
 41123  1  0  0  0
 41124  1  0  0  0
 41125  1  0  0  0
 41 48  1  0  0  0
 42 43  1  0  0  0
 42 66  1  0  0  0
 42126  1  0  0  0
 42127  1  0  0  0
 43 44  1  0  0  0
 44128  1  0  0  0
 45 46  2  0  0  0
 45129  1  0  0  0
 46130  1  0  0  0
 47131  1  0  0  0
 47132  1  0  0  0
 48 56  1  0  0  0
 48 65  1  0  0  0
 48133  1  0  0  0
 49 50  1  0  0  0
 49 53  1  0  0  0
 49 64  1  0  0  0
 49134  1  0  0  0
 50 51  1  0  0  0
 50135  1  0  0  0
 50136  1  0  0  0
 51 52  1  0  0  0
 51137  1  0  0  0
 51138  1  0  0  0
 52139  1  0  0  0
 52140  1  0  0  0
 53 54  1  0  0  0
 54 55  2  0  0  0
 54141  1  0  0  0
 55 57  1  0  0  0
 55142  1  0  0  0
 56 69  2  0  0  0
 57 58  2  0  0  0
 57143  1  0  0  0
 58144  1  0  0  0
 59 60  1  0  0  0
 59 61  1  0  0  0
 59 62  1  0  0  0
 60145  1  0  0  0
 60146  1  0  0  0
 60147  1  0  0  0
 61148  1  0  0  0
 61149  1  0  0  0
 61150  1  0  0  0
 62151  1  0  0  0
 62152  1  0  0  0
 62153  1  0  0  0
 63 65  1  0  0  0
 63154  1  0  0  0
 63155  1  0  0  0
 63156  1  0  0  0
 64157  1  0  0  0
 65158  1  0  0  0
 68 90  1  0  0  0
 71 72  2  0  0  0
 71 73  1  0  0  0
 71159  1  0  0  0
 72 74  1  0  0  0
 72160  1  0  0  0
 73 75  2  0  0  0
 73161  1  0  0  0
 74 76  2  0  0  0
 74162  1  0  0  0
 75 76  1  0  0  0
 75 77  1  0  0  0
 76 96  1  0  0  0
 77 78  2  0  0  0
 77163  1  0  0  0
 78 79  1  0  0  0
 78164  1  0  0  0
 79 80  2  0  0  0
 79165  1  0  0  0
 80166  1  0  0  0
 80 91  1  0  0  0
 81 85  1  0  0  0
 81 92  1  0  0  0
 81 97  2  0  0  0
 82 91  1  0  0  0
 82 93  1  0  0  0
 82 99  2  0  0  0
 83 94  1  0  0  0
 83 95  1  0  0  0
 83 98  2  0  0  0
 84 87  1  0  0  0
 84167  1  0  0  0
 84168  1  0  0  0
 84169  1  0  0  0
 85 86  1  0  0  0
 85170  1  0  0  0
 85171  1  0  0  0
 86 89  1  0  0  0
 86172  1  0  0  0
 86173  1  0  0  0
 87 96  1  0  0  0
 87174  1  0  0  0
 87175  1  0  0  0
 88 90  1  0  0  0
 88 95  1  0  0  0
 88176  1  0  0  0
 88177  1  0  0  0
 89 98  1  0  0  0
 89178  1  0  0  0
 89179  1  0  0  0
 90180  1  0  0  0
 90181  1  0  0  0
 91 97  1  0  0  0
 91182  1  0  0  0
 92183  1  0  0  0
 92184  1  0  0  0
 93185  1  0  0  0
 93186  1  0  0  0
 94187  1  0  0  0
 94188  1  0  0  0
 95189  1  0  0  0
 97190  1  0  0  0
 98191  1  0  0  0
M  CHG  2  97   1  98   1
M  ISO  4   1 100  68 101  90 101  96 100
M  END
> <chiral flag>
0

> <version>
0

> <s_m_source_file>
/data/baiqing/PycharmProjects/Reinvent-master-3.2/result/LINK_invent/BTK/process_docking_weight1_custom_sum_contain_oxygen_bond_distance_aromatic_linkinvent_7_9_3/rearranged_h_0004.sdf

> <i_m_source_file_index>
71

> <r_mmod_Potential_Energy-OPLS-2005>
4339.568359375

> <r_mmod_Stretch_Energy-OPLS-2005>
1176.05297851562

> <r_mmod_Bend_Energy-OPLS-2005>
1332.8603515625

> <r_mmod_Torsional_Energy-OPLS-2005>
551.200439453125

> <r_mmod_Improper_Torsional_Energy-OPLS-2005>
41.7479591369629

> <r_mmod_Van_der_Waal_Energy-OPLS-2005>
794.447204589844

> <r_mmod_Electrostatic_Energy-OPLS-2005>
-143.994735717773

> <r_mmod_Solvation_Energy-OPLS-2005>
-824.7255859375

> <b_mmod_Minimization_Converged-OPLS-2005>
0

> <r_mmod_RMS_Derivative-OPLS-2005>
3.85445642471313

$$$$
71
                    3D
 Structure written by MMmdl.
156164  0  0  1  0            999 V2000
  -30.6814  -14.5160   20.4667 C   0  0  0  0  0  0
  -30.4182  -12.3079   19.4271 C   0  0  0  0  0  0
  -29.4896  -12.4707   18.2058 C   0  0  0  0  0  0
  -28.0107  -12.3423   18.6244 C   0  0  0  0  0  0
  -27.6530  -13.2092   19.8621 C   0  0  2  0  0  0
  -28.7040  -13.0501   20.9847 C   0  0  0  0  0  0
  -25.2573  -13.8171   20.5716 C   0  0  0  0  0  0
  -24.1819  -13.0444   20.9214 C   0  0  0  0  0  0
  -24.6382  -11.6915   20.8771 C   0  0  0  0  0  0
  -23.9050  -10.4286   21.0402 C   0  0  0  0  0  0
  -24.3594   -9.4206   21.9184 C   0  0  0  0  0  0
  -23.6270   -8.2244   22.0754 C   0  0  0  0  0  0
  -22.4250   -8.0269   21.3549 C   0  0  0  0  0  0
  -21.9899   -9.0249   20.4655 C   0  0  0  0  0  0
  -22.7223  -10.2133   20.3063 C   0  0  0  0  0  0
  -21.6850   -6.0729   22.5286 C   0  0  0  0  0  0
  -21.4008   -6.5637   23.8221 C   0  0  0  0  0  0
  -21.3662   -5.6797   24.9189 C   0  0  0  0  0  0
  -21.6047   -4.3058   24.7234 C   0  0  0  0  0  0
  -21.8818   -3.8145   23.4353 C   0  0  0  0  0  0
  -21.9185   -4.6958   22.3406 C   0  0  0  0  0  0
  -22.7831  -13.5242   21.1842 C   0  0  0  0  0  0
  -22.1653   -4.2146   21.0983 F   0  0  0  0  0  0
  -21.5632   -3.4540   25.7749 F   0  0  0  0  0  0
  -30.0214  -13.3323   20.4027 N   0  0  0  0  0  0
  -26.2988  -12.9343   20.3381 N   0  0  0  0  0  0
  -25.9306  -11.6504   20.5812 N   0  0  0  0  0  0
  -22.0454  -12.8272   22.0393 N   0  0  0  0  0  0
  -25.4271  -15.1891   20.4092 N   0  0  0  0  0  0
  -31.8767  -14.6276   20.1966 O   0  0  0  0  0  0
  -21.6624   -6.8857   21.4237 O   0  0  0  0  0  0
  -22.3543  -14.5536   20.6672 O   0  0  0  0  0  0
  -24.6133  -31.8699   23.2123 C   0  0  0  0  0  0
  -25.9028  -32.4849   23.8416 C   0  0  1  0  0  0
  -27.2229  -27.4315   20.1029 C   0  0  0  0  0  0
  -25.5894  -33.8649   24.2352 N   0  0  0  0  0  0
  -23.4025  -30.4924   21.5530 C   0  0  2  0  0  0
  -24.8483  -28.9619   20.1102 C   0  0  0  0  0  0
  -22.7403  -29.4676   22.5017 C   0  0  0  0  0  0
  -18.0290  -28.1355   22.8470 C   0  0  0  0  0  0
  -24.1480  -36.7313   23.2645 C   0  0  0  0  0  0
  -25.9309  -30.8352   21.3656 C   0  0  0  0  0  0
  -26.0087  -29.4696   20.7099 C   0  0  0  0  0  0
  -27.2044  -28.7115   20.7013 C   0  0  0  0  0  0
  -26.0522  -26.9464   19.4806 C   0  0  0  0  0  0
  -24.8642  -27.6997   19.4925 C   0  0  0  0  0  0
  -23.6107  -29.8279   20.1655 C   0  0  0  0  0  0
  -25.4098  -36.3131   24.0357 C   0  0  1  0  0  0
  -20.5876  -28.3633   23.1291 C   0  0  2  0  0  0
  -20.6766  -26.9373   22.5310 C   0  0  0  0  0  0
  -19.5736  -26.6406   21.5118 C   0  0  0  0  0  0
  -18.1961  -26.7933   22.1563 C   0  0  0  0  0  0
  -19.1547  -28.8793   23.2921 C   0  0  0  0  0  0
  -18.9455  -30.1388   23.8960 C   0  0  0  0  0  0
  -17.6456  -30.6531   24.0591 C   0  0  0  0  0  0
  -25.9018  -34.9497   23.5149 C   0  0  0  0  0  0
  -16.5365  -29.9039   23.6319 C   0  0  0  0  0  0
  -16.7301  -28.6476   23.0315 C   0  0  0  0  0  0
  -26.4457  -31.6631   25.0745 C   0  0  0  0  0  0
  -25.3730  -31.3715   26.1495 C   0  0  0  0  0  0
  -27.0292  -30.3084   24.6117 C   0  0  0  0  0  0
  -27.6042  -32.4341   25.7502 C   0  0  0  0  0  0
  -27.5582  -37.1816   24.8473 C   0  0  0  0  0  0
  -21.4132  -29.3061   22.3741 N   0  0  0  0  0  0
  -26.4293  -37.3808   23.9426 N   0  0  0  0  0  0
  -24.6665  -31.0812   22.1016 N   0  0  0  0  0  0
  -23.4184  -28.8220   23.3049 O   0  0  0  0  0  0
  -28.3407  -26.6287   20.1524 O   0  0  0  0  0  0
  -26.5574  -34.8936   22.4702 O   0  0  0  0  0  0
  -23.5328  -32.1434   23.7527 O   0  0  0  0  0  0
  -28.1376  -19.1820   18.6306 C   0  0  0  0  0  0
  -28.3721  -20.3944   19.3089 C   0  0  0  0  0  0
  -28.4635  -17.9508   19.2300 C   0  0  0  0  0  0
  -29.2529  -19.1348   21.2043 C   0  0  0  0  0  0
  -28.9360  -20.3849   20.6006 C   0  0  0  0  0  0
  -29.0275  -17.9064   20.5255 C   0  0  0  0  0  0
  -29.2753  -21.7065   21.3087 C   0  0  0  0  0  0
  -29.3723  -16.5515   21.1720 C   0  0  0  0  0  0
  -28.2537  -22.8822   21.2019 C   0  0  0  0  0  0
  -28.6992  -24.1369   20.3930 C   0  0  0  0  0  0
  -28.1475  -25.4615   20.9812 C   0  0  0  0  0  0
  -29.9074  -15.5843   20.2055 N   0  0  0  0  0  0
  -31.4623  -12.3979   19.1237 H   0  0  0  0  0  0
  -30.3151  -11.3133   19.8609 H   0  0  0  0  0  0
  -29.7267  -11.7223   17.4464 H   0  0  0  0  0  0
  -29.6570  -13.4395   17.7347 H   0  0  0  0  0  0
  -27.8248  -11.2901   18.8462 H   0  0  0  0  0  0
  -27.3582  -12.5947   17.7893 H   0  0  0  0  0  0
  -27.6708  -14.2446   19.5241 H   0  0  0  0  0  0
  -28.6883  -12.0377   21.3923 H   0  0  0  0  0  0
  -28.4910  -13.7204   21.8169 H   0  0  0  0  0  0
  -25.2725   -9.5711   22.4771 H   0  0  0  0  0  0
  -23.9983   -7.4641   22.7492 H   0  0  0  0  0  0
  -21.0831   -8.8782   19.8949 H   0  0  0  0  0  0
  -22.3672  -10.9681   19.6184 H   0  0  0  0  0  0
  -21.2002   -7.6148   23.9735 H   0  0  0  0  0  0
  -21.1479   -6.0518   25.9099 H   0  0  0  0  0  0
  -22.0581   -2.7601   23.2867 H   0  0  0  0  0  0
  -22.4049  -11.9948   22.4849 H   0  0  0  0  0  0
  -21.1073  -13.1325   22.2543 H   0  0  0  0  0  0
  -24.6560  -15.8400   20.5145 H   0  0  0  0  0  0
  -26.2832  -15.6309   20.1012 H   0  0  0  0  0  0
  -26.7095  -32.5564   23.1177 H   0  0  0  0  0  0
  -25.0102  -33.9805   25.0537 H   0  0  0  0  0  0
  -22.6896  -31.3078   21.4171 H   0  0  0  0  0  0
  -23.3758  -35.9633   23.3320 H   0  0  0  0  0  0
  -24.3581  -36.8908   22.2058 H   0  0  0  0  0  0
  -23.7204  -37.6514   23.6632 H   0  0  0  0  0  0
  -26.0444  -31.6042   20.6005 H   0  0  0  0  0  0
  -26.8172  -30.8861   21.9865 H   0  0  0  0  0  0
  -28.0976  -29.0933   21.1774 H   0  0  0  0  0  0
  -26.0558  -25.9745   19.0060 H   0  0  0  0  0  0
  -23.9702  -27.3033   19.0280 H   0  0  0  0  0  0
  -23.7148  -30.6069   19.4091 H   0  0  0  0  0  0
  -22.7338  -29.2472   19.8720 H   0  0  0  0  0  0
  -25.1268  -36.2014   25.0854 H   0  0  0  0  0  0
  -21.0006  -28.3141   24.1382 H   0  0  0  0  0  0
  -21.6615  -26.7391   22.1092 H   0  0  0  0  0  0
  -20.5634  -26.2203   23.3462 H   0  0  0  0  0  0
  -19.6871  -25.6322   21.1126 H   0  0  0  0  0  0
  -19.6675  -27.3244   20.6647 H   0  0  0  0  0  0
  -17.4187  -26.6669   21.3997 H   0  0  0  0  0  0
  -18.0330  -26.0063   22.8960 H   0  0  0  0  0  0
  -19.7912  -30.7193   24.2383 H   0  0  0  0  0  0
  -17.5001  -31.6188   24.5258 H   0  0  0  0  0  0
  -15.5359  -30.2939   23.7629 H   0  0  0  0  0  0
  -15.8710  -28.0789   22.6985 H   0  0  0  0  0  0
  -24.5899  -30.7073   25.7823 H   0  0  0  0  0  0
  -24.8918  -32.2850   26.4991 H   0  0  0  0  0  0
  -25.8087  -30.8846   27.0229 H   0  0  0  0  0  0
  -26.2837  -29.6861   24.1164 H   0  0  0  0  0  0
  -27.4048  -29.7321   25.4587 H   0  0  0  0  0  0
  -27.8673  -30.4430   23.9282 H   0  0  0  0  0  0
  -27.2684  -33.3634   26.2113 H   0  0  0  0  0  0
  -28.3826  -32.6919   25.0307 H   0  0  0  0  0  0
  -28.0731  -31.8447   26.5385 H   0  0  0  0  0  0
  -28.2612  -38.0101   24.7517 H   0  0  0  0  0  0
  -28.1060  -36.2636   24.6297 H   0  0  0  0  0  0
  -27.2305  -37.1469   25.8877 H   0  0  0  0  0  0
  -20.9296  -29.8786   21.6967 H   0  0  0  0  0  0
  -26.0195  -38.2899   24.1412 H   0  0  0  0  0  0
  -27.7135  -19.1975   17.6364 H   0  0  0  0  0  0
  -28.1315  -21.3307   18.8229 H   0  0  0  0  0  0
  -28.2770  -17.0332   18.6860 H   0  0  0  0  0  0
  -29.7002  -19.1089   22.1897 H   0  0  0  0  0  0
  -30.2603  -22.0332   20.9763 H   0  0  0  0  0  0
  -29.4007  -21.4751   22.3666 H   0  0  0  0  0  0
  -28.4633  -16.1457   21.6229 H   0  0  0  0  0  0
  -30.0857  -16.6986   21.9846 H   0  0  0  0  0  0
  -27.2718  -22.5390   20.8730 H   0  0  0  0  0  0
  -28.0814  -23.2179   22.2265 H   0  0  0  0  0  0
  -28.3788  -24.0297   19.3560 H   0  0  0  0  0  0
  -29.7854  -24.2081   20.3660 H   0  0  0  0  0  0
  -28.6535  -25.6541   21.9274 H   0  0  0  0  0  0
  -27.0982  -25.3159   21.2437 H   0  0  0  0  0  0
  -30.3219  -16.0966   19.4398 H   0  0  0  0  0  0
  1 25  1  0  0  0
  1 30  2  0  0  0
  1 82  1  0  0  0
  2  3  1  0  0  0
  2 25  1  0  0  0
  2 83  1  0  0  0
  2 84  1  0  0  0
  3  4  1  0  0  0
  3 85  1  0  0  0
  3 86  1  0  0  0
  4  5  1  0  0  0
  4 87  1  0  0  0
  4 88  1  0  0  0
  5  6  1  0  0  0
  5 26  1  0  0  0
  5 89  1  0  0  0
  6 25  1  0  0  0
  6 90  1  0  0  0
  6 91  1  0  0  0
  7  8  2  0  0  0
  7 26  1  0  0  0
  7 29  1  0  0  0
  8  9  1  0  0  0
  8 22  1  0  0  0
  9 10  1  0  0  0
  9 27  2  0  0  0
 10 11  2  0  0  0
 10 15  1  0  0  0
 11 12  1  0  0  0
 11 92  1  0  0  0
 12 13  2  0  0  0
 12 93  1  0  0  0
 13 14  1  0  0  0
 13 31  1  0  0  0
 14 15  2  0  0  0
 14 94  1  0  0  0
 15 95  1  0  0  0
 16 17  2  0  0  0
 16 21  1  0  0  0
 16 31  1  0  0  0
 17 18  1  0  0  0
 17 96  1  0  0  0
 18 19  2  0  0  0
 18 97  1  0  0  0
 19 20  1  0  0  0
 19 24  1  0  0  0
 20 21  2  0  0  0
 20 98  1  0  0  0
 21 23  1  0  0  0
 22 28  1  0  0  0
 22 32  2  0  0  0
 26 27  1  0  0  0
 28 99  1  0  0  0
 28100  1  0  0  0
 29101  1  0  0  0
 29102  1  0  0  0
 33 34  1  0  0  0
 33 66  1  0  0  0
 33 70  2  0  0  0
 34 36  1  0  0  0
 34 59  1  0  0  0
 34103  1  0  0  0
 35 44  2  0  0  0
 35 45  1  0  0  0
 35 68  1  0  0  0
 36 56  1  0  0  0
 36104  1  0  0  0
 37 39  1  0  0  0
 37 47  1  0  0  0
 37 66  1  0  0  0
 37105  1  0  0  0
 38 43  2  0  0  0
 38 46  1  0  0  0
 38 47  1  0  0  0
 39 64  1  0  0  0
 39 67  2  0  0  0
 40 52  1  0  0  0
 40 53  2  0  0  0
 40 58  1  0  0  0
 41106  1  0  0  0
 41107  1  0  0  0
 41108  1  0  0  0
 41 48  1  0  0  0
 42 43  1  0  0  0
 42 66  1  0  0  0
 42109  1  0  0  0
 42110  1  0  0  0
 43 44  1  0  0  0
 44111  1  0  0  0
 45 46  2  0  0  0
 45112  1  0  0  0
 46113  1  0  0  0
 47114  1  0  0  0
 47115  1  0  0  0
 48 56  1  0  0  0
 48 65  1  0  0  0
 48116  1  0  0  0
 49 50  1  0  0  0
 49 53  1  0  0  0
 49 64  1  0  0  0
 49117  1  0  0  0
 50 51  1  0  0  0
 50118  1  0  0  0
 50119  1  0  0  0
 51 52  1  0  0  0
 51120  1  0  0  0
 51121  1  0  0  0
 52122  1  0  0  0
 52123  1  0  0  0
 53 54  1  0  0  0
 54 55  2  0  0  0
 54124  1  0  0  0
 55 57  1  0  0  0
 55125  1  0  0  0
 56 69  2  0  0  0
 57 58  2  0  0  0
 57126  1  0  0  0
 58127  1  0  0  0
 59 60  1  0  0  0
 59 61  1  0  0  0
 59 62  1  0  0  0
 60128  1  0  0  0
 60129  1  0  0  0
 60130  1  0  0  0
 61131  1  0  0  0
 61132  1  0  0  0
 61133  1  0  0  0
 62134  1  0  0  0
 62135  1  0  0  0
 62136  1  0  0  0
 63 65  1  0  0  0
 63137  1  0  0  0
 63138  1  0  0  0
 63139  1  0  0  0
 64140  1  0  0  0
 65141  1  0  0  0
 68 81  1  0  0  0
 71 72  2  0  0  0
 71 73  1  0  0  0
 71142  1  0  0  0
 72 75  1  0  0  0
 72143  1  0  0  0
 73 76  2  0  0  0
 73144  1  0  0  0
 74 75  2  0  0  0
 74 76  1  0  0  0
 74145  1  0  0  0
 75 77  1  0  0  0
 76 78  1  0  0  0
 77 79  1  0  0  0
 77146  1  0  0  0
 77147  1  0  0  0
 78 82  1  0  0  0
 78148  1  0  0  0
 78149  1  0  0  0
 79 80  1  0  0  0
 79150  1  0  0  0
 79151  1  0  0  0
 80 81  1  0  0  0
 80152  1  0  0  0
 80153  1  0  0  0
 81154  1  0  0  0
 81155  1  0  0  0
 82156  1  0  0  0
M  ISO  4   1 100  68 101  81 101  82 100
M  END
> <chiral flag>
0

> <version>
0

> <s_m_source_file>
/data/baiqing/PycharmProjects/Reinvent-master-3.2/result/LINK_invent/BTK/process_docking_weight1_custom_sum_contain_oxygen_bond_distance_aromatic_linkinvent_7_9_3/rearranged_h_0004.sdf

> <i_m_source_file_index>
72

> <r_mmod_Potential_Energy-OPLS-2005>
31.4808254241943

> <r_mmod_Stretch_Energy-OPLS-2005>
38.7733764648438

> <r_mmod_Bend_Energy-OPLS-2005>
105.516593933105

> <r_mmod_Torsional_Energy-OPLS-2005>
307.654144287109

> <r_mmod_Improper_Torsional_Energy-OPLS-2005>
26.6333560943604

> <r_mmod_Van_der_Waal_Energy-OPLS-2005>
141.770629882812

> <r_mmod_Electrostatic_Energy-OPLS-2005>
-419.090911865234

> <r_mmod_Solvation_Energy-OPLS-2005>
-194.85400390625

> <b_mmod_Minimization_Converged-OPLS-2005>
0

> <r_mmod_RMS_Derivative-OPLS-2005>
4.26563215255737

$$$$
72
                    3D
 Structure written by MMmdl.
158166  0  0  1  0            999 V2000
  -30.6337  -14.5416   20.5902 C   0  0  0  0  0  0
  -30.4510  -12.3550   19.4205 C   0  0  0  0  0  0
  -29.5040  -12.5201   18.2105 C   0  0  0  0  0  0
  -28.0260  -12.3619   18.6250 C   0  0  0  0  0  0
  -27.6682  -13.1970   19.8820 C   0  0  2  0  0  0
  -28.7116  -12.9547   20.9957 C   0  0  0  0  0  0
  -25.2629  -13.8134   20.5680 C   0  0  0  0  0  0
  -24.1858  -13.0431   20.9153 C   0  0  0  0  0  0
  -24.6396  -11.6892   20.8728 C   0  0  0  0  0  0
  -23.9054  -10.4289   21.0406 C   0  0  0  0  0  0
  -24.3607   -9.4206   21.9186 C   0  0  0  0  0  0
  -23.6282   -8.2244   22.0761 C   0  0  0  0  0  0
  -22.4265   -8.0283   21.3549 C   0  0  0  0  0  0
  -21.9901   -9.0254   20.4650 C   0  0  0  0  0  0
  -22.7226  -10.2135   20.3057 C   0  0  0  0  0  0
  -21.6849   -6.0734   22.5276 C   0  0  0  0  0  0
  -21.4010   -6.5637   23.8209 C   0  0  0  0  0  0
  -21.3663   -5.6791   24.9172 C   0  0  0  0  0  0
  -21.6044   -4.3054   24.7221 C   0  0  0  0  0  0
  -21.8818   -3.8147   23.4342 C   0  0  0  0  0  0
  -21.9189   -4.6963   22.3400 C   0  0  0  0  0  0
  -22.7882  -13.5247   21.1812 C   0  0  0  0  0  0
  -22.1658   -4.2150   21.0978 F   0  0  0  0  0  0
  -21.5635   -3.4540   25.7736 F   0  0  0  0  0  0
  -30.0391  -13.3180   20.4561 N   0  0  0  0  0  0
  -26.3063  -12.9280   20.3396 N   0  0  0  0  0  0
  -25.9326  -11.6450   20.5775 N   0  0  0  0  0  0
  -22.0512  -12.8259   22.0377 N   0  0  0  0  0  0
  -25.4363  -15.1854   20.4115 N   0  0  0  0  0  0
  -31.7241  -14.8166   20.0774 O   0  0  0  0  0  0
  -21.6632   -6.8879   21.4241 O   0  0  0  0  0  0
  -22.3576  -14.5557   20.6661 O   0  0  0  0  0  0
  -24.6210  -31.8636   23.2073 C   0  0  0  0  0  0
  -25.9086  -32.4789   23.8381 C   0  0  1  0  0  0
  -27.2334  -27.3763   20.0908 C   0  0  0  0  0  0
  -25.5923  -33.8587   24.2308 N   0  0  0  0  0  0
  -23.4114  -30.4882   21.5498 C   0  0  2  0  0  0
  -24.8569  -28.9518   20.1131 C   0  0  0  0  0  0
  -22.7451  -29.4640   22.4970 C   0  0  0  0  0  0
  -18.0289  -28.1373   22.8469 C   0  0  0  0  0  0
  -24.1490  -36.7307   23.2636 C   0  0  0  0  0  0
  -25.9479  -30.8096   21.3717 C   0  0  0  0  0  0
  -26.0231  -29.4414   20.7140 C   0  0  0  0  0  0
  -27.2116  -28.6625   20.6997 C   0  0  0  0  0  0
  -26.0408  -26.9265   19.4729 C   0  0  0  0  0  0
  -24.8640  -27.6950   19.4906 C   0  0  0  0  0  0
  -23.6221  -29.8243   20.1636 C   0  0  0  0  0  0
  -25.4107  -36.3085   24.0330 C   0  0  1  0  0  0
  -20.5879  -28.3673   23.1290 C   0  0  2  0  0  0
  -20.6778  -26.9401   22.5400 C   0  0  0  0  0  0
  -19.5754  -26.6378   21.5197 C   0  0  0  0  0  0
  -18.1932  -26.7912   22.1610 C   0  0  0  0  0  0
  -19.1536  -28.8840   23.2871 C   0  0  0  0  0  0
  -18.9461  -30.1443   23.8879 C   0  0  0  0  0  0
  -17.6461  -30.6570   24.0558 C   0  0  0  0  0  0
  -25.9042  -34.9452   23.5114 C   0  0  0  0  0  0
  -16.5353  -29.9068   23.6320 C   0  0  0  0  0  0
  -16.7272  -28.6493   23.0326 C   0  0  0  0  0  0
  -26.4491  -31.6589   25.0734 C   0  0  0  0  0  0
  -25.3739  -31.3713   26.1473 C   0  0  0  0  0  0
  -27.0336  -30.3021   24.6160 C   0  0  0  0  0  0
  -27.6059  -32.4324   25.7500 C   0  0  0  0  0  0
  -27.5578  -37.1805   24.8461 C   0  0  0  0  0  0
  -21.4171  -29.3036   22.3702 N   0  0  0  0  0  0
  -26.4290  -37.3772   23.9403 N   0  0  0  0  0  0
  -24.6786  -31.0692   22.1001 N   0  0  0  0  0  0
  -23.4193  -28.8173   23.3026 O   0  0  0  0  0  0
  -28.3850  -26.5863   20.1220 O   0  0  0  0  0  0
  -26.5596  -34.8909   22.4674 O   0  0  0  0  0  0
  -23.5390  -32.1429   23.7433 O   0  0  0  0  0  0
  -29.4757  -19.5883   22.1099 C   0  0  0  0  0  0
  -29.1870  -18.5997   23.0648 C   0  0  0  0  0  0
  -30.1970  -17.8551   20.5461 C   0  0  0  0  0  0
  -29.9653  -19.2406   20.8339 C   0  0  0  0  0  0
  -29.8922  -16.8449   21.5103 C   0  0  0  0  0  0
  -29.3648  -17.2279   22.7666 C   0  0  0  0  0  0
  -29.2854  -22.7386   19.6767 C   0  0  0  0  0  0
  -28.3351  -16.5530   24.8364 C   0  0  0  0  0  0
  -30.1877  -20.3507   19.7774 C   0  0  0  0  0  0
  -29.4274  -24.2132   20.1765 C   0  0  0  0  0  0
  -28.2551  -25.1744   19.7699 C   0  0  0  0  0  0
  -29.8893  -15.4228   21.2932 N   0  0  0  0  0  0
  -30.0556  -21.7665   20.2268 N   0  0  0  0  0  0
  -28.4956  -22.4823   18.7656 O   0  0  0  0  0  0
  -29.0248  -16.2127   23.6403 O   0  0  0  0  0  0
  -31.4869  -12.5061   19.1118 H   0  0  0  0  0  0
  -30.4033  -11.3376   19.8122 H   0  0  0  0  0  0
  -29.7538  -11.7937   17.4361 H   0  0  0  0  0  0
  -29.6527  -13.5042   17.7637 H   0  0  0  0  0  0
  -27.8478  -11.3045   18.8239 H   0  0  0  0  0  0
  -27.3711  -12.6288   17.7949 H   0  0  0  0  0  0
  -27.7178  -14.2469   19.5936 H   0  0  0  0  0  0
  -28.7117  -11.9036   21.2891 H   0  0  0  0  0  0
  -28.4466  -13.4957   21.9050 H   0  0  0  0  0  0
  -25.2754   -9.5681   22.4758 H   0  0  0  0  0  0
  -23.9986   -7.4640   22.7492 H   0  0  0  0  0  0
  -21.0826   -8.8773   19.8960 H   0  0  0  0  0  0
  -22.3682  -10.9675   19.6169 H   0  0  0  0  0  0
  -21.1999   -7.6143   23.9712 H   0  0  0  0  0  0
  -21.1491   -6.0522   25.9075 H   0  0  0  0  0  0
  -22.0595   -2.7608   23.2840 H   0  0  0  0  0  0
  -22.4107  -11.9907   22.4756 H   0  0  0  0  0  0
  -21.1148  -13.1328   22.2604 H   0  0  0  0  0  0
  -24.6719  -15.8423   20.5251 H   0  0  0  0  0  0
  -26.2982  -15.6288   20.1197 H   0  0  0  0  0  0
  -26.7156  -32.5479   23.1139 H   0  0  0  0  0  0
  -25.0074  -33.9741   25.0457 H   0  0  0  0  0  0
  -22.7020  -31.3067   21.4103 H   0  0  0  0  0  0
  -23.3733  -35.9659   23.3299 H   0  0  0  0  0  0
  -24.3592  -36.8931   22.2053 H   0  0  0  0  0  0
  -23.7275  -37.6524   23.6659 H   0  0  0  0  0  0
  -26.0714  -31.5756   20.6050 H   0  0  0  0  0  0
  -26.8310  -30.8595   21.9967 H   0  0  0  0  0  0
  -28.1084  -29.0354   21.1752 H   0  0  0  0  0  0
  -25.9858  -25.9736   18.9678 H   0  0  0  0  0  0
  -23.9697  -27.3131   19.0176 H   0  0  0  0  0  0
  -23.7351  -30.6018   19.4067 H   0  0  0  0  0  0
  -22.7431  -29.2508   19.8626 H   0  0  0  0  0  0
  -25.1290  -36.1939   25.0824 H   0  0  0  0  0  0
  -20.9963  -28.3240   24.1417 H   0  0  0  0  0  0
  -20.5677  -26.2280   23.3592 H   0  0  0  0  0  0
  -21.6650  -26.7432   22.1195 H   0  0  0  0  0  0
  -19.6910  -25.6289   21.1228 H   0  0  0  0  0  0
  -19.6694  -27.3187   20.6721 H   0  0  0  0  0  0
  -17.4201  -26.6651   21.4017 H   0  0  0  0  0  0
  -18.0339  -26.0056   22.9007 H   0  0  0  0  0  0
  -19.7939  -30.7259   24.2247 H   0  0  0  0  0  0
  -17.5015  -31.6249   24.5165 H   0  0  0  0  0  0
  -15.5352  -30.2959   23.7655 H   0  0  0  0  0  0
  -15.8677  -28.0818   22.7019 H   0  0  0  0  0  0
  -24.5911  -30.7060   25.7817 H   0  0  0  0  0  0
  -24.8920  -32.2866   26.4912 H   0  0  0  0  0  0
  -25.8072  -30.8890   27.0243 H   0  0  0  0  0  0
  -26.2903  -29.6769   24.1198 H   0  0  0  0  0  0
  -27.4073  -29.7277   25.4652 H   0  0  0  0  0  0
  -27.8751  -30.4327   23.9350 H   0  0  0  0  0  0
  -27.2678  -33.3626   26.2080 H   0  0  0  0  0  0
  -28.3861  -32.6887   25.0317 H   0  0  0  0  0  0
  -28.0733  -31.8449   26.5415 H   0  0  0  0  0  0
  -28.2585  -38.0107   24.7499 H   0  0  0  0  0  0
  -28.1084  -36.2640   24.6291 H   0  0  0  0  0  0
  -27.2298  -37.1462   25.8863 H   0  0  0  0  0  0
  -20.9345  -29.8776   21.6934 H   0  0  0  0  0  0
  -26.0169  -38.2847   24.1396 H   0  0  0  0  0  0
  -29.2862  -20.6208   22.3674 H   0  0  0  0  0  0
  -28.7953  -18.9264   24.0164 H   0  0  0  0  0  0
  -30.5535  -17.5675   19.5669 H   0  0  0  0  0  0
  -27.4081  -17.0892   24.6271 H   0  0  0  0  0  0
  -28.9572  -17.1535   25.5012 H   0  0  0  0  0  0
  -28.0706  -15.6403   25.3701 H   0  0  0  0  0  0
  -29.5089  -20.1526   18.9464 H   0  0  0  0  0  0
  -31.1928  -20.2309   19.3703 H   0  0  0  0  0  0
  -30.3649  -24.6060   19.7821 H   0  0  0  0  0  0
  -29.5263  -24.2082   21.2615 H   0  0  0  0  0  0
  -27.3565  -24.7712   20.2392 H   0  0  0  0  0  0
  -28.1083  -25.1153   18.6900 H   0  0  0  0  0  0
  -29.1587  -14.9610   21.8128 H   0  0  0  0  0  0
  -30.6860  -22.0485   20.9648 H   0  0  0  0  0  0
  1 25  1  0  0  0
  1 30  2  0  0  0
  1 82  1  0  0  0
  2  3  1  0  0  0
  2 25  1  0  0  0
  2 86  1  0  0  0
  2 87  1  0  0  0
  3  4  1  0  0  0
  3 88  1  0  0  0
  3 89  1  0  0  0
  4  5  1  0  0  0
  4 90  1  0  0  0
  4 91  1  0  0  0
  5  6  1  0  0  0
  5 26  1  0  0  0
  5 92  1  0  0  0
  6 25  1  0  0  0
  6 93  1  0  0  0
  6 94  1  0  0  0
  7  8  2  0  0  0
  7 26  1  0  0  0
  7 29  1  0  0  0
  8  9  1  0  0  0
  8 22  1  0  0  0
  9 10  1  0  0  0
  9 27  2  0  0  0
 10 11  2  0  0  0
 10 15  1  0  0  0
 11 12  1  0  0  0
 11 95  1  0  0  0
 12 13  2  0  0  0
 12 96  1  0  0  0
 13 14  1  0  0  0
 13 31  1  0  0  0
 14 15  2  0  0  0
 14 97  1  0  0  0
 15 98  1  0  0  0
 16 17  2  0  0  0
 16 21  1  0  0  0
 16 31  1  0  0  0
 17 18  1  0  0  0
 17 99  1  0  0  0
 18 19  2  0  0  0
 18100  1  0  0  0
 19 20  1  0  0  0
 19 24  1  0  0  0
 20 21  2  0  0  0
 20101  1  0  0  0
 21 23  1  0  0  0
 22 28  1  0  0  0
 22 32  2  0  0  0
 26 27  1  0  0  0
 28102  1  0  0  0
 28103  1  0  0  0
 29104  1  0  0  0
 29105  1  0  0  0
 33 34  1  0  0  0
 33 66  1  0  0  0
 33 70  2  0  0  0
 34 36  1  0  0  0
 34 59  1  0  0  0
 34106  1  0  0  0
 35 44  2  0  0  0
 35 45  1  0  0  0
 35 68  1  0  0  0
 36 56  1  0  0  0
 36107  1  0  0  0
 37 39  1  0  0  0
 37 47  1  0  0  0
 37 66  1  0  0  0
 37108  1  0  0  0
 38 43  2  0  0  0
 38 46  1  0  0  0
 38 47  1  0  0  0
 39 64  1  0  0  0
 39 67  2  0  0  0
 40 52  1  0  0  0
 40 53  2  0  0  0
 40 58  1  0  0  0
 41109  1  0  0  0
 41110  1  0  0  0
 41111  1  0  0  0
 41 48  1  0  0  0
 42 43  1  0  0  0
 42 66  1  0  0  0
 42112  1  0  0  0
 42113  1  0  0  0
 43 44  1  0  0  0
 44114  1  0  0  0
 45 46  2  0  0  0
 45115  1  0  0  0
 46116  1  0  0  0
 47117  1  0  0  0
 47118  1  0  0  0
 48 56  1  0  0  0
 48 65  1  0  0  0
 48119  1  0  0  0
 49 50  1  0  0  0
 49 53  1  0  0  0
 49 64  1  0  0  0
 49120  1  0  0  0
 50 51  1  0  0  0
 50121  1  0  0  0
 50122  1  0  0  0
 51 52  1  0  0  0
 51123  1  0  0  0
 51124  1  0  0  0
 52125  1  0  0  0
 52126  1  0  0  0
 53 54  1  0  0  0
 54 55  2  0  0  0
 54127  1  0  0  0
 55 57  1  0  0  0
 55128  1  0  0  0
 56 69  2  0  0  0
 57 58  2  0  0  0
 57129  1  0  0  0
 58130  1  0  0  0
 59 60  1  0  0  0
 59 61  1  0  0  0
 59 62  1  0  0  0
 60131  1  0  0  0
 60132  1  0  0  0
 60133  1  0  0  0
 61134  1  0  0  0
 61135  1  0  0  0
 61136  1  0  0  0
 62137  1  0  0  0
 62138  1  0  0  0
 62139  1  0  0  0
 63 65  1  0  0  0
 63140  1  0  0  0
 63141  1  0  0  0
 63142  1  0  0  0
 64143  1  0  0  0
 65144  1  0  0  0
 68 81  1  0  0  0
 71 72  2  0  0  0
 71 74  1  0  0  0
 71145  1  0  0  0
 72 76  1  0  0  0
 72146  1  0  0  0
 73 74  2  0  0  0
 73 75  1  0  0  0
 73147  1  0  0  0
 74 79  1  0  0  0
 75 76  2  0  0  0
 75 82  1  0  0  0
 76 85  1  0  0  0
 77 80  1  0  0  0
 77 83  1  0  0  0
 77 84  2  0  0  0
 78 85  1  0  0  0
 78148  1  0  0  0
 78149  1  0  0  0
 78150  1  0  0  0
 79 83  1  0  0  0
 79151  1  0  0  0
 79152  1  0  0  0
 80 81  1  0  0  0
 80153  1  0  0  0
 80154  1  0  0  0
 81155  1  0  0  0
 81156  1  0  0  0
 82157  1  0  0  0
 83158  1  0  0  0
M  ISO  4   1 100  68 101  81 101  82 100
M  END
> <chiral flag>
0

> <version>
0

> <s_m_source_file>
/data/baiqing/PycharmProjects/Reinvent-master-3.2/result/LINK_invent/BTK/process_docking_weight1_custom_sum_contain_oxygen_bond_distance_aromatic_linkinvent_7_9_3/rearranged_h_0004.sdf

> <i_m_source_file_index>
73

> <r_mmod_Potential_Energy-OPLS-2005>
-140.270156860352

> <r_mmod_Stretch_Energy-OPLS-2005>
55.6336326599121

> <r_mmod_Bend_Energy-OPLS-2005>
135.526885986328

> <r_mmod_Torsional_Energy-OPLS-2005>
206.565979003906

> <r_mmod_Improper_Torsional_Energy-OPLS-2005>
3.26148366928101

> <r_mmod_Van_der_Waal_Energy-OPLS-2005>
162.674880981445

> <r_mmod_Electrostatic_Energy-OPLS-2005>
-493.030212402344

> <r_mmod_Solvation_Energy-OPLS-2005>
-235.981094360352

> <b_mmod_Minimization_Converged-OPLS-2005>
0

> <r_mmod_RMS_Derivative-OPLS-2005>
1.16216766834259

$$$$
73
                    3D
 Structure written by MMmdl.
158166  0  0  1  0            999 V2000
  -30.5521  -15.0159   20.3845 C   0  0  0  0  0  0
  -30.4305  -12.6368   19.4943 C   0  0  0  0  0  0
  -29.5145  -12.5369   18.2542 C   0  0  0  0  0  0
  -28.0507  -12.3163   18.6757 C   0  0  0  0  0  0
  -27.6192  -13.2610   19.8281 C   0  0  2  0  0  0
  -28.6656  -13.3389   20.9583 C   0  0  0  0  0  0
  -25.2412  -13.8244   20.5729 C   0  0  0  0  0  0
  -24.1748  -13.0445   20.9248 C   0  0  0  0  0  0
  -24.6389  -11.6937   20.8763 C   0  0  0  0  0  0
  -23.9077  -10.4297   21.0408 C   0  0  0  0  0  0
  -24.3629   -9.4211   21.9182 C   0  0  0  0  0  0
  -23.6300   -8.2247   22.0751 C   0  0  0  0  0  0
  -22.4282   -8.0282   21.3543 C   0  0  0  0  0  0
  -21.9920   -9.0255   20.4642 C   0  0  0  0  0  0
  -22.7253  -10.2135   20.3051 C   0  0  0  0  0  0
  -21.6855   -6.0734   22.5276 C   0  0  0  0  0  0
  -21.4025   -6.5637   23.8212 C   0  0  0  0  0  0
  -21.3673   -5.6788   24.9173 C   0  0  0  0  0  0
  -21.6046   -4.3048   24.7223 C   0  0  0  0  0  0
  -21.8818   -3.8142   23.4342 C   0  0  0  0  0  0
  -21.9194   -4.6961   22.3399 C   0  0  0  0  0  0
  -22.7765  -13.5198   21.1899 C   0  0  0  0  0  0
  -22.1656   -4.2146   21.0975 F   0  0  0  0  0  0
  -21.5636   -3.4532   25.7735 F   0  0  0  0  0  0
  -29.9265  -13.7643   20.3373 N   0  0  0  0  0  0
  -26.2838  -12.9497   20.3233 N   0  0  0  0  0  0
  -25.9320  -11.6614   20.5738 N   0  0  0  0  0  0
  -22.0417  -12.8186   22.0454 N   0  0  0  0  0  0
  -25.4040  -15.1981   20.4159 N   0  0  0  0  0  0
  -31.7758  -14.9736   20.2548 O   0  0  0  0  0  0
  -21.6647   -6.8877   21.4237 O   0  0  0  0  0  0
  -22.3441  -14.5500   20.6738 O   0  0  0  0  0  0
  -24.6493  -31.8398   23.1844 C   0  0  0  0  0  0
  -25.9238  -32.4675   23.8253 C   0  0  1  0  0  0
  -27.2076  -27.0786   20.1640 C   0  0  0  0  0  0
  -25.5960  -33.8483   24.2163 N   0  0  0  0  0  0
  -23.4546  -30.4587   21.5317 C   0  0  2  0  0  0
  -24.9020  -28.8758   20.1132 C   0  0  0  0  0  0
  -22.7597  -29.4527   22.4846 C   0  0  0  0  0  0
  -18.0306  -28.1400   22.8467 C   0  0  0  0  0  0
  -24.1489  -36.7248   23.2642 C   0  0  0  0  0  0
  -26.0156  -30.6962   21.3904 C   0  0  0  0  0  0
  -26.0836  -29.3018   20.7331 C   0  0  0  0  0  0
  -27.2378  -28.4217   20.7368 C   0  0  0  0  0  0
  -25.9976  -26.7690   19.5048 C   0  0  0  0  0  0
  -24.8755  -27.6246   19.4821 C   0  0  0  0  0  0
  -23.6835  -29.7870   20.1523 C   0  0  0  0  0  0
  -25.4123  -36.3022   24.0312 C   0  0  1  0  0  0
  -20.5926  -28.3731   23.1226 C   0  0  2  0  0  0
  -20.6791  -26.9429   22.5405 C   0  0  0  0  0  0
  -19.5765  -26.6379   21.5214 C   0  0  0  0  0  0
  -18.1946  -26.7933   22.1622 C   0  0  0  0  0  0
  -19.1566  -28.8882   23.2835 C   0  0  0  0  0  0
  -18.9481  -30.1476   23.8865 C   0  0  0  0  0  0
  -17.6478  -30.6593   24.0559 C   0  0  0  0  0  0
  -25.9080  -34.9401   23.5049 C   0  0  0  0  0  0
  -16.5369  -29.9083   23.6342 C   0  0  0  0  0  0
  -16.7292  -28.6507   23.0353 C   0  0  0  0  0  0
  -26.4520  -31.6565   25.0725 C   0  0  0  0  0  0
  -25.3678  -31.3781   26.1406 C   0  0  0  0  0  0
  -27.0389  -30.2950   24.6356 C   0  0  0  0  0  0
  -27.6038  -32.4340   25.7520 C   0  0  0  0  0  0
  -27.5578  -37.1779   24.8460 C   0  0  0  0  0  0
  -21.4284  -29.3047   22.3595 N   0  0  0  0  0  0
  -26.4277  -37.3747   23.9416 N   0  0  0  0  0  0
  -24.7272  -31.0208   22.0902 N   0  0  0  0  0  0
  -23.4218  -28.8079   23.3020 O   0  0  0  0  0  0
  -28.2451  -26.0593   20.2204 O   0  0  0  0  0  0
  -26.5682  -34.8910   22.4638 O   0  0  0  0  0  0
  -23.5601  -32.1294   23.7035 O   0  0  0  0  0  0
  -31.6055  -19.6281   19.2890 C   0  0  0  0  0  0
  -30.7479  -20.6784   19.6574 C   0  0  0  0  0  0
  -29.2213  -18.9670   20.4338 C   0  0  0  0  0  0
  -31.3093  -18.2473   19.4318 C   0  0  0  0  0  0
  -30.1183  -17.7931   20.1101 C   0  0  0  0  0  0
  -29.4771  -20.4367   20.1985 C   0  0  0  0  0  0
  -32.3140  -17.3572   18.7575 C   0  0  0  0  0  0
  -31.8575  -15.1057   15.7956 C   0  0  0  0  0  0
  -32.6697  -15.7377   16.9292 C   0  0  0  0  0  0
  -27.9369  -24.5040   20.2430 C   0  0  0  0  0  0
  -28.9781  -23.1389   20.2307 C   0  0  0  0  0  0
  -29.8202  -16.2671   20.3840 N   0  0  0  0  0  0
  -31.8494  -16.6387   17.7281 N   0  0  0  0  0  0
  -33.5040  -17.3821   19.0837 O   0  0  0  0  0  0
  -28.6112  -21.6164   20.4315 O   0  0  0  0  0  0
  -31.4617  -12.7928   19.1728 H   0  0  0  0  0  0
  -30.4323  -11.7007   20.0555 H   0  0  0  0  0  0
  -29.8450  -11.7312   17.5976 H   0  0  0  0  0  0
  -29.5855  -13.4574   17.6742 H   0  0  0  0  0  0
  -27.9522  -11.2781   18.9924 H   0  0  0  0  0  0
  -27.3868  -12.4366   17.8190 H   0  0  0  0  0  0
  -27.5643  -14.2531   19.3793 H   0  0  0  0  0  0
  -28.7744  -12.3785   21.4644 H   0  0  0  0  0  0
  -28.3578  -14.0600   21.7169 H   0  0  0  0  0  0
  -25.2770   -9.5689   22.4759 H   0  0  0  0  0  0
  -24.0010   -7.4638   22.7472 H   0  0  0  0  0  0
  -21.0852   -8.8775   19.8942 H   0  0  0  0  0  0
  -22.3711  -10.9673   19.6160 H   0  0  0  0  0  0
  -21.2019   -7.6145   23.9718 H   0  0  0  0  0  0
  -21.1500   -6.0514   25.9078 H   0  0  0  0  0  0
  -22.0586   -2.7602   23.2838 H   0  0  0  0  0  0
  -22.4049  -11.9860   22.4857 H   0  0  0  0  0  0
  -21.1028  -13.1195   22.2659 H   0  0  0  0  0  0
  -24.6314  -15.8456   20.5285 H   0  0  0  0  0  0
  -26.2421  -15.6419   20.0639 H   0  0  0  0  0  0
  -26.7311  -32.5258   23.0987 H   0  0  0  0  0  0
  -25.0051  -33.9582   25.0271 H   0  0  0  0  0  0
  -22.7600  -31.2864   21.3748 H   0  0  0  0  0  0
  -23.3766  -35.9563   23.3270 H   0  0  0  0  0  0
  -24.3580  -36.8919   22.2065 H   0  0  0  0  0  0
  -23.7226  -37.6423   23.6707 H   0  0  0  0  0  0
  -26.1784  -31.4470   20.6158 H   0  0  0  0  0  0
  -26.8835  -30.7470   22.0361 H   0  0  0  0  0  0
  -28.1369  -28.7440   21.2422 H   0  0  0  0  0  0
  -25.8767  -25.8184   19.0104 H   0  0  0  0  0  0
  -23.9739  -27.2920   18.9863 H   0  0  0  0  0  0
  -23.8307  -30.5609   19.3985 H   0  0  0  0  0  0
  -22.7952  -29.2364   19.8372 H   0  0  0  0  0  0
  -25.1314  -36.1835   25.0804 H   0  0  0  0  0  0
  -21.0009  -28.3323   24.1352 H   0  0  0  0  0  0
  -20.5687  -26.2347   23.3631 H   0  0  0  0  0  0
  -21.6657  -26.7431   22.1206 H   0  0  0  0  0  0
  -19.6929  -25.6279   21.1269 H   0  0  0  0  0  0
  -19.6703  -27.3171   20.6731 H   0  0  0  0  0  0
  -17.4217  -26.6673   21.4026 H   0  0  0  0  0  0
  -18.0340  -26.0085   22.9031 H   0  0  0  0  0  0
  -19.7959  -30.7302   24.2221 H   0  0  0  0  0  0
  -17.5032  -31.6272   24.5164 H   0  0  0  0  0  0
  -15.5368  -30.2977   23.7688 H   0  0  0  0  0  0
  -15.8689  -28.0821   22.7081 H   0  0  0  0  0  0
  -24.5853  -30.7136   25.7726 H   0  0  0  0  0  0
  -24.8870  -32.2972   26.4766 H   0  0  0  0  0  0
  -25.7933  -30.8992   27.0233 H   0  0  0  0  0  0
  -26.3023  -29.6662   24.1343 H   0  0  0  0  0  0
  -27.3946  -29.7273   25.4964 H   0  0  0  0  0  0
  -27.8953  -30.4167   23.9721 H   0  0  0  0  0  0
  -27.2614  -33.3653   26.2045 H   0  0  0  0  0  0
  -28.3876  -32.6879   25.0371 H   0  0  0  0  0  0
  -28.0671  -31.8499   26.5482 H   0  0  0  0  0  0
  -28.2566  -38.0104   24.7544 H   0  0  0  0  0  0
  -28.1101  -36.2639   24.6232 H   0  0  0  0  0  0
  -27.2308  -37.1363   25.8863 H   0  0  0  0  0  0
  -20.9510  -29.8751   21.6755 H   0  0  0  0  0  0
  -26.0138  -38.2806   24.1435 H   0  0  0  0  0  0
  -32.5350  -19.9086   18.8111 H   0  0  0  0  0  0
  -31.0829  -21.6861   19.4664 H   0  0  0  0  0  0
  -28.2704  -18.7258   20.8866 H   0  0  0  0  0  0
  -32.4804  -14.4262   15.2133 H   0  0  0  0  0  0
  -31.4662  -15.8618   15.1133 H   0  0  0  0  0  0
  -31.0178  -14.5283   16.1805 H   0  0  0  0  0  0
  -33.5183  -16.2855   16.5165 H   0  0  0  0  0  0
  -33.0788  -14.9566   17.5729 H   0  0  0  0  0  0
  -27.3080  -24.3751   21.1241 H   0  0  0  0  0  0
  -27.2735  -24.3132   19.4024 H   0  0  0  0  0  0
  -29.7420  -23.3373   20.9829 H   0  0  0  0  0  0
  -29.5004  -23.1974   19.2770 H   0  0  0  0  0  0
  -28.8466  -16.0965   20.5872 H   0  0  0  0  0  0
  -30.8678  -16.7231   17.5051 H   0  0  0  0  0  0
  1 25  1  0  0  0
  1 30  2  0  0  0
  1 82  1  0  0  0
  2  3  1  0  0  0
  2 25  1  0  0  0
  2 86  1  0  0  0
  2 87  1  0  0  0
  3  4  1  0  0  0
  3 88  1  0  0  0
  3 89  1  0  0  0
  4  5  1  0  0  0
  4 90  1  0  0  0
  4 91  1  0  0  0
  5  6  1  0  0  0
  5 26  1  0  0  0
  5 92  1  0  0  0
  6 25  1  0  0  0
  6 93  1  0  0  0
  6 94  1  0  0  0
  7  8  2  0  0  0
  7 26  1  0  0  0
  7 29  1  0  0  0
  8  9  1  0  0  0
  8 22  1  0  0  0
  9 10  1  0  0  0
  9 27  2  0  0  0
 10 11  2  0  0  0
 10 15  1  0  0  0
 11 12  1  0  0  0
 11 95  1  0  0  0
 12 13  2  0  0  0
 12 96  1  0  0  0
 13 14  1  0  0  0
 13 31  1  0  0  0
 14 15  2  0  0  0
 14 97  1  0  0  0
 15 98  1  0  0  0
 16 17  2  0  0  0
 16 21  1  0  0  0
 16 31  1  0  0  0
 17 18  1  0  0  0
 17 99  1  0  0  0
 18 19  2  0  0  0
 18100  1  0  0  0
 19 20  1  0  0  0
 19 24  1  0  0  0
 20 21  2  0  0  0
 20101  1  0  0  0
 21 23  1  0  0  0
 22 28  1  0  0  0
 22 32  2  0  0  0
 26 27  1  0  0  0
 28102  1  0  0  0
 28103  1  0  0  0
 29104  1  0  0  0
 29105  1  0  0  0
 33 34  1  0  0  0
 33 66  1  0  0  0
 33 70  2  0  0  0
 34 36  1  0  0  0
 34 59  1  0  0  0
 34106  1  0  0  0
 35 44  2  0  0  0
 35 45  1  0  0  0
 35 68  1  0  0  0
 36 56  1  0  0  0
 36107  1  0  0  0
 37 39  1  0  0  0
 37 47  1  0  0  0
 37 66  1  0  0  0
 37108  1  0  0  0
 38 43  2  0  0  0
 38 46  1  0  0  0
 38 47  1  0  0  0
 39 64  1  0  0  0
 39 67  2  0  0  0
 40 52  1  0  0  0
 40 53  2  0  0  0
 40 58  1  0  0  0
 41109  1  0  0  0
 41110  1  0  0  0
 41111  1  0  0  0
 41 48  1  0  0  0
 42 43  1  0  0  0
 42 66  1  0  0  0
 42112  1  0  0  0
 42113  1  0  0  0
 43 44  1  0  0  0
 44114  1  0  0  0
 45 46  2  0  0  0
 45115  1  0  0  0
 46116  1  0  0  0
 47117  1  0  0  0
 47118  1  0  0  0
 48 56  1  0  0  0
 48 65  1  0  0  0
 48119  1  0  0  0
 49 50  1  0  0  0
 49 53  1  0  0  0
 49 64  1  0  0  0
 49120  1  0  0  0
 50 51  1  0  0  0
 50121  1  0  0  0
 50122  1  0  0  0
 51 52  1  0  0  0
 51123  1  0  0  0
 51124  1  0  0  0
 52125  1  0  0  0
 52126  1  0  0  0
 53 54  1  0  0  0
 54 55  2  0  0  0
 54127  1  0  0  0
 55 57  1  0  0  0
 55128  1  0  0  0
 56 69  2  0  0  0
 57 58  2  0  0  0
 57129  1  0  0  0
 58130  1  0  0  0
 59 60  1  0  0  0
 59 61  1  0  0  0
 59 62  1  0  0  0
 60131  1  0  0  0
 60132  1  0  0  0
 60133  1  0  0  0
 61134  1  0  0  0
 61135  1  0  0  0
 61136  1  0  0  0
 62137  1  0  0  0
 62138  1  0  0  0
 62139  1  0  0  0
 63 65  1  0  0  0
 63140  1  0  0  0
 63141  1  0  0  0
 63142  1  0  0  0
 64143  1  0  0  0
 65144  1  0  0  0
 68 80  1  0  0  0
 71 72  2  0  0  0
 71 74  1  0  0  0
 71145  1  0  0  0
 72 76  1  0  0  0
 72146  1  0  0  0
 73 75  1  0  0  0
 73 76  2  0  0  0
 73147  1  0  0  0
 74 75  2  0  0  0
 74 77  1  0  0  0
 75 82  1  0  0  0
 76 85  1  0  0  0
 77 83  1  0  0  0
 77 84  2  0  0  0
 78 79  1  0  0  0
 78148  1  0  0  0
 78149  1  0  0  0
 78150  1  0  0  0
 79 83  1  0  0  0
 79151  1  0  0  0
 79152  1  0  0  0
 80 81  1  0  0  0
 80153  1  0  0  0
 80154  1  0  0  0
 81 85  1  0  0  0
 81155  1  0  0  0
 81156  1  0  0  0
 82157  1  0  0  0
 83158  1  0  0  0
M  ISO  4   1 100  68 101  80 101  82 100
M  END
> <chiral flag>
0

> <version>
0

> <s_m_source_file>
/data/baiqing/PycharmProjects/Reinvent-master-3.2/result/LINK_invent/BTK/process_docking_weight1_custom_sum_contain_oxygen_bond_distance_aromatic_linkinvent_7_9_3/rearranged_h_0004.sdf

> <i_m_source_file_index>
74

> <r_mmod_Potential_Energy-OPLS-2005>
709.529113769531

> <r_mmod_Stretch_Energy-OPLS-2005>
343.043609619141

> <r_mmod_Bend_Energy-OPLS-2005>
301.389801025391

> <r_mmod_Torsional_Energy-OPLS-2005>
250.51106262207

> <r_mmod_Improper_Torsional_Energy-OPLS-2005>
4.89179706573486

> <r_mmod_Van_der_Waal_Energy-OPLS-2005>
139.947555541992

> <r_mmod_Electrostatic_Energy-OPLS-2005>
-328.572631835938

> <r_mmod_Solvation_Energy-OPLS-2005>
-247.260192871094

> <b_mmod_Minimization_Converged-OPLS-2005>
0

> <r_mmod_RMS_Derivative-OPLS-2005>
1.17649483680725

$$$$
74
                    3D
 Structure written by MMmdl.
154162  0  0  1  0            999 V2000
  -30.5552  -14.9021   20.4084 C   0  0  0  0  0  0
  -30.4352  -12.5521   19.4930 C   0  0  0  0  0  0
  -29.5179  -12.5239   18.2488 C   0  0  0  0  0  0
  -28.0469  -12.3266   18.6634 C   0  0  0  0  0  0
  -27.6319  -13.2469   19.8407 C   0  0  2  0  0  0
  -28.6768  -13.2514   20.9779 C   0  0  0  0  0  0
  -25.2461  -13.8214   20.5720 C   0  0  0  0  0  0
  -24.1773  -13.0434   20.9236 C   0  0  0  0  0  0
  -24.6387  -11.6918   20.8747 C   0  0  0  0  0  0
  -23.9059  -10.4286   21.0397 C   0  0  0  0  0  0
  -24.3604   -9.4196   21.9174 C   0  0  0  0  0  0
  -23.6288   -8.2223   22.0742 C   0  0  0  0  0  0
  -22.4273   -8.0259   21.3524 C   0  0  0  0  0  0
  -21.9903   -9.0237   20.4639 C   0  0  0  0  0  0
  -22.7224  -10.2124   20.3045 C   0  0  0  0  0  0
  -21.6852   -6.0723   22.5274 C   0  0  0  0  0  0
  -21.4015   -6.5627   23.8208 C   0  0  0  0  0  0
  -21.3669   -5.6781   24.9172 C   0  0  0  0  0  0
  -21.6056   -4.3046   24.7222 C   0  0  0  0  0  0
  -21.8821   -3.8137   23.4341 C   0  0  0  0  0  0
  -21.9192   -4.6951   22.3396 C   0  0  0  0  0  0
  -22.7791  -13.5211   21.1893 C   0  0  0  0  0  0
  -22.1660   -4.2133   21.0973 F   0  0  0  0  0  0
  -21.5631   -3.4534   25.7737 F   0  0  0  0  0  0
  -29.9557  -13.6478   20.3802 N   0  0  0  0  0  0
  -26.2893  -12.9447   20.3264 N   0  0  0  0  0  0
  -25.9325  -11.6576   20.5746 N   0  0  0  0  0  0
  -22.0438  -12.8205   22.0447 N   0  0  0  0  0  0
  -25.4135  -15.1948   20.4155 N   0  0  0  0  0  0
  -31.7533  -14.9696   20.1189 O   0  0  0  0  0  0
  -21.6632   -6.8864   21.4232 O   0  0  0  0  0  0
  -22.3471  -14.5516   20.6743 O   0  0  0  0  0  0
  -24.6416  -31.8436   23.1867 C   0  0  0  0  0  0
  -25.9192  -32.4692   23.8266 C   0  0  1  0  0  0
  -27.2279  -27.1524   20.1510 C   0  0  0  0  0  0
  -25.5940  -33.8497   24.2184 N   0  0  0  0  0  0
  -23.4459  -30.4597   21.5302 C   0  0  2  0  0  0
  -24.8951  -28.8771   20.1137 C   0  0  0  0  0  0
  -22.7559  -29.4544   22.4856 C   0  0  0  0  0  0
  -18.0306  -28.1405   22.8471 C   0  0  0  0  0  0
  -24.1488  -36.7262   23.2645 C   0  0  0  0  0  0
  -25.9979  -30.7196   21.3836 C   0  0  0  0  0  0
  -26.0677  -29.3291   20.7312 C   0  0  0  0  0  0
  -27.2318  -28.4801   20.7333 C   0  0  0  0  0  0
  -26.0311  -26.7867   19.5020 C   0  0  0  0  0  0
  -24.8864  -27.6181   19.4870 C   0  0  0  0  0  0
  -23.6728  -29.7808   20.1517 C   0  0  0  0  0  0
  -25.4120  -36.3032   24.0319 C   0  0  1  0  0  0
  -20.5916  -28.3730   23.1234 C   0  0  2  0  0  0
  -20.6786  -26.9430   22.5405 C   0  0  0  0  0  0
  -19.5761  -26.6386   21.5211 C   0  0  0  0  0  0
  -18.1944  -26.7942   22.1623 C   0  0  0  0  0  0
  -19.1562  -28.8885   23.2847 C   0  0  0  0  0  0
  -18.9480  -30.1480   23.8874 C   0  0  0  0  0  0
  -17.6477  -30.6596   24.0563 C   0  0  0  0  0  0
  -25.9068  -34.9408   23.5064 C   0  0  0  0  0  0
  -16.5367  -29.9091   23.6336 C   0  0  0  0  0  0
  -16.7292  -28.6515   23.0345 C   0  0  0  0  0  0
  -26.4514  -31.6569   25.0718 C   0  0  0  0  0  0
  -25.3705  -31.3757   26.1421 C   0  0  0  0  0  0
  -27.0386  -30.2970   24.6305 C   0  0  0  0  0  0
  -27.6055  -32.4327   25.7494 C   0  0  0  0  0  0
  -27.5574  -37.1787   24.8463 C   0  0  0  0  0  0
  -21.4256  -29.3053   22.3606 N   0  0  0  0  0  0
  -26.4287  -37.3743   23.9404 N   0  0  0  0  0  0
  -24.7145  -31.0298   22.0889 N   0  0  0  0  0  0
  -23.4212  -28.8104   23.3014 O   0  0  0  0  0  0
  -28.3392  -26.2461   20.1708 O   0  0  0  0  0  0
  -26.5663  -34.8905   22.4647 O   0  0  0  0  0  0
  -23.5533  -32.1305   23.7095 O   0  0  0  0  0  0
  -28.5325  -22.5369   18.9574 C   0  0  0  0  0  0
  -28.2392  -23.9586   18.9994 C   0  0  0  0  0  0
  -28.7584  -23.9668   21.2825 C   0  0  0  0  0  0
  -29.0039  -21.7255   20.0571 C   0  0  0  0  0  0
  -29.0639  -22.5344   21.2597 C   0  0  0  0  0  0
  -28.3574  -24.7779   20.1641 C   0  0  0  0  0  0
  -30.2428  -20.2225   18.5783 C   0  0  0  0  0  0
  -30.1534  -17.5828   20.2281 C   0  0  0  0  0  0
  -29.1699  -18.9345   20.4704 C   0  0  0  0  0  0
  -29.7836  -16.0850   20.5341 N   0  0  0  0  0  0
  -29.5044  -20.3241   19.8395 N   0  0  0  0  0  0
  -29.5199  -21.9445   22.5312 N   0  3  0  0  0  0
  -28.8895  -22.2253   23.5497 O   0  5  0  0  0  0
  -30.5269  -21.2382   22.5371 O   0  0  0  0  0  0
  -31.4733  -12.6925   19.1854 H   0  0  0  0  0  0
  -30.4061  -11.5947   20.0151 H   0  0  0  0  0  0
  -29.8242  -11.7285   17.5689 H   0  0  0  0  0  0
  -29.6223  -13.4598   17.6967 H   0  0  0  0  0  0
  -27.9278  -11.2836   18.9550 H   0  0  0  0  0  0
  -27.3858  -12.4818   17.8093 H   0  0  0  0  0  0
  -27.6034  -14.2547   19.4260 H   0  0  0  0  0  0
  -28.7496  -12.2696   21.4478 H   0  0  0  0  0  0
  -28.3901  -13.9520   21.7633 H   0  0  0  0  0  0
  -25.2740   -9.5690   22.4754 H   0  0  0  0  0  0
  -24.0007   -7.4619   22.7462 H   0  0  0  0  0  0
  -21.0827   -8.8751   19.8950 H   0  0  0  0  0  0
  -22.3666  -10.9656   19.6157 H   0  0  0  0  0  0
  -21.1999   -7.6137   23.9707 H   0  0  0  0  0  0
  -21.1500   -6.0510   25.9082 H   0  0  0  0  0  0
  -22.0597   -2.7597   23.2839 H   0  0  0  0  0  0
  -22.4070  -11.9880   22.4848 H   0  0  0  0  0  0
  -21.1047  -13.1227   22.2645 H   0  0  0  0  0  0
  -24.6423  -15.8445   20.5239 H   0  0  0  0  0  0
  -26.2528  -15.6334   20.0587 H   0  0  0  0  0  0
  -26.7267  -32.5296   23.1001 H   0  0  0  0  0  0
  -25.0038  -33.9599   25.0299 H   0  0  0  0  0  0
  -22.7487  -31.2850   21.3710 H   0  0  0  0  0  0
  -23.3747  -35.9596   23.3302 H   0  0  0  0  0  0
  -24.3576  -36.8901   22.2061 H   0  0  0  0  0  0
  -23.7250  -37.6459   23.6688 H   0  0  0  0  0  0
  -26.1527  -31.4717   20.6085 H   0  0  0  0  0  0
  -26.8690  -30.7707   22.0260 H   0  0  0  0  0  0
  -28.1334  -28.8247   21.2205 H   0  0  0  0  0  0
  -25.9699  -25.8226   19.0193 H   0  0  0  0  0  0
  -23.9903  -27.2669   18.9937 H   0  0  0  0  0  0
  -23.8142  -30.5507   19.3921 H   0  0  0  0  0  0
  -22.7877  -29.2237   19.8411 H   0  0  0  0  0  0
  -25.1308  -36.1858   25.0810 H   0  0  0  0  0  0
  -21.0011  -28.3322   24.1354 H   0  0  0  0  0  0
  -20.5667  -26.2349   23.3627 H   0  0  0  0  0  0
  -21.6652  -26.7426   22.1213 H   0  0  0  0  0  0
  -19.6918  -25.6283   21.1267 H   0  0  0  0  0  0
  -19.6700  -27.3171   20.6722 H   0  0  0  0  0  0
  -17.4210  -26.6680   21.4030 H   0  0  0  0  0  0
  -18.0350  -26.0099   22.9031 H   0  0  0  0  0  0
  -19.7955  -30.7300   24.2236 H   0  0  0  0  0  0
  -17.5030  -31.6272   24.5175 H   0  0  0  0  0  0
  -15.5366  -30.2984   23.7672 H   0  0  0  0  0  0
  -15.8695  -28.0831   22.7057 H   0  0  0  0  0  0
  -24.5840  -30.7165   25.7725 H   0  0  0  0  0  0
  -24.8944  -32.2944   26.4859 H   0  0  0  0  0  0
  -25.7976  -30.8889   27.0199 H   0  0  0  0  0  0
  -26.3007  -29.6680   24.1308 H   0  0  0  0  0  0
  -27.3995  -29.7279   25.4885 H   0  0  0  0  0  0
  -27.8916  -30.4210   23.9629 H   0  0  0  0  0  0
  -27.2656  -33.3621   26.2069 H   0  0  0  0  0  0
  -28.3863  -32.6899   25.0326 H   0  0  0  0  0  0
  -28.0740  -31.8465   26.5407 H   0  0  0  0  0  0
  -28.2588  -38.0084   24.7498 H   0  0  0  0  0  0
  -28.1071  -36.2614   24.6297 H   0  0  0  0  0  0
  -27.2299  -37.1451   25.8868 H   0  0  0  0  0  0
  -20.9470  -29.8767   21.6781 H   0  0  0  0  0  0
  -26.0153  -38.2815   24.1390 H   0  0  0  0  0  0
  -28.4298  -22.0685   17.9892 H   0  0  0  0  0  0
  -27.9682  -24.4402   18.0705 H   0  0  0  0  0  0
  -28.9141  -24.4808   22.2192 H   0  0  0  0  0  0
  -30.6263  -21.1864   18.2385 H   0  0  0  0  0  0
  -29.6138  -19.8087   17.7884 H   0  0  0  0  0  0
  -31.1199  -19.5829   18.6833 H   0  0  0  0  0  0
  -31.1016  -17.7739   20.7308 H   0  0  0  0  0  0
  -30.4060  -17.5548   19.1688 H   0  0  0  0  0  0
  -29.0485  -19.0764   21.5449 H   0  0  0  0  0  0
  -28.1737  -18.6757   20.1080 H   0  0  0  0  0  0
  -28.8117  -15.9231   20.7522 H   0  0  0  0  0  0
  1 25  1  0  0  0
  1 30  2  0  0  0
  1 80  1  0  0  0
  2  3  1  0  0  0
  2 25  1  0  0  0
  2 85  1  0  0  0
  2 86  1  0  0  0
  3  4  1  0  0  0
  3 87  1  0  0  0
  3 88  1  0  0  0
  4  5  1  0  0  0
  4 89  1  0  0  0
  4 90  1  0  0  0
  5  6  1  0  0  0
  5 26  1  0  0  0
  5 91  1  0  0  0
  6 25  1  0  0  0
  6 92  1  0  0  0
  6 93  1  0  0  0
  7  8  2  0  0  0
  7 26  1  0  0  0
  7 29  1  0  0  0
  8  9  1  0  0  0
  8 22  1  0  0  0
  9 10  1  0  0  0
  9 27  2  0  0  0
 10 11  2  0  0  0
 10 15  1  0  0  0
 11 12  1  0  0  0
 11 94  1  0  0  0
 12 13  2  0  0  0
 12 95  1  0  0  0
 13 14  1  0  0  0
 13 31  1  0  0  0
 14 15  2  0  0  0
 14 96  1  0  0  0
 15 97  1  0  0  0
 16 17  2  0  0  0
 16 21  1  0  0  0
 16 31  1  0  0  0
 17 18  1  0  0  0
 17 98  1  0  0  0
 18 19  2  0  0  0
 18 99  1  0  0  0
 19 20  1  0  0  0
 19 24  1  0  0  0
 20 21  2  0  0  0
 20100  1  0  0  0
 21 23  1  0  0  0
 22 28  1  0  0  0
 22 32  2  0  0  0
 26 27  1  0  0  0
 28101  1  0  0  0
 28102  1  0  0  0
 29103  1  0  0  0
 29104  1  0  0  0
 33 34  1  0  0  0
 33 66  1  0  0  0
 33 70  2  0  0  0
 34 36  1  0  0  0
 34 59  1  0  0  0
 34105  1  0  0  0
 35 44  2  0  0  0
 35 45  1  0  0  0
 35 68  1  0  0  0
 36 56  1  0  0  0
 36106  1  0  0  0
 37 39  1  0  0  0
 37 47  1  0  0  0
 37 66  1  0  0  0
 37107  1  0  0  0
 38 43  2  0  0  0
 38 46  1  0  0  0
 38 47  1  0  0  0
 39 64  1  0  0  0
 39 67  2  0  0  0
 40 52  1  0  0  0
 40 53  2  0  0  0
 40 58  1  0  0  0
 41108  1  0  0  0
 41109  1  0  0  0
 41110  1  0  0  0
 41 48  1  0  0  0
 42 43  1  0  0  0
 42 66  1  0  0  0
 42111  1  0  0  0
 42112  1  0  0  0
 43 44  1  0  0  0
 44113  1  0  0  0
 45 46  2  0  0  0
 45114  1  0  0  0
 46115  1  0  0  0
 47116  1  0  0  0
 47117  1  0  0  0
 48 56  1  0  0  0
 48 65  1  0  0  0
 48118  1  0  0  0
 49 50  1  0  0  0
 49 53  1  0  0  0
 49 64  1  0  0  0
 49119  1  0  0  0
 50 51  1  0  0  0
 50120  1  0  0  0
 50121  1  0  0  0
 51 52  1  0  0  0
 51122  1  0  0  0
 51123  1  0  0  0
 52124  1  0  0  0
 52125  1  0  0  0
 53 54  1  0  0  0
 54 55  2  0  0  0
 54126  1  0  0  0
 55 57  1  0  0  0
 55127  1  0  0  0
 56 69  2  0  0  0
 57 58  2  0  0  0
 57128  1  0  0  0
 58129  1  0  0  0
 59 60  1  0  0  0
 59 61  1  0  0  0
 59 62  1  0  0  0
 60130  1  0  0  0
 60131  1  0  0  0
 60132  1  0  0  0
 61133  1  0  0  0
 61134  1  0  0  0
 61135  1  0  0  0
 62136  1  0  0  0
 62137  1  0  0  0
 62138  1  0  0  0
 63 65  1  0  0  0
 63139  1  0  0  0
 63140  1  0  0  0
 63141  1  0  0  0
 64142  1  0  0  0
 65143  1  0  0  0
 68 76  1  0  0  0
 71 72  2  0  0  0
 71 74  1  0  0  0
 71144  1  0  0  0
 72 76  1  0  0  0
 72145  1  0  0  0
 73 75  1  0  0  0
 73 76  2  0  0  0
 73146  1  0  0  0
 74 75  2  0  0  0
 74 81  1  0  0  0
 75 82  1  0  0  0
 77 81  1  0  0  0
 77147  1  0  0  0
 77148  1  0  0  0
 77149  1  0  0  0
 78 79  1  0  0  0
 78 80  1  0  0  0
 78150  1  0  0  0
 78151  1  0  0  0
 79 81  1  0  0  0
 79152  1  0  0  0
 79153  1  0  0  0
 80154  1  0  0  0
 82 83  1  0  0  0
 82 84  2  0  0  0
M  CHG  2  82   1  83  -1
M  ISO  4   1 100  68 101  76 101  80 100
M  END
> <chiral flag>
0

> <version>
0

> <s_m_source_file>
/data/baiqing/PycharmProjects/Reinvent-master-3.2/result/LINK_invent/BTK/process_docking_weight1_custom_sum_contain_oxygen_bond_distance_aromatic_linkinvent_7_9_3/rearranged_h_0004.sdf

> <i_m_source_file_index>
75

> <r_mmod_Potential_Energy-OPLS-2005>
447.747589111328

> <r_mmod_Stretch_Energy-OPLS-2005>
215.202590942383

> <r_mmod_Bend_Energy-OPLS-2005>
253.029312133789

> <r_mmod_Torsional_Energy-OPLS-2005>
240.592987060547

> <r_mmod_Improper_Torsional_Energy-OPLS-2005>
8.10299396514893

> <r_mmod_Van_der_Waal_Energy-OPLS-2005>
134.484710693359

> <r_mmod_Electrostatic_Energy-OPLS-2005>
-323.120422363281

> <r_mmod_Solvation_Energy-OPLS-2005>
-241.245849609375

> <b_mmod_Minimization_Converged-OPLS-2005>
0

> <r_mmod_RMS_Derivative-OPLS-2005>
1.80654108524323

$$$$
75
                    3D
 Structure written by MMmdl.
154162  0  0  1  0            999 V2000
  -30.6787  -14.5851   21.0622 C   0  0  0  0  0  0
  -31.3190  -13.7831   19.0867 C   0  0  0  0  0  0
  -28.7013  -14.0603   17.2326 C   0  0  0  0  0  0
  -27.3311  -13.3640   18.2489 C   0  0  0  0  0  0
  -27.5086  -13.1348   20.0225 C   0  0  2  0  0  0
  -29.0030  -12.7526   21.0353 C   0  0  0  0  0  0
  -25.1792  -13.7669   20.6390 C   0  0  0  0  0  0
  -24.1120  -12.9987   20.9572 C   0  0  0  0  0  0
  -24.5790  -11.6483   20.9139 C   0  0  0  0  0  0
  -23.8621  -10.3976   21.0581 C   0  0  0  0  0  0
  -24.3322   -9.3951   21.9300 C   0  0  0  0  0  0
  -23.6092   -8.1970   22.0765 C   0  0  0  0  0  0
  -22.4097   -8.0056   21.3514 C   0  0  0  0  0  0
  -21.9672   -8.9999   20.4616 C   0  0  0  0  0  0
  -22.6909  -10.1900   20.3099 C   0  0  0  0  0  0
  -21.6749   -6.0613   22.5284 C   0  0  0  0  0  0
  -21.3935   -6.5564   23.8203 C   0  0  0  0  0  0
  -21.3639   -5.6749   24.9188 C   0  0  0  0  0  0
  -21.6052   -4.3012   24.7256 C   0  0  0  0  0  0
  -21.8836   -3.8077   23.4386 C   0  0  0  0  0  0
  -21.9164   -4.6865   22.3426 C   0  0  0  0  0  0
  -22.7227  -13.4938   21.1954 C   0  0  0  0  0  0
  -22.1651   -4.2059   21.1002 F   0  0  0  0  0  0
  -21.5653   -3.4516   25.7779 F   0  0  0  0  0  0
  -30.6136  -13.3418   20.6619 N   0  0  0  0  0  0
  -26.2223  -12.8559   20.4998 N   0  0  0  0  0  0
  -25.8720  -11.5803   20.6549 N   0  0  0  0  0  0
  -21.9799  -12.8055   22.0508 N   0  0  0  0  0  0
  -25.3280  -15.1462   20.4428 N   0  0  0  0  0  0
  -31.7386  -15.2170   21.0487 O   0  0  0  0  0  0
  -21.6479   -6.8684   21.4215 O   0  0  0  0  0  0
  -22.3140  -14.5313   20.6741 O   0  0  0  0  0  0
  -24.6792  -31.8083   23.1573 C   0  0  0  0  0  0
  -25.9406  -32.4506   23.8088 C   0  0  1  0  0  0
  -27.2209  -26.8294   20.0445 C   0  0  0  0  0  0
  -25.6012  -33.8328   24.1986 N   0  0  0  0  0  0
  -23.4949  -30.4190   21.5166 C   0  0  2  0  0  0
  -24.9353  -28.7839   20.1060 C   0  0  0  0  0  0
  -22.7726  -29.4373   22.4770 C   0  0  0  0  0  0
  -18.0329  -28.1410   22.8463 C   0  0  0  0  0  0
  -24.1499  -36.7167   23.2644 C   0  0  0  0  0  0
  -26.0759  -30.5678   21.4016 C   0  0  0  0  0  0
  -26.1373  -29.1525   20.7220 C   0  0  0  0  0  0
  -27.2716  -28.1969   20.6670 C   0  0  0  0  0  0
  -25.9665  -26.6332   19.4302 C   0  0  0  0  0  0
  -24.8770  -27.5435   19.4548 C   0  0  0  0  0  0
  -23.7322  -29.7302   20.1469 C   0  0  0  0  0  0
  -25.4144  -36.2915   24.0282 C   0  0  1  0  0  0
  -20.5961  -28.3765   23.1170 C   0  0  2  0  0  0
  -20.6805  -26.9437   22.5401 C   0  0  0  0  0  0
  -19.5777  -26.6372   21.5214 C   0  0  0  0  0  0
  -18.1960  -26.7938   22.1624 C   0  0  0  0  0  0
  -19.1594  -28.8910   23.2796 C   0  0  0  0  0  0
  -18.9502  -30.1496   23.8837 C   0  0  0  0  0  0
  -17.6493  -30.6599   24.0549 C   0  0  0  0  0  0
  -25.9127  -34.9307   23.4964 C   0  0  0  0  0  0
  -16.5382  -29.9084   23.6345 C   0  0  0  0  0  0
  -16.7309  -28.6502   23.0370 C   0  0  0  0  0  0
  -26.4589  -31.6510   25.0686 C   0  0  0  0  0  0
  -25.3673  -31.3813   26.1317 C   0  0  0  0  0  0
  -27.0500  -30.2854   24.6534 C   0  0  0  0  0  0
  -27.6049  -32.4356   25.7504 C   0  0  0  0  0  0
  -27.5580  -37.1723   24.8451 C   0  0  0  0  0  0
  -21.4383  -29.3036   22.3516 N   0  0  0  0  0  0
  -26.4266  -37.3682   23.9429 N   0  0  0  0  0  0
  -24.7745  -30.9605   22.0782 N   0  0  0  0  0  0
  -23.4217  -28.7947   23.3056 O   0  0  0  0  0  0
  -28.2202  -25.6813   19.9515 O   0  0  0  0  0  0
  -26.5757  -34.8878   22.4575 O   0  0  0  0  0  0
  -23.5833  -32.1129   23.6581 O   0  0  0  0  0  0
  -30.4946  -12.5322   17.2576 C   0  0  0  0  0  0
  -31.0549  -13.9461   16.6738 C   0  0  0  0  0  0
  -29.5557  -12.6002   18.6145 C   0  0  0  0  0  0
  -30.7564  -15.4424   17.2331 C   0  0  0  0  0  0
  -29.2965  -14.6445   19.2815 C   0  0  0  0  0  0
  -29.8643  -15.9195   18.4653 C   0  0  0  0  0  0
  -28.9734  -22.4521   19.2958 C   0  0  0  0  0  0
  -28.7336  -20.5878   19.2788 C   0  0  0  0  0  0
  -27.9924  -24.0027   19.7035 C   0  0  0  0  0  0
  -29.5996  -19.0286   18.6778 C   0  0  0  0  0  0
  -29.5459  -15.1290   20.6195 N   0  0  0  0  0  0
  -29.4306  -17.3648   18.9478 O   0  0  0  0  0  0
  -32.0924  -14.5563   18.9876 H   0  0  0  0  0  0
  -32.0069  -12.9338   18.9589 H   0  0  0  0  0  0
  -28.6487  -13.5682   16.2509 H   0  0  0  0  0  0
  -28.3289  -15.0468   16.9296 H   0  0  0  0  0  0
  -27.0630  -12.3944   17.8246 H   0  0  0  0  0  0
  -26.4489  -13.9750   18.0596 H   0  0  0  0  0  0
  -27.4312  -14.1345   20.4081 H   0  0  0  0  0  0
  -29.0816  -11.6696   21.1387 H   0  0  0  0  0  0
  -28.7752  -13.0493   22.0618 H   0  0  0  0  0  0
  -25.2431   -9.5486   22.4921 H   0  0  0  0  0  0
  -23.9812   -7.4344   22.7456 H   0  0  0  0  0  0
  -21.0622   -8.8478   19.8904 H   0  0  0  0  0  0
  -22.3374  -10.9480   19.6250 H   0  0  0  0  0  0
  -21.1889   -7.6069   23.9675 H   0  0  0  0  0  0
  -21.1464   -6.0490   25.9087 H   0  0  0  0  0  0
  -22.0647   -2.7539   23.2913 H   0  0  0  0  0  0
  -22.3328  -11.9714   22.4960 H   0  0  0  0  0  0
  -21.0435  -13.1173   22.2657 H   0  0  0  0  0  0
  -24.5427  -15.7852   20.5046 H   0  0  0  0  0  0
  -26.1813  -15.5977   20.1369 H   0  0  0  0  0  0
  -26.7484  -32.4974   23.0794 H   0  0  0  0  0  0
  -25.0081  -33.9381   25.0087 H   0  0  0  0  0  0
  -22.8155  -31.2555   21.3403 H   0  0  0  0  0  0
  -23.3800  -35.9453   23.3205 H   0  0  0  0  0  0
  -24.3586  -36.8930   22.2081 H   0  0  0  0  0  0
  -23.7207  -37.6298   23.6780 H   0  0  0  0  0  0
  -26.2796  -31.3118   20.6303 H   0  0  0  0  0  0
  -26.9267  -30.6123   22.0698 H   0  0  0  0  0  0
  -28.1916  -28.4846   21.1564 H   0  0  0  0  0  0
  -25.7957  -25.7016   18.9120 H   0  0  0  0  0  0
  -23.9602  -27.2531   18.9608 H   0  0  0  0  0  0
  -23.8974  -30.4975   19.3898 H   0  0  0  0  0  0
  -22.8345  -29.1976   19.8275 H   0  0  0  0  0  0
  -25.1339  -36.1674   25.0768 H   0  0  0  0  0  0
  -21.0034  -28.3372   24.1300 H   0  0  0  0  0  0
  -20.5690  -26.2378   23.3648 H   0  0  0  0  0  0
  -21.6666  -26.7405   22.1203 H   0  0  0  0  0  0
  -19.6939  -25.6268   21.1284 H   0  0  0  0  0  0
  -19.6719  -27.3150   20.6720 H   0  0  0  0  0  0
  -17.4228  -26.6676   21.4031 H   0  0  0  0  0  0
  -18.0359  -26.0095   22.9038 H   0  0  0  0  0  0
  -19.7976  -30.7327   24.2183 H   0  0  0  0  0  0
  -17.5044  -31.6277   24.5158 H   0  0  0  0  0  0
  -15.5381  -30.2968   23.7702 H   0  0  0  0  0  0
  -15.8709  -28.0796   22.7127 H   0  0  0  0  0  0
  -24.5859  -30.7164   25.7618 H   0  0  0  0  0  0
  -24.8866  -32.3035   26.4591 H   0  0  0  0  0  0
  -25.7866  -30.9067   27.0198 H   0  0  0  0  0  0
  -26.3192  -29.6494   24.1532 H   0  0  0  0  0  0
  -27.3955  -29.7272   25.5245 H   0  0  0  0  0  0
  -27.9166  -30.3995   24.0020 H   0  0  0  0  0  0
  -27.2591  -33.3717   26.1902 H   0  0  0  0  0  0
  -28.3952  -32.6826   25.0401 H   0  0  0  0  0  0
  -28.0615  -31.8607   26.5572 H   0  0  0  0  0  0
  -28.2495  -38.0118   24.7602 H   0  0  0  0  0  0
  -28.1176  -36.2646   24.6136 H   0  0  0  0  0  0
  -27.2312  -37.1182   25.8851 H   0  0  0  0  0  0
  -20.9664  -29.8718   21.6619 H   0  0  0  0  0  0
  -26.0088  -38.2714   24.1507 H   0  0  0  0  0  0
  -30.7625  -11.5881   16.8045 H   0  0  0  0  0  0
  -31.6875  -13.8835   15.7994 H   0  0  0  0  0  0
  -29.2969  -11.6405   19.0430 H   0  0  0  0  0  0
  -31.1993  -16.2417   16.6571 H   0  0  0  0  0  0
  -29.3381  -22.6598   18.2898 H   0  0  0  0  0  0
  -29.8639  -22.5666   19.9140 H   0  0  0  0  0  0
  -27.7354  -20.4767   18.8548 H   0  0  0  0  0  0
  -28.5790  -20.3700   20.3357 H   0  0  0  0  0  0
  -27.4799  -23.7264   20.6254 H   0  0  0  0  0  0
  -27.1990  -23.9789   18.9580 H   0  0  0  0  0  0
  -30.6460  -19.1934   18.9346 H   0  0  0  0  0  0
  -29.5873  -19.1072   17.5902 H   0  0  0  0  0  0
  -28.7776  -15.0232   21.2627 H   0  0  0  0  0  0
  1 25  1  0  0  0
  1 30  2  0  0  0
  1 81  1  0  0  0
  2  3  1  0  0  0
  2 25  1  0  0  0
  2 83  1  0  0  0
  2 84  1  0  0  0
  3  4  1  0  0  0
  3 85  1  0  0  0
  3 86  1  0  0  0
  4  5  1  0  0  0
  4 87  1  0  0  0
  4 88  1  0  0  0
  5  6  1  0  0  0
  5 26  1  0  0  0
  5 89  1  0  0  0
  6 25  1  0  0  0
  6 90  1  0  0  0
  6 91  1  0  0  0
  7  8  2  0  0  0
  7 26  1  0  0  0
  7 29  1  0  0  0
  8  9  1  0  0  0
  8 22  1  0  0  0
  9 10  1  0  0  0
  9 27  2  0  0  0
 10 11  2  0  0  0
 10 15  1  0  0  0
 11 12  1  0  0  0
 11 92  1  0  0  0
 12 13  2  0  0  0
 12 93  1  0  0  0
 13 14  1  0  0  0
 13 31  1  0  0  0
 14 15  2  0  0  0
 14 94  1  0  0  0
 15 95  1  0  0  0
 16 17  2  0  0  0
 16 21  1  0  0  0
 16 31  1  0  0  0
 17 18  1  0  0  0
 17 96  1  0  0  0
 18 19  2  0  0  0
 18 97  1  0  0  0
 19 20  1  0  0  0
 19 24  1  0  0  0
 20 21  2  0  0  0
 20 98  1  0  0  0
 21 23  1  0  0  0
 22 28  1  0  0  0
 22 32  2  0  0  0
 26 27  1  0  0  0
 28 99  1  0  0  0
 28100  1  0  0  0
 29101  1  0  0  0
 29102  1  0  0  0
 33 34  1  0  0  0
 33 66  1  0  0  0
 33 70  2  0  0  0
 34 36  1  0  0  0
 34 59  1  0  0  0
 34103  1  0  0  0
 35 44  2  0  0  0
 35 45  1  0  0  0
 35 68  1  0  0  0
 36 56  1  0  0  0
 36104  1  0  0  0
 37 39  1  0  0  0
 37 47  1  0  0  0
 37 66  1  0  0  0
 37105  1  0  0  0
 38 43  2  0  0  0
 38 46  1  0  0  0
 38 47  1  0  0  0
 39 64  1  0  0  0
 39 67  2  0  0  0
 40 52  1  0  0  0
 40 53  2  0  0  0
 40 58  1  0  0  0
 41106  1  0  0  0
 41107  1  0  0  0
 41108  1  0  0  0
 41 48  1  0  0  0
 42 43  1  0  0  0
 42 66  1  0  0  0
 42109  1  0  0  0
 42110  1  0  0  0
 43 44  1  0  0  0
 44111  1  0  0  0
 45 46  2  0  0  0
 45112  1  0  0  0
 46113  1  0  0  0
 47114  1  0  0  0
 47115  1  0  0  0
 48 56  1  0  0  0
 48 65  1  0  0  0
 48116  1  0  0  0
 49 50  1  0  0  0
 49 53  1  0  0  0
 49 64  1  0  0  0
 49117  1  0  0  0
 50 51  1  0  0  0
 50118  1  0  0  0
 50119  1  0  0  0
 51 52  1  0  0  0
 51120  1  0  0  0
 51121  1  0  0  0
 52122  1  0  0  0
 52123  1  0  0  0
 53 54  1  0  0  0
 54 55  2  0  0  0
 54124  1  0  0  0
 55 57  1  0  0  0
 55125  1  0  0  0
 56 69  2  0  0  0
 57 58  2  0  0  0
 57126  1  0  0  0
 58127  1  0  0  0
 59 60  1  0  0  0
 59 61  1  0  0  0
 59 62  1  0  0  0
 60128  1  0  0  0
 60129  1  0  0  0
 60130  1  0  0  0
 61131  1  0  0  0
 61132  1  0  0  0
 61133  1  0  0  0
 62134  1  0  0  0
 62135  1  0  0  0
 62136  1  0  0  0
 63 65  1  0  0  0
 63137  1  0  0  0
 63138  1  0  0  0
 63139  1  0  0  0
 64140  1  0  0  0
 65141  1  0  0  0
 68 79  1  0  0  0
 71 72  2  0  0  0
 71 73  1  0  0  0
 71142  1  0  0  0
 72 74  1  0  0  0
 72143  1  0  0  0
 73 75  2  0  0  0
 73144  1  0  0  0
 74 76  2  0  0  0
 74145  1  0  0  0
 75 76  1  0  0  0
 75 81  1  0  0  0
 76 82  1  0  0  0
 77 78  1  0  0  0
 77 79  1  0  0  0
 77146  1  0  0  0
 77147  1  0  0  0
 78 80  1  0  0  0
 78148  1  0  0  0
 78149  1  0  0  0
 79150  1  0  0  0
 79151  1  0  0  0
 80 82  1  0  0  0
 80152  1  0  0  0
 80153  1  0  0  0
 81154  1  0  0  0
M  ISO  4   1 100  68 101  79 101  81 100
M  END
> <chiral flag>
0

> <version>
0

> <s_m_source_file>
/data/baiqing/PycharmProjects/Reinvent-master-3.2/result/LINK_invent/BTK/process_docking_weight1_custom_sum_contain_oxygen_bond_distance_aromatic_linkinvent_7_9_3/rearranged_h_0004.sdf

> <i_m_source_file_index>
76

> <r_mmod_Potential_Energy-OPLS-2005>
11109.802734375

> <r_mmod_Stretch_Energy-OPLS-2005>
6307.37109375

> <r_mmod_Bend_Energy-OPLS-2005>
882.476684570312

> <r_mmod_Torsional_Energy-OPLS-2005>
399.335205078125

> <r_mmod_Improper_Torsional_Energy-OPLS-2005>
58.6720123291016

> <r_mmod_Van_der_Waal_Energy-OPLS-2005>
2752.38330078125

> <r_mmod_Electrostatic_Energy-OPLS-2005>
-404.357482910156

> <r_mmod_Solvation_Energy-OPLS-2005>
-223.568420410156

> <b_mmod_Minimization_Converged-OPLS-2005>
0

> <r_mmod_RMS_Derivative-OPLS-2005>
1.31204795837402

$$$$
76
                    3D
 Structure written by MMmdl.
194202  0  0  1  0            999 V2000
  -30.7670  -14.3128   20.7328 C   0  0  0  0  0  0
  -30.4258  -12.2866   19.3634 C   0  0  0  0  0  0
  -29.4730  -12.5443   18.1802 C   0  0  0  0  0  0
  -27.9955  -12.4109   18.5990 C   0  0  0  0  0  0
  -27.6682  -13.2036   19.8907 C   0  0  2  0  0  0
  -28.7122  -12.8858   20.9855 C   0  0  0  0  0  0
  -25.2554  -13.8113   20.5738 C   0  0  0  0  0  0
  -24.1819  -13.0350   20.9120 C   0  0  0  0  0  0
  -24.6411  -11.6841   20.8677 C   0  0  0  0  0  0
  -23.9085  -10.4235   21.0319 C   0  0  0  0  0  0
  -24.3589   -9.4163   21.9142 C   0  0  0  0  0  0
  -23.6258   -8.2204   22.0731 C   0  0  0  0  0  0
  -22.4244   -8.0269   21.3517 C   0  0  0  0  0  0
  -21.9922   -9.0227   20.4579 C   0  0  0  0  0  0
  -22.7277  -10.2084   20.2927 C   0  0  0  0  0  0
  -21.6829   -6.0731   22.5281 C   0  0  0  0  0  0
  -21.3978   -6.5630   23.8224 C   0  0  0  0  0  0
  -21.3682   -5.6777   24.9193 C   0  0  0  0  0  0
  -21.6040   -4.3040   24.7237 C   0  0  0  0  0  0
  -21.8807   -3.8140   23.4355 C   0  0  0  0  0  0
  -21.9193   -4.6959   22.3409 C   0  0  0  0  0  0
  -22.7793  -13.5033   21.1660 C   0  0  0  0  0  0
  -22.1649   -4.2149   21.0991 F   0  0  0  0  0  0
  -21.5661   -3.4511   25.7756 F   0  0  0  0  0  0
  -30.0611  -13.1862   20.4645 N   0  0  0  0  0  0
  -26.3062  -12.9324   20.3469 N   0  0  0  0  0  0
  -25.9358  -11.6471   20.5766 N   0  0  0  0  0  0
  -22.0442  -12.7977   22.0170 N   0  0  0  0  0  0
  -25.4200  -15.1824   20.4248 N   0  0  0  0  0  0
  -31.7097  -14.7369   20.0510 O   0  0  0  0  0  0
  -21.6585   -6.8870   21.4240 O   0  0  0  0  0  0
  -22.3497  -14.5372   20.6569 O   0  0  0  0  0  0
  -24.6126  -31.8677   23.2193 C   0  0  0  0  0  0
  -25.9034  -32.4823   23.8453 C   0  0  1  0  0  0
  -27.2197  -27.4604   20.0872 C   0  0  0  0  0  0
  -25.5883  -33.8623   24.2366 N   0  0  0  0  0  0
  -23.4004  -30.4936   21.5559 C   0  0  2  0  0  0
  -24.8462  -28.9794   20.0993 C   0  0  0  0  0  0
  -22.7403  -29.4602   22.4970 C   0  0  0  0  0  0
  -18.0241  -28.1359   22.8483 C   0  0  0  0  0  0
  -24.1481  -36.7319   23.2619 C   0  0  0  0  0  0
  -25.9282  -30.8426   21.3718 C   0  0  0  0  0  0
  -26.0032  -29.4828   20.7084 C   0  0  0  0  0  0
  -27.1953  -28.7271   20.7077 C   0  0  0  0  0  0
  -26.0711  -27.0011   19.4151 C   0  0  0  0  0  0
  -24.8720  -27.7348   19.4497 C   0  0  0  0  0  0
  -23.6097  -29.8432   20.1626 C   0  0  0  0  0  0
  -25.4091  -36.3089   24.0319 C   0  0  1  0  0  0
  -20.5823  -28.3674   23.1328 C   0  0  2  0  0  0
  -20.6690  -26.9436   22.5394 C   0  0  0  0  0  0
  -19.5679  -26.6473   21.5179 C   0  0  0  0  0  0
  -18.1900  -26.7875   22.1681 C   0  0  0  0  0  0
  -19.1488  -28.8845   23.2885 C   0  0  0  0  0  0
  -18.9389  -30.1444   23.8917 C   0  0  0  0  0  0
  -17.6382  -30.6568   24.0567 C   0  0  0  0  0  0
  -25.9016  -34.9453   23.5130 C   0  0  0  0  0  0
  -16.5293  -29.9067   23.6291 C   0  0  0  0  0  0
  -16.7222  -28.6471   23.0339 C   0  0  0  0  0  0
  -26.4498  -31.6583   25.0750 C   0  0  0  0  0  0
  -25.3814  -31.3702   26.1546 C   0  0  0  0  0  0
  -27.0286  -30.2996   24.6125 C   0  0  0  0  0  0
  -27.6086  -32.4296   25.7496 C   0  0  0  0  0  0
  -27.5566  -37.1796   24.8443 C   0  0  0  0  0  0
  -21.4129  -29.3007   22.3723 N   0  0  0  0  0  0
  -26.4267  -37.3781   23.9407 N   0  0  0  0  0  0
  -24.6649  -31.0811   22.1081 N   0  0  0  0  0  0
  -23.4173  -28.8068   23.2951 O   0  0  0  0  0  0
  -28.3399  -26.6532   20.1464 O   0  0  0  0  0  0
  -26.5587  -34.8907   22.4696 O   0  0  0  0  0  0
  -23.5326  -32.1414   23.7590 O   0  0  0  0  0  0
  -21.3932  -14.1071   26.1843 C   0  0  0  0  0  0
  -20.4717  -13.9139   27.2336 C   0  0  0  0  0  0
  -21.3692  -15.8655   28.3859 C   0  0  0  0  0  0
  -22.3216  -15.1763   26.2387 C   0  0  0  0  0  0
  -20.4617  -14.7912   28.3345 C   0  0  0  0  0  0
  -22.2985  -16.0579   27.3456 C   0  0  0  0  0  0
  -24.5885  -15.2395   25.4012 C   0  0  0  0  0  0
  -25.1199  -22.8741   22.9727 C   0  0  0  0  0  0
  -30.2687  -14.5465   23.1199 C   0  0  0  0  0  0
  -23.6177  -24.5828   22.0336 C   0  0  0  0  0  0
  -25.6273  -15.6148   24.3186 C   0  0  0  0  0  0
  -23.8737  -21.9861   23.1811 C   0  0  0  0  0  0
  -27.0766  -15.2925   24.7287 C   0  0  0  0  0  0
  -24.2013  -20.5006   23.4034 C   0  0  0  0  0  0
  -22.9637  -19.5866   23.3568 C   0  0  0  0  0  0
  -23.3642  -18.1333   23.6282 C   0  0  0  0  0  0
  -22.1979  -17.1403   23.6884 C   0  0  0  0  0  0
  -27.5125  -24.6517   21.9175 C   0  0  0  0  0  0
  -22.6710  -15.6830   23.8523 C   0  0  0  0  0  0
  -25.9943  -24.9543   21.7810 C   0  0  0  0  0  0
  -28.1573  -15.7835   23.7477 C   0  0  0  0  0  0
  -28.4616  -25.7221   21.2631 C   0  0  0  0  0  0
  -31.0565  -13.5511   23.5649 N   0  0  0  0  0  0
  -30.3059  -15.0498   21.8660 N   0  0  0  0  0  0
  -23.2517  -15.3911   25.1742 N   0  0  0  0  0  0
  -24.9576  -24.0705   22.3535 N   0  0  0  0  0  0
  -29.3985  -15.0368   24.0202 N   0  3  0  0  0  0
  -25.0126  -14.7961   26.4751 O   0  0  0  0  0  0
  -26.2188  -22.4534   23.3447 O   0  0  0  0  0  0
  -19.5737  -14.6048   29.3415 F   0  0  0  0  0  0
  -23.1537  -17.1084   27.3985 F   0  0  0  0  0  0
  -31.4650  -12.4118   19.0489 H   0  0  0  0  0  0
  -30.3389  -11.2533   19.6976 H   0  0  0  0  0  0
  -29.6851  -11.8382   17.3772 H   0  0  0  0  0  0
  -29.6506  -13.5417   17.7741 H   0  0  0  0  0  0
  -27.7871  -11.3519   18.7551 H   0  0  0  0  0  0
  -27.3432  -12.7329   17.7844 H   0  0  0  0  0  0
  -27.7381  -14.2657   19.6556 H   0  0  0  0  0  0
  -28.6656  -11.8248   21.2390 H   0  0  0  0  0  0
  -28.4560  -13.4013   21.9109 H   0  0  0  0  0  0
  -25.2694   -9.5691   22.4759 H   0  0  0  0  0  0
  -23.9962   -7.4576   22.7454 H   0  0  0  0  0  0
  -21.0868   -8.8769   19.8843 H   0  0  0  0  0  0
  -22.3749  -10.9581   19.6002 H   0  0  0  0  0  0
  -21.1887   -7.6118   23.9737 H   0  0  0  0  0  0
  -21.1565   -6.0487   25.9115 H   0  0  0  0  0  0
  -22.0573   -2.7601   23.2858 H   0  0  0  0  0  0
  -22.4082  -11.9559   22.4383 H   0  0  0  0  0  0
  -21.0898  -13.0720   22.2057 H   0  0  0  0  0  0
  -24.6172  -15.7997   20.4675 H   0  0  0  0  0  0
  -26.2414  -15.6296   20.0388 H   0  0  0  0  0  0
  -26.7088  -32.5562   23.1203 H   0  0  0  0  0  0
  -25.0084  -33.9821   25.0546 H   0  0  0  0  0  0
  -22.6863  -31.3086   21.4263 H   0  0  0  0  0  0
  -23.3720  -35.9678   23.3301 H   0  0  0  0  0  0
  -24.3575  -36.8945   22.2031 H   0  0  0  0  0  0
  -23.7290  -37.6536   23.6661 H   0  0  0  0  0  0
  -26.0435  -31.6197   20.6140 H   0  0  0  0  0  0
  -26.8142  -30.8859   21.9931 H   0  0  0  0  0  0
  -28.0863  -29.0954   21.1955 H   0  0  0  0  0  0
  -26.0958  -26.0531   18.8987 H   0  0  0  0  0  0
  -23.9888  -27.3523   18.9576 H   0  0  0  0  0  0
  -23.7181  -30.6325   19.4181 H   0  0  0  0  0  0
  -22.7365  -29.2647   19.8558 H   0  0  0  0  0  0
  -25.1265  -36.1930   25.0808 H   0  0  0  0  0  0
  -20.9900  -28.3279   24.1451 H   0  0  0  0  0  0
  -20.5632  -26.2269   23.3543 H   0  0  0  0  0  0
  -21.6518  -26.7552   22.1110 H   0  0  0  0  0  0
  -19.6862  -25.6439   21.1073 H   0  0  0  0  0  0
  -19.6549  -27.3412   20.6802 H   0  0  0  0  0  0
  -17.4105  -26.6481   21.4173 H   0  0  0  0  0  0
  -18.0479  -26.0050   22.9140 H   0  0  0  0  0  0
  -19.7864  -30.7253   24.2334 H   0  0  0  0  0  0
  -17.4928  -31.6244   24.5175 H   0  0  0  0  0  0
  -15.5278  -30.2957   23.7624 H   0  0  0  0  0  0
  -15.8625  -28.0782   22.7065 H   0  0  0  0  0  0
  -24.5967  -30.7045   25.7937 H   0  0  0  0  0  0
  -24.9048  -32.2871   26.5011 H   0  0  0  0  0  0
  -25.8219  -30.8883   27.0290 H   0  0  0  0  0  0
  -26.2820  -29.6767   24.1189 H   0  0  0  0  0  0
  -27.4024  -29.7199   25.4576 H   0  0  0  0  0  0
  -27.8678  -30.4240   23.9288 H   0  0  0  0  0  0
  -27.2693  -33.3561   26.2150 H   0  0  0  0  0  0
  -28.3861  -32.6930   25.0304 H   0  0  0  0  0  0
  -28.0812  -31.8394   26.5371 H   0  0  0  0  0  0
  -28.2552  -38.0114   24.7482 H   0  0  0  0  0  0
  -28.1088  -36.2644   24.6250 H   0  0  0  0  0  0
  -27.2302  -37.1419   25.8850 H   0  0  0  0  0  0
  -20.9319  -29.8773   21.6967 H   0  0  0  0  0  0
  -26.0138  -38.2833   24.1487 H   0  0  0  0  0  0
  -21.3827  -13.4250   25.3458 H   0  0  0  0  0  0
  -19.7700  -13.0936   27.2001 H   0  0  0  0  0  0
  -21.3474  -16.5479   29.2210 H   0  0  0  0  0  0
  -23.2525  -24.1238   21.1131 H   0  0  0  0  0  0
  -23.6254  -25.6621   21.8711 H   0  0  0  0  0  0
  -22.8898  -24.3953   22.8239 H   0  0  0  0  0  0
  -25.5633  -16.6771   24.0995 H   0  0  0  0  0  0
  -25.4155  -15.0733   23.3991 H   0  0  0  0  0  0
  -23.2376  -22.0503   22.2970 H   0  0  0  0  0  0
  -23.2944  -22.3731   24.0216 H   0  0  0  0  0  0
  -27.1582  -14.2105   24.8487 H   0  0  0  0  0  0
  -27.2925  -15.7337   25.7046 H   0  0  0  0  0  0
  -24.7120  -20.3882   24.3614 H   0  0  0  0  0  0
  -24.9061  -20.1687   22.6398 H   0  0  0  0  0  0
  -22.4954  -19.6529   22.3731 H   0  0  0  0  0  0
  -22.2169  -19.9145   24.0829 H   0  0  0  0  0  0
  -23.9067  -18.0946   24.5721 H   0  0  0  0  0  0
  -24.0517  -17.8148   22.8429 H   0  0  0  0  0  0
  -21.6213  -17.2089   22.7664 H   0  0  0  0  0  0
  -21.5123  -17.4058   24.4934 H   0  0  0  0  0  0
  -27.7251  -23.6483   21.5362 H   0  0  0  0  0  0
  -27.7707  -24.5959   22.9762 H   0  0  0  0  0  0
  -23.3500  -15.4375   23.0421 H   0  0  0  0  0  0
  -21.8132  -15.0285   23.6964 H   0  0  0  0  0  0
  -25.7688  -24.9156   20.7218 H   0  0  0  0  0  0
  -25.8104  -25.9722   22.1260 H   0  0  0  0  0  0
  -28.3268  -16.8562   23.8400 H   0  0  0  0  0  0
  -27.8373  -15.6033   22.7203 H   0  0  0  0  0  0
  -28.0562  -26.4747   21.9419 H   0  0  0  0  0  0
  -28.0999  -25.2036   20.3718 H   0  0  0  0  0  0
  -31.8214  -13.1704   23.0240 H   0  0  0  0  0  0
  -30.9493  -13.1707   24.4947 H   0  0  0  0  0  0
  -30.3704  -16.0545   21.8722 H   0  0  0  0  0  0
  -29.5674  -14.8541   24.9987 H   0  0  0  0  0  0
  1 25  1  0  0  0
  1 30  2  0  0  0
  1 94  1  0  0  0
  2  3  1  0  0  0
  2 25  1  0  0  0
  2102  1  0  0  0
  2103  1  0  0  0
  3  4  1  0  0  0
  3104  1  0  0  0
  3105  1  0  0  0
  4  5  1  0  0  0
  4106  1  0  0  0
  4107  1  0  0  0
  5  6  1  0  0  0
  5 26  1  0  0  0
  5108  1  0  0  0
  6 25  1  0  0  0
  6109  1  0  0  0
  6110  1  0  0  0
  7  8  2  0  0  0
  7 26  1  0  0  0
  7 29  1  0  0  0
  8  9  1  0  0  0
  8 22  1  0  0  0
  9 10  1  0  0  0
  9 27  2  0  0  0
 10 11  2  0  0  0
 10 15  1  0  0  0
 11 12  1  0  0  0
 11111  1  0  0  0
 12 13  2  0  0  0
 12112  1  0  0  0
 13 14  1  0  0  0
 13 31  1  0  0  0
 14 15  2  0  0  0
 14113  1  0  0  0
 15114  1  0  0  0
 16 17  2  0  0  0
 16 21  1  0  0  0
 16 31  1  0  0  0
 17 18  1  0  0  0
 17115  1  0  0  0
 18 19  2  0  0  0
 18116  1  0  0  0
 19 20  1  0  0  0
 19 24  1  0  0  0
 20 21  2  0  0  0
 20117  1  0  0  0
 21 23  1  0  0  0
 22 28  1  0  0  0
 22 32  2  0  0  0
 26 27  1  0  0  0
 28118  1  0  0  0
 28119  1  0  0  0
 29120  1  0  0  0
 29121  1  0  0  0
 33 34  1  0  0  0
 33 66  1  0  0  0
 33 70  2  0  0  0
 34 36  1  0  0  0
 34 59  1  0  0  0
 34122  1  0  0  0
 35 44  2  0  0  0
 35 45  1  0  0  0
 35 68  1  0  0  0
 36 56  1  0  0  0
 36123  1  0  0  0
 37 39  1  0  0  0
 37 47  1  0  0  0
 37 66  1  0  0  0
 37124  1  0  0  0
 38 43  2  0  0  0
 38 46  1  0  0  0
 38 47  1  0  0  0
 39 64  1  0  0  0
 39 67  2  0  0  0
 40 52  1  0  0  0
 40 53  2  0  0  0
 40 58  1  0  0  0
 41125  1  0  0  0
 41126  1  0  0  0
 41127  1  0  0  0
 41 48  1  0  0  0
 42 43  1  0  0  0
 42 66  1  0  0  0
 42128  1  0  0  0
 42129  1  0  0  0
 43 44  1  0  0  0
 44130  1  0  0  0
 45 46  2  0  0  0
 45131  1  0  0  0
 46132  1  0  0  0
 47133  1  0  0  0
 47134  1  0  0  0
 48 56  1  0  0  0
 48 65  1  0  0  0
 48135  1  0  0  0
 49 50  1  0  0  0
 49 53  1  0  0  0
 49 64  1  0  0  0
 49136  1  0  0  0
 50 51  1  0  0  0
 50137  1  0  0  0
 50138  1  0  0  0
 51 52  1  0  0  0
 51139  1  0  0  0
 51140  1  0  0  0
 52141  1  0  0  0
 52142  1  0  0  0
 53 54  1  0  0  0
 54 55  2  0  0  0
 54143  1  0  0  0
 55 57  1  0  0  0
 55144  1  0  0  0
 56 69  2  0  0  0
 57 58  2  0  0  0
 57145  1  0  0  0
 58146  1  0  0  0
 59 60  1  0  0  0
 59 61  1  0  0  0
 59 62  1  0  0  0
 60147  1  0  0  0
 60148  1  0  0  0
 60149  1  0  0  0
 61150  1  0  0  0
 61151  1  0  0  0
 61152  1  0  0  0
 62153  1  0  0  0
 62154  1  0  0  0
 62155  1  0  0  0
 63 65  1  0  0  0
 63156  1  0  0  0
 63157  1  0  0  0
 63158  1  0  0  0
 64159  1  0  0  0
 65160  1  0  0  0
 68 92  1  0  0  0
 71 72  2  0  0  0
 71 74  1  0  0  0
 71161  1  0  0  0
 72 75  1  0  0  0
 72162  1  0  0  0
 73 75  2  0  0  0
 73 76  1  0  0  0
 73163  1  0  0  0
 74 76  2  0  0  0
 74 95  1  0  0  0
 75100  1  0  0  0
 76101  1  0  0  0
 77 81  1  0  0  0
 77 95  1  0  0  0
 77 98  2  0  0  0
 78 82  1  0  0  0
 78 96  1  0  0  0
 78 99  2  0  0  0
 79 93  1  0  0  0
 79 94  1  0  0  0
 79 97  2  0  0  0
 80 96  1  0  0  0
 80164  1  0  0  0
 80165  1  0  0  0
 80166  1  0  0  0
 81 83  1  0  0  0
 81167  1  0  0  0
 81168  1  0  0  0
 82 84  1  0  0  0
 82169  1  0  0  0
 82170  1  0  0  0
 83 91  1  0  0  0
 83171  1  0  0  0
 83172  1  0  0  0
 84 85  1  0  0  0
 84173  1  0  0  0
 84174  1  0  0  0
 85 86  1  0  0  0
 85175  1  0  0  0
 85176  1  0  0  0
 86 87  1  0  0  0
 86177  1  0  0  0
 86178  1  0  0  0
 87 89  1  0  0  0
 87179  1  0  0  0
 87180  1  0  0  0
 88 90  1  0  0  0
 88 92  1  0  0  0
 88181  1  0  0  0
 88182  1  0  0  0
 89 95  1  0  0  0
 89183  1  0  0  0
 89184  1  0  0  0
 90 96  1  0  0  0
 90185  1  0  0  0
 90186  1  0  0  0
 91 97  1  0  0  0
 91187  1  0  0  0
 91188  1  0  0  0
 92189  1  0  0  0
 92190  1  0  0  0
 93191  1  0  0  0
 93192  1  0  0  0
 94193  1  0  0  0
 97194  1  0  0  0
M  CHG  1  97   1
M  ISO  4   1 100  68 101  92 101  94 100
M  END
> <chiral flag>
0

> <version>
0

> <s_m_source_file>
/data/baiqing/PycharmProjects/Reinvent-master-3.2/result/LINK_invent/BTK/process_docking_weight1_custom_sum_contain_oxygen_bond_distance_aromatic_linkinvent_7_9_3/rearranged_h_0004.sdf

> <i_m_source_file_index>
77

> <r_mmod_Potential_Energy-OPLS-2005>
255.526901245117

> <r_mmod_Stretch_Energy-OPLS-2005>
45.8370971679688

> <r_mmod_Bend_Energy-OPLS-2005>
361.967437744141

> <r_mmod_Torsional_Energy-OPLS-2005>
410.674041748047

> <r_mmod_Improper_Torsional_Energy-OPLS-2005>
4.86785125732422

> <r_mmod_Van_der_Waal_Energy-OPLS-2005>
167.082626342773

> <r_mmod_Electrostatic_Energy-OPLS-2005>
-277.300628662109

> <r_mmod_Solvation_Energy-OPLS-2005>
-470.986785888672

> <b_mmod_Minimization_Converged-OPLS-2005>
0

> <r_mmod_RMS_Derivative-OPLS-2005>
4.48295307159424

$$$$
77
                    3D
 Structure written by MMmdl.
187196  0  0  1  0            999 V2000
  -30.8442  -14.2779   20.7794 C   0  0  0  0  0  0
  -30.4051  -12.2953   19.3788 C   0  0  0  0  0  0
  -29.4738  -12.5409   18.1814 C   0  0  0  0  0  0
  -28.0033  -12.3842   18.6031 C   0  0  0  0  0  0
  -27.6650  -13.2084   19.8725 C   0  0  2  0  0  0
  -28.7022  -12.9717   20.9930 C   0  0  0  0  0  0
  -25.2591  -13.8169   20.5663 C   0  0  0  0  0  0
  -24.1833  -13.0452   20.9163 C   0  0  0  0  0  0
  -24.6401  -11.6914   20.8724 C   0  0  0  0  0  0
  -23.9065  -10.4298   21.0399 C   0  0  0  0  0  0
  -24.3627   -9.4200   21.9165 C   0  0  0  0  0  0
  -23.6300   -8.2234   22.0740 C   0  0  0  0  0  0
  -22.4273   -8.0280   21.3537 C   0  0  0  0  0  0
  -21.9885   -9.0273   20.4661 C   0  0  0  0  0  0
  -22.7223  -10.2150   20.3074 C   0  0  0  0  0  0
  -21.6849   -6.0734   22.5277 C   0  0  0  0  0  0
  -21.4021   -6.5640   23.8211 C   0  0  0  0  0  0
  -21.3660   -5.6794   24.9175 C   0  0  0  0  0  0
  -21.6047   -4.3053   24.7217 C   0  0  0  0  0  0
  -21.8816   -3.8146   23.4341 C   0  0  0  0  0  0
  -21.9194   -4.6965   22.3399 C   0  0  0  0  0  0
  -22.7862  -13.5242   21.1846 C   0  0  0  0  0  0
  -22.1658   -4.2148   21.0975 F   0  0  0  0  0  0
  -21.5627   -3.4547   25.7736 F   0  0  0  0  0  0
  -30.0513  -13.2255   20.4586 N   0  0  0  0  0  0
  -26.3039  -12.9358   20.3350 N   0  0  0  0  0  0
  -25.9321  -11.6510   20.5726 N   0  0  0  0  0  0
  -22.0528  -12.8270   22.0452 N   0  0  0  0  0  0
  -25.4305  -15.1889   20.4095 N   0  0  0  0  0  0
  -31.7626  -14.6844   20.0614 O   0  0  0  0  0  0
  -21.6638   -6.8876   21.4236 O   0  0  0  0  0  0
  -22.3534  -14.5538   20.6681 O   0  0  0  0  0  0
  -24.6100  -31.8701   23.2164 C   0  0  0  0  0  0
  -25.8995  -32.4839   23.8449 C   0  0  1  0  0  0
  -27.2271  -27.4628   20.0845 C   0  0  0  0  0  0
  -25.5848  -33.8639   24.2367 N   0  0  0  0  0  0
  -23.3987  -30.4918   21.5592 C   0  0  2  0  0  0
  -24.8441  -28.9551   20.1274 C   0  0  0  0  0  0
  -22.7384  -29.4658   22.5057 C   0  0  0  0  0  0
  -18.0259  -28.1385   22.8500 C   0  0  0  0  0  0
  -24.1485  -36.7340   23.2649 C   0  0  0  0  0  0
  -25.9274  -30.8334   21.3767 C   0  0  0  0  0  0
  -26.0042  -29.4710   20.7217 C   0  0  0  0  0  0
  -27.2016  -28.7285   20.7077 C   0  0  0  0  0  0
  -26.0553  -26.9481   19.4958 C   0  0  0  0  0  0
  -24.8580  -27.6876   19.5189 C   0  0  0  0  0  0
  -23.6050  -29.8206   20.1759 C   0  0  0  0  0  0
  -25.4096  -36.3128   24.0367 C   0  0  1  0  0  0
  -20.5831  -28.3637   23.1333 C   0  0  2  0  0  0
  -20.6780  -26.9393   22.5415 C   0  0  0  0  0  0
  -19.5757  -26.6381   21.5219 C   0  0  0  0  0  0
  -18.1918  -26.7946   22.1586 C   0  0  0  0  0  0
  -19.1497  -28.8814   23.2926 C   0  0  0  0  0  0
  -18.9443  -30.1438   23.8932 C   0  0  0  0  0  0
  -17.6459  -30.6626   24.0538 C   0  0  0  0  0  0
  -25.9015  -34.9489   23.5165 C   0  0  0  0  0  0
  -16.5336  -29.9111   23.6350 C   0  0  0  0  0  0
  -16.7230  -28.6515   23.0379 C   0  0  0  0  0  0
  -26.4416  -31.6631   25.0778 C   0  0  0  0  0  0
  -25.3665  -31.3693   26.1485 C   0  0  0  0  0  0
  -27.0312  -30.3082   24.6241 C   0  0  0  0  0  0
  -27.6015  -32.4303   25.7541 C   0  0  0  0  0  0
  -27.5586  -37.1815   24.8456 C   0  0  0  0  0  0
  -21.4120  -29.3013   22.3774 N   0  0  0  0  0  0
  -26.4299  -37.3788   23.9416 N   0  0  0  0  0  0
  -24.6639  -31.0793   22.1085 N   0  0  0  0  0  0
  -23.4179  -28.8239   23.3113 O   0  0  0  0  0  0
  -28.3825  -26.7351   19.9879 O   0  0  0  0  0  0
  -26.5600  -34.8917   22.4745 O   0  0  0  0  0  0
  -23.5285  -32.1446   23.7537 O   0  0  0  0  0  0
  -22.8587  -19.8911   22.7754 C   0  0  0  0  0  0
  -22.2892  -20.0970   21.4897 C   0  0  0  0  0  0
  -23.9686  -20.6842   22.8649 C   0  0  0  0  0  0
  -23.0716  -21.0048   20.8314 C   0  0  0  0  0  0
  -28.8739  -22.3004   23.7653 C   0  0  0  0  0  0
  -27.9766  -23.7474   20.8256 C   0  0  0  0  0  0
  -27.1454  -23.5455   25.7108 C   0  0  0  0  0  0
  -26.7061  -23.6382   24.2511 C   0  0  0  0  0  0
  -27.7270  -22.1511   25.9802 C   0  0  0  0  0  0
  -27.9085  -23.4150   23.3017 C   0  0  2  0  0  0
  -29.1915  -24.6856   20.9531 C   0  0  0  0  0  0
  -30.5730  -18.4378   24.6760 C   0  0  0  0  0  0
  -30.3752  -17.1215   23.9028 C   0  0  0  0  0  0
  -29.3299  -19.3316   24.7463 C   0  0  0  0  0  0
  -31.6924  -16.6890   23.2352 C   0  0  0  0  0  0
  -25.1193  -22.3835   21.3650 C   0  0  0  0  0  0
  -29.6596  -20.6818   25.4229 C   0  0  0  0  0  0
  -31.8189  -15.1989   22.8753 C   0  0  0  0  0  0
  -26.5607  -21.9633   21.7312 C   0  0  0  0  0  0
  -28.8369  -26.1631   21.2061 C   0  0  0  0  0  0
  -24.1130  -21.3717   21.6691 N   0  0  0  0  0  0
  -28.7493  -21.7550   25.0009 N   0  0  0  0  0  0
  -30.7278  -14.6581   22.0612 N   0  0  0  0  0  0
  -27.4559  -23.1298   21.9183 N   0  0  0  0  0  0
  -29.7614  -21.9480   22.9816 O   0  0  0  0  0  0
  -27.5469  -23.5254   19.6900 O   0  0  0  0  0  0
  -31.4488  -12.3898   19.0729 H   0  0  0  0  0  0
  -30.2930  -11.2689   19.7354 H   0  0  0  0  0  0
  -29.7053  -11.8444   17.3742 H   0  0  0  0  0  0
  -29.6423  -13.5410   17.7802 H   0  0  0  0  0  0
  -27.8161  -11.3252   18.7856 H   0  0  0  0  0  0
  -27.3452  -12.6751   17.7828 H   0  0  0  0  0  0
  -27.7162  -14.2607   19.5909 H   0  0  0  0  0  0
  -28.6446  -11.9424   21.3525 H   0  0  0  0  0  0
  -28.4524  -13.6054   21.8452 H   0  0  0  0  0  0
  -25.2792   -9.5662   22.4711 H   0  0  0  0  0  0
  -24.0024   -7.4615   22.7437 H   0  0  0  0  0  0
  -21.0800   -8.8803   19.8985 H   0  0  0  0  0  0
  -22.3669  -10.9701   19.6192 H   0  0  0  0  0  0
  -21.2016   -7.6158   23.9705 H   0  0  0  0  0  0
  -21.1487   -6.0534   25.9075 H   0  0  0  0  0  0
  -22.0596   -2.7614   23.2846 H   0  0  0  0  0  0
  -22.4153  -11.9955   22.4877 H   0  0  0  0  0  0
  -21.1178  -13.1348   22.2711 H   0  0  0  0  0  0
  -24.6691  -15.8478   20.5270 H   0  0  0  0  0  0
  -26.2936  -15.6290   20.1156 H   0  0  0  0  0  0
  -26.7079  -32.5569   23.1238 H   0  0  0  0  0  0
  -24.9888  -33.9794   25.0429 H   0  0  0  0  0  0
  -22.6903  -31.3106   21.4228 H   0  0  0  0  0  0
  -23.3744  -35.9664   23.3300 H   0  0  0  0  0  0
  -24.3593  -36.8953   22.2057 H   0  0  0  0  0  0
  -23.7212  -37.6549   23.6654 H   0  0  0  0  0  0
  -26.0444  -31.6053   20.6144 H   0  0  0  0  0  0
  -26.8120  -30.8763   22.0005 H   0  0  0  0  0  0
  -28.1031  -29.1226   21.1545 H   0  0  0  0  0  0
  -26.0738  -25.9773   19.0200 H   0  0  0  0  0  0
  -23.9607  -27.2842   19.0704 H   0  0  0  0  0  0
  -23.7048  -30.5898   19.4071 H   0  0  0  0  0  0
  -22.7298  -29.2315   19.8924 H   0  0  0  0  0  0
  -25.1266  -36.2041   25.0857 H   0  0  0  0  0  0
  -20.9875  -28.3221   24.1457 H   0  0  0  0  0  0
  -20.5722  -26.2252   23.3587 H   0  0  0  0  0  0
  -21.6672  -26.7518   22.1183 H   0  0  0  0  0  0
  -19.6953  -25.6300   21.1234 H   0  0  0  0  0  0
  -19.6737  -27.3215   20.6776 H   0  0  0  0  0  0
  -17.4207  -26.6672   21.3984 H   0  0  0  0  0  0
  -18.0315  -26.0115   22.8988 H   0  0  0  0  0  0
  -19.7937  -30.7210   24.2347 H   0  0  0  0  0  0
  -17.5034  -31.6323   24.5117 H   0  0  0  0  0  0
  -15.5341  -30.2999   23.7749 H   0  0  0  0  0  0
  -15.8605  -28.0835   22.7113 H   0  0  0  0  0  0
  -24.5937  -30.6947   25.7802 H   0  0  0  0  0  0
  -24.8702  -32.2770   26.4911 H   0  0  0  0  0  0
  -25.7964  -30.8904   27.0284 H   0  0  0  0  0  0
  -26.2938  -29.6822   24.1198 H   0  0  0  0  0  0
  -27.3960  -29.7355   25.4804 H   0  0  0  0  0  0
  -27.8811  -30.4451   23.9539 H   0  0  0  0  0  0
  -27.2753  -33.3648   26.2139 H   0  0  0  0  0  0
  -28.3832  -32.6773   25.0338 H   0  0  0  0  0  0
  -28.0678  -31.8380   26.5437 H   0  0  0  0  0  0
  -28.2584  -38.0137   24.7544 H   0  0  0  0  0  0
  -28.1116  -36.2663   24.6260 H   0  0  0  0  0  0
  -27.2309  -37.1441   25.8860 H   0  0  0  0  0  0
  -20.9308  -29.8671   21.6924 H   0  0  0  0  0  0
  -26.0228  -38.2891   24.1367 H   0  0  0  0  0  0
  -22.4829  -19.2444   23.5583 H   0  0  0  0  0  0
  -21.3911  -19.6407   21.0952 H   0  0  0  0  0  0
  -24.6587  -20.8279   23.6838 H   0  0  0  0  0  0
  -22.9663  -21.4371   19.8440 H   0  0  0  0  0  0
  -26.3050  -23.7478   26.3763 H   0  0  0  0  0  0
  -27.8977  -24.3081   25.9205 H   0  0  0  0  0  0
  -26.2640  -24.6162   24.0586 H   0  0  0  0  0  0
  -25.9099  -22.9128   24.0929 H   0  0  0  0  0  0
  -26.9270  -21.4111   25.9493 H   0  0  0  0  0  0
  -28.1293  -22.1244   26.9934 H   0  0  0  0  0  0
  -28.4784  -24.3400   23.3646 H   0  0  0  0  0  0
  -29.7704  -24.6146   20.0326 H   0  0  0  0  0  0
  -29.8738  -24.3319   21.7216 H   0  0  0  0  0  0
  -31.3600  -19.0120   24.1852 H   0  0  0  0  0  0
  -30.9476  -18.2234   25.6783 H   0  0  0  0  0  0
  -29.6124  -17.2356   23.1322 H   0  0  0  0  0  0
  -30.0079  -16.3535   24.5847 H   0  0  0  0  0  0
  -28.5178  -18.8282   25.2739 H   0  0  0  0  0  0
  -28.9767  -19.4877   23.7265 H   0  0  0  0  0  0
  -32.5151  -16.9170   23.9156 H   0  0  0  0  0  0
  -31.8663  -17.3025   22.3509 H   0  0  0  0  0  0
  -25.0729  -22.6252   20.3018 H   0  0  0  0  0  0
  -24.8392  -23.2889   21.9012 H   0  0  0  0  0  0
  -30.6810  -20.9853   25.1761 H   0  0  0  0  0  0
  -29.6590  -20.5590   26.5064 H   0  0  0  0  0  0
  -31.8559  -14.6152   23.7954 H   0  0  0  0  0  0
  -32.7860  -15.0349   22.3925 H   0  0  0  0  0  0
  -26.9635  -21.3021   20.9612 H   0  0  0  0  0  0
  -26.5606  -21.3474   22.6278 H   0  0  0  0  0  0
  -29.7317  -26.7018   21.5231 H   0  0  0  0  0  0
  -28.1039  -26.2589   22.0114 H   0  0  0  0  0  0
  -29.9596  -14.2375   22.5643 H   0  0  0  0  0  0
  1 25  1  0  0  0
  1 30  2  0  0  0
  1 93  1  0  0  0
  2  3  1  0  0  0
  2 25  1  0  0  0
  2 97  1  0  0  0
  2 98  1  0  0  0
  3  4  1  0  0  0
  3 99  1  0  0  0
  3100  1  0  0  0
  4  5  1  0  0  0
  4101  1  0  0  0
  4102  1  0  0  0
  5  6  1  0  0  0
  5 26  1  0  0  0
  5103  1  0  0  0
  6 25  1  0  0  0
  6104  1  0  0  0
  6105  1  0  0  0
  7  8  2  0  0  0
  7 26  1  0  0  0
  7 29  1  0  0  0
  8  9  1  0  0  0
  8 22  1  0  0  0
  9 10  1  0  0  0
  9 27  2  0  0  0
 10 11  2  0  0  0
 10 15  1  0  0  0
 11 12  1  0  0  0
 11106  1  0  0  0
 12 13  2  0  0  0
 12107  1  0  0  0
 13 14  1  0  0  0
 13 31  1  0  0  0
 14 15  2  0  0  0
 14108  1  0  0  0
 15109  1  0  0  0
 16 17  2  0  0  0
 16 21  1  0  0  0
 16 31  1  0  0  0
 17 18  1  0  0  0
 17110  1  0  0  0
 18 19  2  0  0  0
 18111  1  0  0  0
 19 20  1  0  0  0
 19 24  1  0  0  0
 20 21  2  0  0  0
 20112  1  0  0  0
 21 23  1  0  0  0
 22 28  1  0  0  0
 22 32  2  0  0  0
 26 27  1  0  0  0
 28113  1  0  0  0
 28114  1  0  0  0
 29115  1  0  0  0
 29116  1  0  0  0
 33 34  1  0  0  0
 33 66  1  0  0  0
 33 70  2  0  0  0
 34 36  1  0  0  0
 34 59  1  0  0  0
 34117  1  0  0  0
 35 44  2  0  0  0
 35 45  1  0  0  0
 35 68  1  0  0  0
 36 56  1  0  0  0
 36118  1  0  0  0
 37 39  1  0  0  0
 37 47  1  0  0  0
 37 66  1  0  0  0
 37119  1  0  0  0
 38 43  2  0  0  0
 38 46  1  0  0  0
 38 47  1  0  0  0
 39 64  1  0  0  0
 39 67  2  0  0  0
 40 52  1  0  0  0
 40 53  2  0  0  0
 40 58  1  0  0  0
 41120  1  0  0  0
 41121  1  0  0  0
 41122  1  0  0  0
 41 48  1  0  0  0
 42 43  1  0  0  0
 42 66  1  0  0  0
 42123  1  0  0  0
 42124  1  0  0  0
 43 44  1  0  0  0
 44125  1  0  0  0
 45 46  2  0  0  0
 45126  1  0  0  0
 46127  1  0  0  0
 47128  1  0  0  0
 47129  1  0  0  0
 48 56  1  0  0  0
 48 65  1  0  0  0
 48130  1  0  0  0
 49 50  1  0  0  0
 49 53  1  0  0  0
 49 64  1  0  0  0
 49131  1  0  0  0
 50 51  1  0  0  0
 50132  1  0  0  0
 50133  1  0  0  0
 51 52  1  0  0  0
 51134  1  0  0  0
 51135  1  0  0  0
 52136  1  0  0  0
 52137  1  0  0  0
 53 54  1  0  0  0
 54 55  2  0  0  0
 54138  1  0  0  0
 55 57  1  0  0  0
 55139  1  0  0  0
 56 69  2  0  0  0
 57 58  2  0  0  0
 57140  1  0  0  0
 58141  1  0  0  0
 59 60  1  0  0  0
 59 61  1  0  0  0
 59 62  1  0  0  0
 60142  1  0  0  0
 60143  1  0  0  0
 60144  1  0  0  0
 61145  1  0  0  0
 61146  1  0  0  0
 61147  1  0  0  0
 62148  1  0  0  0
 62149  1  0  0  0
 62150  1  0  0  0
 63 65  1  0  0  0
 63151  1  0  0  0
 63152  1  0  0  0
 63153  1  0  0  0
 64154  1  0  0  0
 65155  1  0  0  0
 68 90  1  0  0  0
 71 72  1  0  0  0
 71 73  2  0  0  0
 71156  1  0  0  0
 72 74  2  0  0  0
 72157  1  0  0  0
 73 91  1  0  0  0
 73158  1  0  0  0
 74 91  1  0  0  0
 74159  1  0  0  0
 75 80  1  0  0  0
 75 92  1  0  0  0
 75 95  2  0  0  0
 76 81  1  0  0  0
 76 94  1  0  0  0
 76 96  2  0  0  0
 77 78  1  0  0  0
 77 79  1  0  0  0
 77160  1  0  0  0
 77161  1  0  0  0
 78 80  1  0  0  0
 78162  1  0  0  0
 78163  1  0  0  0
 79 92  1  0  0  0
 79164  1  0  0  0
 79165  1  0  0  0
 80 94  1  0  0  0
 80166  1  0  0  0
 81 90  1  0  0  0
 81167  1  0  0  0
 81168  1  0  0  0
 82 83  1  0  0  0
 82 84  1  0  0  0
 82169  1  0  0  0
 82170  1  0  0  0
 83 85  1  0  0  0
 83171  1  0  0  0
 83172  1  0  0  0
 84 87  1  0  0  0
 84173  1  0  0  0
 84174  1  0  0  0
 85 88  1  0  0  0
 85175  1  0  0  0
 85176  1  0  0  0
 86 89  1  0  0  0
 86 91  1  0  0  0
 86177  1  0  0  0
 86178  1  0  0  0
 87 92  1  0  0  0
 87179  1  0  0  0
 87180  1  0  0  0
 88 93  1  0  0  0
 88181  1  0  0  0
 88182  1  0  0  0
 89 94  1  0  0  0
 89183  1  0  0  0
 89184  1  0  0  0
 90185  1  0  0  0
 90186  1  0  0  0
 93187  1  0  0  0
M  ISO  4   1 100  68 101  90 101  93 100
M  END
> <chiral flag>
0

> <version>
0

> <s_m_source_file>
/data/baiqing/PycharmProjects/Reinvent-master-3.2/result/LINK_invent/BTK/process_docking_weight1_custom_sum_contain_oxygen_bond_distance_aromatic_linkinvent_7_9_3/rearranged_h_0004.sdf

> <i_m_source_file_index>
78

> <r_mmod_Potential_Energy-OPLS-2005>
-5.87909412384033

> <r_mmod_Stretch_Energy-OPLS-2005>
37.8397178649902

> <r_mmod_Bend_Energy-OPLS-2005>
104.701354980469

> <r_mmod_Torsional_Energy-OPLS-2005>
328.137176513672

> <r_mmod_Improper_Torsional_Energy-OPLS-2005>
8.08745002746582

> <r_mmod_Van_der_Waal_Energy-OPLS-2005>
146.40657043457

> <r_mmod_Electrostatic_Energy-OPLS-2005>
-398.201843261719

> <r_mmod_Solvation_Energy-OPLS-2005>
-242.568237304688

> <b_mmod_Minimization_Converged-OPLS-2005>
0

> <r_mmod_RMS_Derivative-OPLS-2005>
4.35483074188232

$$$$
78
                    3D
 Structure written by MMmdl.
182190  0  0  1  0            999 V2000
  -29.5617  -15.5398   20.7411 C   0  0  0  0  0  0
  -30.3065  -13.1342   19.6584 C   0  0  0  0  0  0
  -29.5148  -12.6926   18.3731 C   0  0  0  0  0  0
  -28.0826  -12.2675   18.7326 C   0  0  0  0  0  0
  -27.5162  -13.2103   19.8120 C   0  0  2  0  0  0
  -28.4162  -13.3004   21.0376 C   0  0  0  0  0  0
  -25.1945  -13.8050   20.5499 C   0  0  0  0  0  0
  -24.1364  -13.0346   20.9298 C   0  0  0  0  0  0
  -24.5921  -11.6806   20.8734 C   0  0  0  0  0  0
  -23.8712  -10.4229   21.0501 C   0  0  0  0  0  0
  -24.3386   -9.4168   21.9238 C   0  0  0  0  0  0
  -23.6161   -8.2137   22.0768 C   0  0  0  0  0  0
  -22.4155   -8.0147   21.3530 C   0  0  0  0  0  0
  -21.9712   -9.0096   20.4638 C   0  0  0  0  0  0
  -22.6942  -10.2031   20.3106 C   0  0  0  0  0  0
  -21.6811   -6.0637   22.5282 C   0  0  0  0  0  0
  -21.3967   -6.5574   23.8206 C   0  0  0  0  0  0
  -21.3664   -5.6747   24.9187 C   0  0  0  0  0  0
  -21.6050   -4.3012   24.7245 C   0  0  0  0  0  0
  -21.8830   -3.8086   23.4379 C   0  0  0  0  0  0
  -21.9176   -4.6876   22.3421 C   0  0  0  0  0  0
  -22.7487  -13.5223   21.2054 C   0  0  0  0  0  0
  -22.1649   -4.2048   21.1003 F   0  0  0  0  0  0
  -21.5648   -3.4531   25.7782 F   0  0  0  0  0  0
  -29.4954  -14.1041   20.5567 N   0  0  0  0  0  0
  -26.1993  -12.9052   20.2630 N   0  0  0  0  0  0
  -25.8677  -11.6270   20.5324 N   0  0  0  0  0  0
  -22.0117  -12.8233   22.0588 N   0  0  0  0  0  0
  -25.3899  -15.1783   20.3855 N   0  0  0  0  0  0
  -30.7488  -15.8297   20.4035 O   0  0  0  0  0  0
  -21.6592   -6.8712   21.4205 O   0  0  0  0  0  0
  -22.3245  -14.5567   20.6921 O   0  0  0  0  0  0
  -24.7008  -31.9518   23.2308 C   0  0  0  0  0  0
  -25.9826  -32.5073   23.8666 C   0  0  1  0  0  0
  -26.6384  -27.1239   20.0500 C   0  0  0  0  0  0
  -25.6659  -33.8852   24.2617 N   0  0  0  0  0  0
  -23.4620  -30.6843   21.5946 C   0  0  2  0  0  0
  -24.7784  -29.1210   20.0390 C   0  0  0  0  0  0
  -22.8695  -29.7324   22.6508 C   0  0  0  0  0  0
  -18.3010  -27.1543   23.2068 C   0  0  0  0  0  0
  -24.1530  -36.7314   23.2586 C   0  0  0  0  0  0
  -26.0229  -30.7274   21.4641 C   0  0  0  0  0  0
  -25.9517  -29.3694   20.7582 C   0  0  0  0  0  0
  -26.9010  -28.2963   20.8538 C   0  0  0  0  0  0
  -25.8486  -27.2811   18.9442 C   0  0  0  0  0  0
  -24.7293  -28.0778   19.1154 C   0  0  0  0  0  0
  -23.6318  -30.0834   20.1717 C   0  0  0  0  0  0
  -25.4169  -36.3209   24.0320 C   0  0  1  0  0  0
  -21.0424  -28.3544   23.1527 C   0  0  2  0  0  0
  -21.8063  -27.4960   21.6737 C   0  0  0  0  0  0
  -21.0811  -26.3917   20.4655 C   0  0  0  0  0  0
  -19.4863  -25.7104   20.7275 C   0  0  0  0  0  0
  -19.3595  -28.2994   23.7307 C   0  0  0  0  0  0
  -18.9831  -29.6409   24.1179 C   0  0  0  0  0  0
  -17.6854  -30.1501   24.0556 C   0  0  0  0  0  0
  -25.9256  -34.9624   23.5145 C   0  0  0  0  0  0
  -16.6885  -29.2449   23.6914 C   0  0  0  0  0  0
  -16.9742  -27.8614   23.3537 C   0  0  0  0  0  0
  -26.4722  -31.6654   25.1041 C   0  0  0  0  0  0
  -25.3700  -31.3870   26.1529 C   0  0  0  0  0  0
  -27.0425  -30.2985   24.6626 C   0  0  0  0  0  0
  -27.6281  -32.4208   25.7959 C   0  0  0  0  0  0
  -27.5619  -37.1910   24.8471 C   0  0  0  0  0  0
  -21.5365  -29.6434   22.7470 N   0  0  0  0  0  0
  -26.4311  -37.3920   23.9444 N   0  0  0  0  0  0
  -24.7550  -31.1660   22.1186 N   0  0  0  0  0  0
  -23.6146  -29.0136   23.3249 O   0  0  0  0  0  0
  -26.5321  -25.7673   20.4129 O   0  0  0  0  0  0
  -26.5522  -34.9042   22.4535 O   0  0  0  0  0  0
  -23.6179  -32.2644   23.7559 O   0  0  0  0  0  0
  -19.4084  -27.7500   21.4223 C   0  0  0  0  0  0
  -19.2763  -24.8956   23.0875 C   0  0  0  0  0  0
  -17.2303  -25.8113   21.4053 C   0  0  0  0  0  0
  -20.2708  -26.0326   22.7751 C   0  0  0  0  0  0
  -17.8181  -27.3206   20.8879 C   0  0  0  0  0  0
  -18.0638  -24.6309   22.2440 C   0  0  0  0  0  0
  -21.8139  -25.0873   23.1926 C   0  0  0  0  0  0
  -18.1098  -28.6104   18.7193 C   0  0  0  0  0  0
  -16.3177  -29.3046   20.3302 C   0  0  0  0  0  0
  -16.0927  -27.2037   19.0323 C   0  0  0  0  0  0
  -24.9272  -20.9448   22.1890 C   0  0  0  0  0  0
  -26.0603  -19.2368   22.1474 C   0  0  0  0  0  0
  -23.5826  -24.5037   20.6781 C   0  0  0  0  0  0
  -21.9648  -23.6577   20.2956 C   0  0  0  0  0  0
  -23.7375  -22.3260   23.1274 C   0  0  0  0  0  0
  -27.5657  -18.1794   21.2784 C   0  0  0  0  0  0
  -25.1777  -24.8653   19.9882 C   0  0  0  0  0  0
  -20.3804  -23.1597   21.1654 C   0  0  0  0  0  0
  -17.0987  -28.1065   19.7738 C   0  0  0  0  0  0
  -22.3892  -23.6016   22.9779 N   0  0  0  0  0  0
  -28.3379  -16.5055   21.1650 N   0  0  0  0  0  0
  -22.6024  -25.7492   23.8723 O   0  0  0  0  0  0
  -18.7609  -23.4983   21.5055 O   0  0  0  0  0  0
  -31.2376  -13.6120   19.3483 H   0  0  0  0  0  0
  -30.5930  -12.2440   20.2264 H   0  0  0  0  0  0
  -30.0242  -11.8843   17.8500 H   0  0  0  0  0  0
  -29.4696  -13.5132   17.6548 H   0  0  0  0  0  0
  -28.1013  -11.2505   19.1191 H   0  0  0  0  0  0
  -27.4439  -12.2308   17.8514 H   0  0  0  0  0  0
  -27.4358  -14.1768   19.3093 H   0  0  0  0  0  0
  -28.7176  -12.3149   21.4016 H   0  0  0  0  0  0
  -27.9119  -13.8017   21.8647 H   0  0  0  0  0  0
  -25.2503   -9.5724   22.4836 H   0  0  0  0  0  0
  -23.9903   -7.4529   22.7502 H   0  0  0  0  0  0
  -21.0633   -8.8555   19.8954 H   0  0  0  0  0  0
  -22.3331  -10.9567   19.6254 H   0  0  0  0  0  0
  -21.1933   -7.6085   23.9664 H   0  0  0  0  0  0
  -21.1492   -6.0506   25.9082 H   0  0  0  0  0  0
  -22.0611   -2.7539   23.2943 H   0  0  0  0  0  0
  -22.3615  -11.9809   22.4916 H   0  0  0  0  0  0
  -21.0778  -13.1375   22.2818 H   0  0  0  0  0  0
  -24.6105  -15.8189   20.4953 H   0  0  0  0  0  0
  -26.0373  -15.5052   19.6758 H   0  0  0  0  0  0
  -26.7923  -32.5491   23.1403 H   0  0  0  0  0  0
  -25.1110  -33.9989   25.0968 H   0  0  0  0  0  0
  -22.7747  -31.5258   21.4886 H   0  0  0  0  0  0
  -23.3869  -35.9563   23.3230 H   0  0  0  0  0  0
  -24.3644  -36.8947   22.2004 H   0  0  0  0  0  0
  -23.7173  -37.6482   23.6588 H   0  0  0  0  0  0
  -26.2857  -31.4733   20.7133 H   0  0  0  0  0  0
  -26.8715  -30.6764   22.1306 H   0  0  0  0  0  0
  -27.6264  -28.2856   21.6533 H   0  0  0  0  0  0
  -25.8484  -26.5737   18.1286 H   0  0  0  0  0  0
  -23.9043  -27.9951   18.4200 H   0  0  0  0  0  0
  -23.8789  -30.9072   19.5067 H   0  0  0  0  0  0
  -22.7143  -29.7008   19.7386 H   0  0  0  0  0  0
  -25.1309  -36.2106   25.0802 H   0  0  0  0  0  0
  -21.5694  -28.0467   24.0564 H   0  0  0  0  0  0
  -22.8284  -27.2101   21.9037 H   0  0  0  0  0  0
  -21.9970  -28.2385   20.9163 H   0  0  0  0  0  0
  -21.7926  -25.9158   19.8235 H   0  0  0  0  0  0
  -20.8882  -27.0865   19.6368 H   0  0  0  0  0  0
  -19.2116  -26.0820   19.7251 H   0  0  0  0  0  0
  -19.1455  -24.9109   20.0787 H   0  0  0  0  0  0
  -19.7686  -30.3385   24.3735 H   0  0  0  0  0  0
  -17.4661  -31.1875   24.2816 H   0  0  0  0  0  0
  -15.6634  -29.5822   23.6499 H   0  0  0  0  0  0
  -16.0960  -27.3302   23.0188 H   0  0  0  0  0  0
  -24.5869  -30.7334   25.7659 H   0  0  0  0  0  0
  -24.8929  -32.3066   26.4934 H   0  0  0  0  0  0
  -25.7761  -30.8942   27.0366 H   0  0  0  0  0  0
  -26.3001  -29.6850   24.1500 H   0  0  0  0  0  0
  -27.3761  -29.7199   25.5254 H   0  0  0  0  0  0
  -27.9130  -30.4119   24.0152 H   0  0  0  0  0  0
  -27.2983  -33.3541   26.2549 H   0  0  0  0  0  0
  -28.4213  -32.6668   25.0877 H   0  0  0  0  0  0
  -28.0771  -31.8235   26.5911 H   0  0  0  0  0  0
  -28.2592  -38.0258   24.7643 H   0  0  0  0  0  0
  -28.1178  -36.2816   24.6171 H   0  0  0  0  0  0
  -27.2349  -37.1388   25.8865 H   0  0  0  0  0  0
  -20.9410  -30.2593   22.2171 H   0  0  0  0  0  0
  -26.0196  -38.2984   24.1500 H   0  0  0  0  0  0
  -19.8610  -28.6225   20.9755 H   0  0  0  0  0  0
  -19.6607  -24.0316   23.6099 H   0  0  0  0  0  0
  -16.3362  -25.4597   20.9217 H   0  0  0  0  0  0
  -18.8507  -29.2896   19.1324 H   0  0  0  0  0  0
  -17.6147  -29.1561   17.9184 H   0  0  0  0  0  0
  -18.6394  -27.7884   18.2430 H   0  0  0  0  0  0
  -16.9645  -30.0262   20.8222 H   0  0  0  0  0  0
  -15.5607  -28.9851   21.0419 H   0  0  0  0  0  0
  -15.7911  -29.8374   19.5394 H   0  0  0  0  0  0
  -16.5729  -26.3016   18.6529 H   0  0  0  0  0  0
  -15.6483  -27.7091   18.1750 H   0  0  0  0  0  0
  -15.2649  -26.9104   19.6779 H   0  0  0  0  0  0
  -24.9145  -20.6104   23.2316 H   0  0  0  0  0  0
  -25.7325  -21.6370   21.9204 H   0  0  0  0  0  0
  -25.2902  -18.4685   22.2180 H   0  0  0  0  0  0
  -26.4697  -19.2794   23.1580 H   0  0  0  0  0  0
  -24.0416  -23.8409   21.3809 H   0  0  0  0  0  0
  -23.3855  -25.4118   21.2114 H   0  0  0  0  0  0
  -22.3674  -22.6667   20.0666 H   0  0  0  0  0  0
  -21.6572  -23.9617   19.2928 H   0  0  0  0  0  0
  -24.4895  -22.9275   23.6348 H   0  0  0  0  0  0
  -23.3108  -21.7570   23.9508 H   0  0  0  0  0  0
  -28.4633  -18.7665   21.4764 H   0  0  0  0  0  0
  -27.3689  -18.3658   20.2198 H   0  0  0  0  0  0
  -24.9534  -24.9805   18.9269 H   0  0  0  0  0  0
  -25.6288  -23.8691   19.9765 H   0  0  0  0  0  0
  -20.6107  -22.4758   21.9751 H   0  0  0  0  0  0
  -20.1126  -22.4086   20.4226 H   0  0  0  0  0  0
  -21.6327  -23.1170   22.5233 H   0  0  0  0  0  0
  -27.5999  -15.8715   21.4462 H   0  0  0  0  0  0
  1 25  1  0  0  0
  1 30  2  0  0  0
  1 91  1  0  0  0
  2  3  1  0  0  0
  2 25  1  0  0  0
  2 94  1  0  0  0
  2 95  1  0  0  0
  3  4  1  0  0  0
  3 96  1  0  0  0
  3 97  1  0  0  0
  4  5  1  0  0  0
  4 98  1  0  0  0
  4 99  1  0  0  0
  5  6  1  0  0  0
  5 26  1  0  0  0
  5100  1  0  0  0
  6 25  1  0  0  0
  6101  1  0  0  0
  6102  1  0  0  0
  7  8  2  0  0  0
  7 26  1  0  0  0
  7 29  1  0  0  0
  8  9  1  0  0  0
  8 22  1  0  0  0
  9 10  1  0  0  0
  9 27  2  0  0  0
 10 11  2  0  0  0
 10 15  1  0  0  0
 11 12  1  0  0  0
 11103  1  0  0  0
 12 13  2  0  0  0
 12104  1  0  0  0
 13 14  1  0  0  0
 13 31  1  0  0  0
 14 15  2  0  0  0
 14105  1  0  0  0
 15106  1  0  0  0
 16 17  2  0  0  0
 16 21  1  0  0  0
 16 31  1  0  0  0
 17 18  1  0  0  0
 17107  1  0  0  0
 18 19  2  0  0  0
 18108  1  0  0  0
 19 20  1  0  0  0
 19 24  1  0  0  0
 20 21  2  0  0  0
 20109  1  0  0  0
 21 23  1  0  0  0
 22 28  1  0  0  0
 22 32  2  0  0  0
 26 27  1  0  0  0
 28110  1  0  0  0
 28111  1  0  0  0
 29112  1  0  0  0
 29113  1  0  0  0
 33 34  1  0  0  0
 33 66  1  0  0  0
 33 70  2  0  0  0
 34 36  1  0  0  0
 34 59  1  0  0  0
 34114  1  0  0  0
 35 44  2  0  0  0
 35 45  1  0  0  0
 35 68  1  0  0  0
 36 56  1  0  0  0
 36115  1  0  0  0
 37 39  1  0  0  0
 37 47  1  0  0  0
 37 66  1  0  0  0
 37116  1  0  0  0
 38 43  2  0  0  0
 38 46  1  0  0  0
 38 47  1  0  0  0
 39 64  1  0  0  0
 39 67  2  0  0  0
 40 52  1  0  0  0
 40 53  2  0  0  0
 40 58  1  0  0  0
 41117  1  0  0  0
 41118  1  0  0  0
 41119  1  0  0  0
 41 48  1  0  0  0
 42 43  1  0  0  0
 42 66  1  0  0  0
 42120  1  0  0  0
 42121  1  0  0  0
 43 44  1  0  0  0
 44122  1  0  0  0
 45 46  2  0  0  0
 45123  1  0  0  0
 46124  1  0  0  0
 47125  1  0  0  0
 47126  1  0  0  0
 48 56  1  0  0  0
 48 65  1  0  0  0
 48127  1  0  0  0
 49 50  1  0  0  0
 49 53  1  0  0  0
 49 64  1  0  0  0
 49128  1  0  0  0
 50 51  1  0  0  0
 50129  1  0  0  0
 50130  1  0  0  0
 51 52  1  0  0  0
 51131  1  0  0  0
 51132  1  0  0  0
 52133  1  0  0  0
 52134  1  0  0  0
 53 54  1  0  0  0
 54 55  2  0  0  0
 54135  1  0  0  0
 55 57  1  0  0  0
 55136  1  0  0  0
 56 69  2  0  0  0
 57 58  2  0  0  0
 57137  1  0  0  0
 58138  1  0  0  0
 59 60  1  0  0  0
 59 61  1  0  0  0
 59 62  1  0  0  0
 60139  1  0  0  0
 60140  1  0  0  0
 60141  1  0  0  0
 61142  1  0  0  0
 61143  1  0  0  0
 61144  1  0  0  0
 62145  1  0  0  0
 62146  1  0  0  0
 62147  1  0  0  0
 63 65  1  0  0  0
 63148  1  0  0  0
 63149  1  0  0  0
 63150  1  0  0  0
 64151  1  0  0  0
 65152  1  0  0  0
 68 87  1  0  0  0
 71 74  2  0  0  0
 71 75  1  0  0  0
 71153  1  0  0  0
 72 74  1  0  0  0
 72 76  2  0  0  0
 72154  1  0  0  0
 73 75  2  0  0  0
 73 76  1  0  0  0
 73155  1  0  0  0
 74 77  1  0  0  0
 75 89  1  0  0  0
 76 93  1  0  0  0
 77 90  1  0  0  0
 77 92  2  0  0  0
 78156  1  0  0  0
 78157  1  0  0  0
 78158  1  0  0  0
 78 89  1  0  0  0
 79 89  1  0  0  0
 79159  1  0  0  0
 79160  1  0  0  0
 79161  1  0  0  0
 80 89  1  0  0  0
 80162  1  0  0  0
 80163  1  0  0  0
 80164  1  0  0  0
 81 82  1  0  0  0
 81 85  1  0  0  0
 81165  1  0  0  0
 81166  1  0  0  0
 82 86  1  0  0  0
 82167  1  0  0  0
 82168  1  0  0  0
 83 84  1  0  0  0
 83 87  1  0  0  0
 83169  1  0  0  0
 83170  1  0  0  0
 84 88  1  0  0  0
 84171  1  0  0  0
 84172  1  0  0  0
 85 90  1  0  0  0
 85173  1  0  0  0
 85174  1  0  0  0
 86 91  1  0  0  0
 86175  1  0  0  0
 86176  1  0  0  0
 87177  1  0  0  0
 87178  1  0  0  0
 88 93  1  0  0  0
 88179  1  0  0  0
 88180  1  0  0  0
 90181  1  0  0  0
 91182  1  0  0  0
M  ISO  4   1 100  68 101  87 101  91 100
M  END
> <chiral flag>
0

> <version>
0

> <s_m_source_file>
/data/baiqing/PycharmProjects/Reinvent-master-3.2/result/LINK_invent/BTK/process_docking_weight1_custom_sum_contain_oxygen_bond_distance_aromatic_linkinvent_7_9_3/rearranged_h_0004.sdf

> <i_m_source_file_index>
79

> <r_mmod_Potential_Energy-OPLS-2005>
17134.27734375

> <r_mmod_Stretch_Energy-OPLS-2005>
8813.873046875

> <r_mmod_Bend_Energy-OPLS-2005>
2049.89453125

> <r_mmod_Torsional_Energy-OPLS-2005>
661.320617675781

> <r_mmod_Improper_Torsional_Energy-OPLS-2005>
78.4473648071289

> <r_mmod_Van_der_Waal_Energy-OPLS-2005>
3299.71166992188

> <r_mmod_Electrostatic_Energy-OPLS-2005>
-447.918914794922

> <r_mmod_Solvation_Energy-OPLS-2005>
-251.210845947266

> <b_mmod_Minimization_Converged-OPLS-2005>
0

> <r_mmod_RMS_Derivative-OPLS-2005>
13.9551467895508

$$$$
79
                    3D
 Structure written by MMmdl.
185194  0  0  1  0            999 V2000
  -30.7711  -14.4164   20.5525 C   0  0  0  0  0  0
  -30.4025  -12.2675   19.4303 C   0  0  0  0  0  0
  -29.4894  -12.4924   18.2105 C   0  0  0  0  0  0
  -28.0111  -12.3676   18.6216 C   0  0  0  0  0  0
  -27.6614  -13.2150   19.8754 C   0  0  2  0  0  0
  -28.7067  -13.0226   21.0015 C   0  0  0  0  0  0
  -25.2487  -13.8063   20.5505 C   0  0  0  0  0  0
  -24.1813  -13.0367   20.9187 C   0  0  0  0  0  0
  -24.6419  -11.6864   20.8781 C   0  0  0  0  0  0
  -23.9083  -10.4262   21.0435 C   0  0  0  0  0  0
  -24.3625   -9.4177   21.9206 C   0  0  0  0  0  0
  -23.6287   -8.2218   22.0767 C   0  0  0  0  0  0
  -22.4264   -8.0275   21.3552 C   0  0  0  0  0  0
  -21.9915   -9.0253   20.4649 C   0  0  0  0  0  0
  -22.7258  -10.2125   20.3071 C   0  0  0  0  0  0
  -21.6846   -6.0734   22.5274 C   0  0  0  0  0  0
  -21.4011   -6.5641   23.8207 C   0  0  0  0  0  0
  -21.3654   -5.6791   24.9169 C   0  0  0  0  0  0
  -21.6048   -4.3053   24.7216 C   0  0  0  0  0  0
  -21.8816   -3.8147   23.4332 C   0  0  0  0  0  0
  -21.9190   -4.6966   22.3392 C   0  0  0  0  0  0
  -22.7837  -13.5184   21.1832 C   0  0  0  0  0  0
  -22.1658   -4.2156   21.0968 F   0  0  0  0  0  0
  -21.5628   -3.4533   25.7724 F   0  0  0  0  0  0
  -30.0454  -13.2731   20.4427 N   0  0  0  0  0  0
  -26.3031  -12.9338   20.3381 N   0  0  0  0  0  0
  -25.9374  -11.6495   20.5868 N   0  0  0  0  0  0
  -22.0470  -12.8209   22.0405 N   0  0  0  0  0  0
  -25.3922  -15.1688   20.3475 N   0  0  0  0  0  0
  -31.8961  -14.5294   20.0617 O   0  0  0  0  0  0
  -21.6631   -6.8873   21.4234 O   0  0  0  0  0  0
  -22.3530  -14.5490   20.6674 O   0  0  0  0  0  0
  -24.6118  -31.8702   23.2104 C   0  0  0  0  0  0
  -25.9032  -32.4833   23.8399 C   0  0  1  0  0  0
  -27.2412  -27.4610   20.1016 C   0  0  0  0  0  0
  -25.5907  -33.8626   24.2350 N   0  0  0  0  0  0
  -23.4011  -30.4922   21.5485 C   0  0  2  0  0  0
  -24.8509  -28.9615   20.1142 C   0  0  0  0  0  0
  -22.7409  -29.4683   22.4984 C   0  0  0  0  0  0
  -18.0268  -28.1388   22.8507 C   0  0  0  0  0  0
  -24.1483  -36.7330   23.2635 C   0  0  0  0  0  0
  -25.9248  -30.8504   21.3536 C   0  0  0  0  0  0
  -26.0075  -29.4847   20.7051 C   0  0  0  0  0  0
  -27.2088  -28.7439   20.6900 C   0  0  0  0  0  0
  -26.0691  -26.9430   19.5096 C   0  0  0  0  0  0
  -24.8758  -27.6919   19.5091 C   0  0  0  0  0  0
  -23.6096  -29.8209   20.1629 C   0  0  0  0  0  0
  -25.4104  -36.3118   24.0332 C   0  0  1  0  0  0
  -20.5866  -28.3682   23.1326 C   0  0  2  0  0  0
  -20.6760  -26.9412   22.5425 C   0  0  0  0  0  0
  -19.5742  -26.6408   21.5211 C   0  0  0  0  0  0
  -18.1925  -26.7949   22.1624 C   0  0  0  0  0  0
  -19.1521  -28.8845   23.2921 C   0  0  0  0  0  0
  -18.9447  -30.1446   23.8935 C   0  0  0  0  0  0
  -17.6453  -30.6591   24.0575 C   0  0  0  0  0  0
  -25.9033  -34.9484   23.5143 C   0  0  0  0  0  0
  -16.5347  -29.9104   23.6310 C   0  0  0  0  0  0
  -16.7263  -28.6516   23.0354 C   0  0  0  0  0  0
  -26.4477  -31.6586   25.0704 C   0  0  0  0  0  0
  -25.3757  -31.3672   26.1458 C   0  0  0  0  0  0
  -27.0276  -30.3039   24.6019 C   0  0  0  0  0  0
  -27.6076  -32.4271   25.7472 C   0  0  0  0  0  0
  -27.5577  -37.1812   24.8467 C   0  0  0  0  0  0
  -21.4142  -29.3055   22.3729 N   0  0  0  0  0  0
  -26.4293  -37.3805   23.9414 N   0  0  0  0  0  0
  -24.6642  -31.0841   22.0972 N   0  0  0  0  0  0
  -23.4201  -28.8221   23.3009 O   0  0  0  0  0  0
  -28.4070  -26.7345   20.1208 O   0  0  0  0  0  0
  -26.5583  -34.8943   22.4690 O   0  0  0  0  0  0
  -23.5313  -32.1420   23.7523 O   0  0  0  0  0  0
  -31.2152  -19.4603   20.0185 C   0  0  0  0  0  0
  -32.1843  -18.5905   20.5446 C   0  0  0  0  0  0
  -25.4605  -17.9933   23.0137 C   0  0  0  0  0  0
  -29.8744  -19.0394   19.9275 C   0  0  0  0  0  0
  -31.8204  -17.2909   20.9365 C   0  0  0  0  0  0
  -26.0745  -18.0055   21.7492 C   0  0  0  0  0  0
  -26.1366  -17.3814   24.0842 C   0  0  0  0  0  0
  -29.4914  -17.7403   20.3322 C   0  0  0  0  0  0
  -30.4867  -16.8323   20.7945 C   0  0  0  0  0  0
  -27.3232  -17.3723   21.5882 C   0  0  0  0  0  0
  -27.3750  -16.7620   23.8322 C   0  0  0  0  0  0
  -28.0458  -17.4069   20.2903 C   0  0  0  0  0  0
  -28.2431  -16.2596   24.9453 C   0  0  0  0  0  0
  -30.4573  -22.9789   22.4857 C   0  0  0  0  0  0
  -30.1978  -22.0553   23.6850 C   0  0  0  0  0  0
  -30.7044  -20.6113   23.4925 C   0  0  0  0  0  0
  -30.6711  -19.7786   24.7894 C   0  0  0  0  0  0
  -31.0529  -18.3113   24.5355 C   0  0  0  0  0  0
  -31.1068  -17.4039   25.7857 C   0  0  0  0  0  0
  -29.8045  -17.2536   26.6122 C   0  0  0  0  0  0
  -29.6352  -24.9352   21.1934 C   0  0  0  0  0  0
  -28.2739  -25.4194   20.6645 C   0  0  0  0  0  0
  -27.9282  -16.7351   22.6081 N   0  0  0  0  0  0
  -27.4526  -17.2255   19.1860 N   0  0  0  0  0  0
  -30.1564  -15.4740   21.1035 N   0  0  0  0  0  0
  -28.6026  -17.2306   25.7867 N   0  0  0  0  0  0
  -29.4888  -23.8406   22.1552 N   0  0  0  0  0  0
  -28.7142  -15.1169   24.9569 O   0  0  0  0  0  0
  -31.5377  -22.9453   21.8960 O   0  0  0  0  0  0
  -31.4499  -12.3155   19.1293 H   0  0  0  0  0  0
  -30.2642  -11.2636   19.8355 H   0  0  0  0  0  0
  -29.7207  -11.7686   17.4278 H   0  0  0  0  0  0
  -29.6744  -13.4789   17.7835 H   0  0  0  0  0  0
  -27.8132  -11.3133   18.8214 H   0  0  0  0  0  0
  -27.3635  -12.6447   17.7885 H   0  0  0  0  0  0
  -27.6969  -14.2605   19.5690 H   0  0  0  0  0  0
  -28.6627  -12.0057   21.3941 H   0  0  0  0  0  0
  -28.4843  -13.6730   21.8490 H   0  0  0  0  0  0
  -25.2769   -9.5649   22.4784 H   0  0  0  0  0  0
  -23.9984   -7.4613   22.7495 H   0  0  0  0  0  0
  -21.0848   -8.8782   19.8954 H   0  0  0  0  0  0
  -22.3723  -10.9671   19.6178 H   0  0  0  0  0  0
  -21.1995   -7.6148   23.9711 H   0  0  0  0  0  0
  -21.1489   -6.0521   25.9074 H   0  0  0  0  0  0
  -22.0600   -2.7612   23.2824 H   0  0  0  0  0  0
  -22.4087  -11.9877   22.4801 H   0  0  0  0  0  0
  -21.1104  -13.1275   22.2625 H   0  0  0  0  0  0
  -24.5957  -15.7895   20.4252 H   0  0  0  0  0  0
  -26.1868  -15.6170   19.8991 H   0  0  0  0  0  0
  -26.7109  -32.5581   23.1173 H   0  0  0  0  0  0
  -25.0057  -33.9781   25.0498 H   0  0  0  0  0  0
  -22.6872  -31.3055   21.4047 H   0  0  0  0  0  0
  -23.3738  -35.9676   23.3311 H   0  0  0  0  0  0
  -24.3567  -36.8929   22.2048 H   0  0  0  0  0  0
  -23.7235  -37.6539   23.6640 H   0  0  0  0  0  0
  -26.0167  -31.6129   20.5798 H   0  0  0  0  0  0
  -26.8203  -30.9171   21.9592 H   0  0  0  0  0  0
  -28.1063  -29.1450   21.1399 H   0  0  0  0  0  0
  -26.0740  -25.9659   19.0476 H   0  0  0  0  0  0
  -23.9874  -27.2862   19.0456 H   0  0  0  0  0  0
  -23.7133  -30.5908   19.3982 H   0  0  0  0  0  0
  -22.7390  -29.2314   19.8679 H   0  0  0  0  0  0
  -25.1260  -36.2005   25.0818 H   0  0  0  0  0  0
  -20.9946  -28.3243   24.1457 H   0  0  0  0  0  0
  -20.5663  -26.2277   23.3608 H   0  0  0  0  0  0
  -21.6632  -26.7465   22.1211 H   0  0  0  0  0  0
  -19.6904  -25.6323   21.1226 H   0  0  0  0  0  0
  -19.6691  -27.3223   20.6743 H   0  0  0  0  0  0
  -17.4195  -26.6698   21.4031 H   0  0  0  0  0  0
  -18.0340  -26.0074   22.9001 H   0  0  0  0  0  0
  -19.7921  -30.7244   24.2356 H   0  0  0  0  0  0
  -17.5007  -31.6285   24.5160 H   0  0  0  0  0  0
  -15.5345  -30.3027   23.7616 H   0  0  0  0  0  0
  -15.8665  -28.0844   22.7071 H   0  0  0  0  0  0
  -24.5964  -30.6971   25.7805 H   0  0  0  0  0  0
  -24.8912  -32.2813   26.4902 H   0  0  0  0  0  0
  -25.8134  -30.8868   27.0218 H   0  0  0  0  0  0
  -26.2793  -29.6819   24.1095 H   0  0  0  0  0  0
  -27.4084  -29.7239   25.4429 H   0  0  0  0  0  0
  -27.8609  -30.4346   23.9113 H   0  0  0  0  0  0
  -27.2725  -33.3565   26.2093 H   0  0  0  0  0  0
  -28.3891  -32.6830   25.0300 H   0  0  0  0  0  0
  -28.0739  -31.8353   26.5358 H   0  0  0  0  0  0
  -28.2605  -38.0097   24.7504 H   0  0  0  0  0  0
  -28.1056  -36.2631   24.6304 H   0  0  0  0  0  0
  -27.2293  -37.1475   25.8867 H   0  0  0  0  0  0
  -20.9301  -29.8775   21.6949 H   0  0  0  0  0  0
  -26.0187  -38.2888   24.1427 H   0  0  0  0  0  0
  -31.4939  -20.4566   19.7077 H   0  0  0  0  0  0
  -33.2101  -18.9153   20.6382 H   0  0  0  0  0  0
  -24.5045  -18.4742   23.1682 H   0  0  0  0  0  0
  -29.1317  -19.7327   19.5574 H   0  0  0  0  0  0
  -32.5839  -16.6357   21.3323 H   0  0  0  0  0  0
  -25.6020  -18.4995   20.9101 H   0  0  0  0  0  0
  -25.7215  -17.3983   25.0827 H   0  0  0  0  0  0
  -29.1341  -22.0363   23.9251 H   0  0  0  0  0  0
  -30.6971  -22.5038   24.5436 H   0  0  0  0  0  0
  -31.7234  -20.6148   23.1007 H   0  0  0  0  0  0
  -30.0867  -20.1275   22.7347 H   0  0  0  0  0  0
  -29.6744  -19.8330   25.2267 H   0  0  0  0  0  0
  -31.3533  -20.2082   25.5237 H   0  0  0  0  0  0
  -32.0329  -18.2866   24.0573 H   0  0  0  0  0  0
  -30.3725  -17.8815   23.8010 H   0  0  0  0  0  0
  -31.9112  -17.7366   26.4435 H   0  0  0  0  0  0
  -31.4087  -16.4118   25.4452 H   0  0  0  0  0  0
  -29.7114  -18.0935   27.3039 H   0  0  0  0  0  0
  -29.8564  -16.3545   27.2293 H   0  0  0  0  0  0
  -30.1337  -25.7533   21.7147 H   0  0  0  0  0  0
  -30.2793  -24.6570   20.3552 H   0  0  0  0  0  0
  -27.5479  -25.4246   21.4809 H   0  0  0  0  0  0
  -27.8995  -24.7294   19.9059 H   0  0  0  0  0  0
  -28.0919  -17.3180   18.4057 H   0  0  0  0  0  0
  -29.2298  -15.3148   21.4780 H   0  0  0  0  0  0
  -28.1279  -18.1115   25.6417 H   0  0  0  0  0  0
  -28.6281  -23.8039   22.6863 H   0  0  0  0  0  0
  1 25  1  0  0  0
  1 30  2  0  0  0
  1 95  1  0  0  0
  2  3  1  0  0  0
  2 25  1  0  0  0
  2100  1  0  0  0
  2101  1  0  0  0
  3  4  1  0  0  0
  3102  1  0  0  0
  3103  1  0  0  0
  4  5  1  0  0  0
  4104  1  0  0  0
  4105  1  0  0  0
  5  6  1  0  0  0
  5 26  1  0  0  0
  5106  1  0  0  0
  6 25  1  0  0  0
  6107  1  0  0  0
  6108  1  0  0  0
  7  8  2  0  0  0
  7 26  1  0  0  0
  7 29  1  0  0  0
  8  9  1  0  0  0
  8 22  1  0  0  0
  9 10  1  0  0  0
  9 27  2  0  0  0
 10 11  2  0  0  0
 10 15  1  0  0  0
 11 12  1  0  0  0
 11109  1  0  0  0
 12 13  2  0  0  0
 12110  1  0  0  0
 13 14  1  0  0  0
 13 31  1  0  0  0
 14 15  2  0  0  0
 14111  1  0  0  0
 15112  1  0  0  0
 16 17  2  0  0  0
 16 21  1  0  0  0
 16 31  1  0  0  0
 17 18  1  0  0  0
 17113  1  0  0  0
 18 19  2  0  0  0
 18114  1  0  0  0
 19 20  1  0  0  0
 19 24  1  0  0  0
 20 21  2  0  0  0
 20115  1  0  0  0
 21 23  1  0  0  0
 22 28  1  0  0  0
 22 32  2  0  0  0
 26 27  1  0  0  0
 28116  1  0  0  0
 28117  1  0  0  0
 29118  1  0  0  0
 29119  1  0  0  0
 33 34  1  0  0  0
 33 66  1  0  0  0
 33 70  2  0  0  0
 34 36  1  0  0  0
 34 59  1  0  0  0
 34120  1  0  0  0
 35 44  2  0  0  0
 35 45  1  0  0  0
 35 68  1  0  0  0
 36 56  1  0  0  0
 36121  1  0  0  0
 37 39  1  0  0  0
 37 47  1  0  0  0
 37 66  1  0  0  0
 37122  1  0  0  0
 38 43  2  0  0  0
 38 46  1  0  0  0
 38 47  1  0  0  0
 39 64  1  0  0  0
 39 67  2  0  0  0
 40 52  1  0  0  0
 40 53  2  0  0  0
 40 58  1  0  0  0
 41123  1  0  0  0
 41124  1  0  0  0
 41125  1  0  0  0
 41 48  1  0  0  0
 42 43  1  0  0  0
 42 66  1  0  0  0
 42126  1  0  0  0
 42127  1  0  0  0
 43 44  1  0  0  0
 44128  1  0  0  0
 45 46  2  0  0  0
 45129  1  0  0  0
 46130  1  0  0  0
 47131  1  0  0  0
 47132  1  0  0  0
 48 56  1  0  0  0
 48 65  1  0  0  0
 48133  1  0  0  0
 49 50  1  0  0  0
 49 53  1  0  0  0
 49 64  1  0  0  0
 49134  1  0  0  0
 50 51  1  0  0  0
 50135  1  0  0  0
 50136  1  0  0  0
 51 52  1  0  0  0
 51137  1  0  0  0
 51138  1  0  0  0
 52139  1  0  0  0
 52140  1  0  0  0
 53 54  1  0  0  0
 54 55  2  0  0  0
 54141  1  0  0  0
 55 57  1  0  0  0
 55142  1  0  0  0
 56 69  2  0  0  0
 57 58  2  0  0  0
 57143  1  0  0  0
 58144  1  0  0  0
 59 60  1  0  0  0
 59 61  1  0  0  0
 59 62  1  0  0  0
 60145  1  0  0  0
 60146  1  0  0  0
 60147  1  0  0  0
 61148  1  0  0  0
 61149  1  0  0  0
 61150  1  0  0  0
 62151  1  0  0  0
 62152  1  0  0  0
 62153  1  0  0  0
 63 65  1  0  0  0
 63154  1  0  0  0
 63155  1  0  0  0
 63156  1  0  0  0
 64157  1  0  0  0
 65158  1  0  0  0
 68 92  1  0  0  0
 71 72  2  0  0  0
 71 74  1  0  0  0
 71159  1  0  0  0
 72 75  1  0  0  0
 72160  1  0  0  0
 73 76  2  0  0  0
 73 77  1  0  0  0
 73161  1  0  0  0
 74 78  2  0  0  0
 74162  1  0  0  0
 75 79  2  0  0  0
 75163  1  0  0  0
 76 80  1  0  0  0
 76164  1  0  0  0
 77 81  2  0  0  0
 77165  1  0  0  0
 78 79  1  0  0  0
 78 82  1  0  0  0
 79 95  1  0  0  0
 80 82  1  0  0  0
 80 93  2  0  0  0
 81 83  1  0  0  0
 81 93  1  0  0  0
 82 94  2  0  0  0
 83 96  1  0  0  0
 83 98  2  0  0  0
 84 85  1  0  0  0
 84 97  1  0  0  0
 84 99  2  0  0  0
 85 86  1  0  0  0
 85166  1  0  0  0
 85167  1  0  0  0
 86 87  1  0  0  0
 86168  1  0  0  0
 86169  1  0  0  0
 87 88  1  0  0  0
 87170  1  0  0  0
 87171  1  0  0  0
 88 89  1  0  0  0
 88172  1  0  0  0
 88173  1  0  0  0
 89 90  1  0  0  0
 89174  1  0  0  0
 89175  1  0  0  0
 90 96  1  0  0  0
 90176  1  0  0  0
 90177  1  0  0  0
 91 92  1  0  0  0
 91 97  1  0  0  0
 91178  1  0  0  0
 91179  1  0  0  0
 92180  1  0  0  0
 92181  1  0  0  0
 94182  1  0  0  0
 95183  1  0  0  0
 96184  1  0  0  0
 97185  1  0  0  0
M  ISO  4   1 100  68 101  92 101  95 100
M  END
> <chiral flag>
0

> <version>
0

> <s_m_source_file>
/data/baiqing/PycharmProjects/Reinvent-master-3.2/result/LINK_invent/BTK/process_docking_weight1_custom_sum_contain_oxygen_bond_distance_aromatic_linkinvent_7_9_3/rearranged_h_0004.sdf

> <i_m_source_file_index>
80

> <r_mmod_Potential_Energy-OPLS-2005>
-189.352783203125

> <r_mmod_Stretch_Energy-OPLS-2005>
36.9824485778809

> <r_mmod_Bend_Energy-OPLS-2005>
101.064247131348

> <r_mmod_Torsional_Energy-OPLS-2005>
313.922607421875

> <r_mmod_Improper_Torsional_Energy-OPLS-2005>
9.56183910369873

> <r_mmod_Van_der_Waal_Energy-OPLS-2005>
148.187362670898

> <r_mmod_Electrostatic_Energy-OPLS-2005>
-561.2822265625

> <r_mmod_Solvation_Energy-OPLS-2005>
-251.706649780273

> <b_mmod_Minimization_Converged-OPLS-2005>
0

> <r_mmod_RMS_Derivative-OPLS-2005>
2.91916656494141

$$$$
80
                    3D
 Structure written by MMmdl.
163171  0  0  1  0            999 V2000
  -30.7533  -14.4980   20.6302 C   0  0  0  0  0  0
  -30.4162  -12.3269   19.4658 C   0  0  0  0  0  0
  -29.5110  -12.5062   18.2267 C   0  0  0  0  0  0
  -28.0211  -12.3739   18.6004 C   0  0  0  0  0  0
  -27.6566  -13.2079   19.8511 C   0  0  2  0  0  0
  -28.6770  -12.9761   20.9771 C   0  0  0  0  0  0
  -25.2586  -13.8148   20.5587 C   0  0  0  0  0  0
  -24.1844  -13.0429   20.9126 C   0  0  0  0  0  0
  -24.6373  -11.6893   20.8682 C   0  0  0  0  0  0
  -23.9034  -10.4288   21.0377 C   0  0  0  0  0  0
  -24.3577   -9.4217   21.9176 C   0  0  0  0  0  0
  -23.6264   -8.2258   22.0757 C   0  0  0  0  0  0
  -22.4253   -8.0285   21.3568 C   0  0  0  0  0  0
  -21.9879   -9.0234   20.4653 C   0  0  0  0  0  0
  -22.7185  -10.2125   20.3055 C   0  0  0  0  0  0
  -21.6865   -6.0718   22.5276 C   0  0  0  0  0  0
  -21.4017   -6.5618   23.8213 C   0  0  0  0  0  0
  -21.3656   -5.6779   24.9181 C   0  0  0  0  0  0
  -21.6041   -4.3045   24.7227 C   0  0  0  0  0  0
  -21.8821   -3.8133   23.4351 C   0  0  0  0  0  0
  -21.9198   -4.6949   22.3405 C   0  0  0  0  0  0
  -22.7883  -13.5253   21.1822 C   0  0  0  0  0  0
  -22.1663   -4.2131   21.0989 F   0  0  0  0  0  0
  -21.5628   -3.4515   25.7732 F   0  0  0  0  0  0
  -30.0299  -13.3269   20.4897 N   0  0  0  0  0  0
  -26.2980  -12.9311   20.3152 N   0  0  0  0  0  0
  -25.9285  -11.6480   20.5645 N   0  0  0  0  0  0
  -22.0548  -12.8243   22.0402 N   0  0  0  0  0  0
  -25.4327  -15.1854   20.4036 N   0  0  0  0  0  0
  -31.7924  -14.6362   19.9749 O   0  0  0  0  0  0
  -21.6641   -6.8862   21.4250 O   0  0  0  0  0  0
  -22.3584  -14.5580   20.6699 O   0  0  0  0  0  0
  -24.6206  -31.8668   23.2050 C   0  0  0  0  0  0
  -25.9078  -32.4818   23.8352 C   0  0  1  0  0  0
  -27.2403  -27.3930   20.0964 C   0  0  0  0  0  0
  -25.5936  -33.8609   24.2307 N   0  0  0  0  0  0
  -23.4089  -30.4884   21.5469 C   0  0  2  0  0  0
  -24.8516  -28.9424   20.1185 C   0  0  0  0  0  0
  -22.7440  -29.4669   22.4980 C   0  0  0  0  0  0
  -18.0295  -28.1388   22.8517 C   0  0  0  0  0  0
  -24.1457  -36.7288   23.2631 C   0  0  0  0  0  0
  -25.9402  -30.8161   21.3627 C   0  0  0  0  0  0
  -26.0134  -29.4469   20.7115 C   0  0  0  0  0  0
  -27.2065  -28.6808   20.6951 C   0  0  0  0  0  0
  -26.0464  -26.9060   19.5161 C   0  0  0  0  0  0
  -24.8662  -27.6726   19.5178 C   0  0  0  0  0  0
  -23.6183  -29.8172   20.1625 C   0  0  0  0  0  0
  -25.4083  -36.3102   24.0326 C   0  0  1  0  0  0
  -20.5878  -28.3708   23.1299 C   0  0  2  0  0  0
  -20.6767  -26.9438   22.5414 C   0  0  0  0  0  0
  -19.5733  -26.6401   21.5220 C   0  0  0  0  0  0
  -18.1927  -26.7938   22.1643 C   0  0  0  0  0  0
  -19.1537  -28.8859   23.2918 C   0  0  0  0  0  0
  -18.9459  -30.1457   23.8953 C   0  0  0  0  0  0
  -17.6456  -30.6596   24.0573 C   0  0  0  0  0  0
  -25.9038  -34.9481   23.5104 C   0  0  0  0  0  0
  -16.5352  -29.9100   23.6312 C   0  0  0  0  0  0
  -16.7288  -28.6498   23.0376 C   0  0  0  0  0  0
  -26.4489  -31.6617   25.0709 C   0  0  0  0  0  0
  -25.3746  -31.3771   26.1455 C   0  0  0  0  0  0
  -27.0297  -30.3045   24.6089 C   0  0  0  0  0  0
  -27.6043  -32.4345   25.7509 C   0  0  0  0  0  0
  -27.5557  -37.1795   24.8474 C   0  0  0  0  0  0
  -21.4171  -29.3065   22.3704 N   0  0  0  0  0  0
  -26.4269  -37.3792   23.9423 N   0  0  0  0  0  0
  -24.6751  -31.0721   22.0976 N   0  0  0  0  0  0
  -23.4194  -28.8216   23.3039 O   0  0  0  0  0  0
  -28.4359  -26.6769   20.1218 O   0  0  0  0  0  0
  -26.5574  -34.8947   22.4649 O   0  0  0  0  0  0
  -23.5383  -32.1436   23.7422 O   0  0  0  0  0  0
  -28.6933  -20.1979   19.2910 C   0  0  0  0  0  0
  -28.6355  -18.9015   18.7448 C   0  0  0  0  0  0
  -30.0990  -19.3506   21.0760 C   0  0  0  0  0  0
  -29.4427  -20.4486   20.4563 C   0  0  0  0  0  0
  -30.0553  -18.0311   20.5349 C   0  0  0  0  0  0
  -29.3378  -17.8137   19.3296 C   0  0  0  0  0  0
  -29.7647  -15.3697   22.6471 C   0  0  0  0  0  0
  -28.7537  -24.2307   20.6178 C   0  0  0  0  0  0
  -28.7533  -16.4086   23.1289 C   0  0  0  0  0  0
  -28.9588  -16.4589   17.3854 C   0  0  0  0  0  0
  -29.5384  -21.8658   21.0678 C   0  0  0  0  0  0
  -30.8966  -16.9210   21.2148 C   0  0  0  0  0  0
  -28.5763  -25.3456   19.5472 C   0  0  0  0  0  0
  -29.1592  -23.0078   20.2024 N   0  0  0  0  0  0
  -30.3259  -15.5416   21.4258 N   0  0  0  0  0  0
  -30.0002  -14.4053   23.3840 O   0  0  0  0  0  0
  -28.5604  -24.4802   21.8109 O   0  0  0  0  0  0
  -29.3772  -16.5649   18.7465 O   0  0  0  0  0  0
  -31.4667  -12.3898   19.1822 H   0  0  0  0  0  0
  -30.3009  -11.3185   19.8677 H   0  0  0  0  0  0
  -29.7640  -11.7719   17.4600 H   0  0  0  0  0  0
  -29.6946  -13.4821   17.7845 H   0  0  0  0  0  0
  -27.8127  -11.3173   18.7821 H   0  0  0  0  0  0
  -27.3933  -12.6607   17.7554 H   0  0  0  0  0  0
  -27.7085  -14.2573   19.5623 H   0  0  0  0  0  0
  -28.6677  -11.9277   21.2787 H   0  0  0  0  0  0
  -28.3193  -13.4987   21.8538 H   0  0  0  0  0  0
  -25.2726   -9.5698   22.4722 H   0  0  0  0  0  0
  -23.9967   -7.4656   22.7462 H   0  0  0  0  0  0
  -21.0798   -8.8722   19.8954 H   0  0  0  0  0  0
  -22.3609  -10.9643   19.6145 H   0  0  0  0  0  0
  -21.2011   -7.6126   23.9707 H   0  0  0  0  0  0
  -21.1485   -6.0511   25.9073 H   0  0  0  0  0  0
  -22.0604   -2.7590   23.2851 H   0  0  0  0  0  0
  -22.4125  -11.9834   22.4682 H   0  0  0  0  0  0
  -21.1213  -13.1333   22.2709 H   0  0  0  0  0  0
  -24.6597  -15.8350   20.4918 H   0  0  0  0  0  0
  -26.2796  -15.6179   20.0578 H   0  0  0  0  0  0
  -26.7168  -32.5533   23.1135 H   0  0  0  0  0  0
  -25.0218  -33.9761   25.0530 H   0  0  0  0  0  0
  -22.7009  -31.3082   21.4042 H   0  0  0  0  0  0
  -23.3711  -35.9633   23.3339 H   0  0  0  0  0  0
  -24.3545  -36.8862   22.2042 H   0  0  0  0  0  0
  -23.7197  -37.6496   23.6612 H   0  0  0  0  0  0
  -26.0489  -31.5708   20.5839 H   0  0  0  0  0  0
  -26.8292  -30.8771   21.9781 H   0  0  0  0  0  0
  -28.1045  -29.0659   21.1565 H   0  0  0  0  0  0
  -25.9804  -25.9293   19.0658 H   0  0  0  0  0  0
  -23.9724  -27.2707   19.0619 H   0  0  0  0  0  0
  -23.7497  -30.5906   19.4056 H   0  0  0  0  0  0
  -22.7388  -29.2505   19.8557 H   0  0  0  0  0  0
  -25.1247  -36.1959   25.0812 H   0  0  0  0  0  0
  -21.0008  -28.3275   24.1402 H   0  0  0  0  0  0
  -20.5656  -26.2342   23.3625 H   0  0  0  0  0  0
  -21.6639  -26.7475   22.1207 H   0  0  0  0  0  0
  -19.6887  -25.6313   21.1251 H   0  0  0  0  0  0
  -19.6623  -27.3212   20.6740 H   0  0  0  0  0  0
  -17.4192  -26.6746   21.4044 H   0  0  0  0  0  0
  -18.0316  -26.0054   22.9007 H   0  0  0  0  0  0
  -19.7932  -30.7245   24.2382 H   0  0  0  0  0  0
  -17.5013  -31.6290   24.5149 H   0  0  0  0  0  0
  -15.5357  -30.3019   23.7578 H   0  0  0  0  0  0
  -15.8700  -28.0807   22.7092 H   0  0  0  0  0  0
  -24.5889  -30.7132   25.7817 H   0  0  0  0  0  0
  -24.8963  -32.2968   26.4860 H   0  0  0  0  0  0
  -25.8094  -30.8989   27.0239 H   0  0  0  0  0  0
  -26.2850  -29.6859   24.1061 H   0  0  0  0  0  0
  -27.3971  -29.7235   25.4552 H   0  0  0  0  0  0
  -27.8736  -30.4362   23.9299 H   0  0  0  0  0  0
  -27.2623  -33.3621   26.2120 H   0  0  0  0  0  0
  -28.3870  -32.6960   25.0366 H   0  0  0  0  0  0
  -28.0691  -31.8454   26.5431 H   0  0  0  0  0  0
  -28.2601  -38.0074   24.7505 H   0  0  0  0  0  0
  -28.1041  -36.2598   24.6325 H   0  0  0  0  0  0
  -27.2306  -37.1496   25.8896 H   0  0  0  0  0  0
  -20.9358  -29.8816   21.6929 H   0  0  0  0  0  0
  -26.0151  -38.2868   24.1426 H   0  0  0  0  0  0
  -28.1592  -20.9927   18.7916 H   0  0  0  0  0  0
  -28.0515  -18.7763   17.8445 H   0  0  0  0  0  0
  -30.6773  -19.5391   21.9711 H   0  0  0  0  0  0
  -28.2095  -16.8467   22.2914 H   0  0  0  0  0  0
  -29.2489  -17.2021   23.6875 H   0  0  0  0  0  0
  -28.0200  -15.9309   23.7791 H   0  0  0  0  0  0
  -29.2816  -15.5161   16.9469 H   0  0  0  0  0  0
  -29.3783  -17.2490   16.7592 H   0  0  0  0  0  0
  -27.8715  -16.4919   17.3154 H   0  0  0  0  0  0
  -30.5755  -22.0307   21.3657 H   0  0  0  0  0  0
  -28.9498  -21.8715   21.9883 H   0  0  0  0  0  0
  -31.2251  -17.3094   22.1834 H   0  0  0  0  0  0
  -31.8364  -16.8904   20.6629 H   0  0  0  0  0  0
  -27.8085  -25.0584   18.8331 H   0  0  0  0  0  0
  -29.4980  -25.3680   18.9667 H   0  0  0  0  0  0
  -29.3129  -22.8872   19.2106 H   0  0  0  0  0  0
  1 25  1  0  0  0
  1 30  2  0  0  0
  1 85  1  0  0  0
  2  3  1  0  0  0
  2 25  1  0  0  0
  2 89  1  0  0  0
  2 90  1  0  0  0
  3  4  1  0  0  0
  3 91  1  0  0  0
  3 92  1  0  0  0
  4  5  1  0  0  0
  4 93  1  0  0  0
  4 94  1  0  0  0
  5  6  1  0  0  0
  5 26  1  0  0  0
  5 95  1  0  0  0
  6 25  1  0  0  0
  6 96  1  0  0  0
  6 97  1  0  0  0
  7  8  2  0  0  0
  7 26  1  0  0  0
  7 29  1  0  0  0
  8  9  1  0  0  0
  8 22  1  0  0  0
  9 10  1  0  0  0
  9 27  2  0  0  0
 10 11  2  0  0  0
 10 15  1  0  0  0
 11 12  1  0  0  0
 11 98  1  0  0  0
 12 13  2  0  0  0
 12 99  1  0  0  0
 13 14  1  0  0  0
 13 31  1  0  0  0
 14 15  2  0  0  0
 14100  1  0  0  0
 15101  1  0  0  0
 16 17  2  0  0  0
 16 21  1  0  0  0
 16 31  1  0  0  0
 17 18  1  0  0  0
 17102  1  0  0  0
 18 19  2  0  0  0
 18103  1  0  0  0
 19 20  1  0  0  0
 19 24  1  0  0  0
 20 21  2  0  0  0
 20104  1  0  0  0
 21 23  1  0  0  0
 22 28  1  0  0  0
 22 32  2  0  0  0
 26 27  1  0  0  0
 28105  1  0  0  0
 28106  1  0  0  0
 29107  1  0  0  0
 29108  1  0  0  0
 33 34  1  0  0  0
 33 66  1  0  0  0
 33 70  2  0  0  0
 34 36  1  0  0  0
 34 59  1  0  0  0
 34109  1  0  0  0
 35 44  2  0  0  0
 35 45  1  0  0  0
 35 68  1  0  0  0
 36 56  1  0  0  0
 36110  1  0  0  0
 37 39  1  0  0  0
 37 47  1  0  0  0
 37 66  1  0  0  0
 37111  1  0  0  0
 38 43  2  0  0  0
 38 46  1  0  0  0
 38 47  1  0  0  0
 39 64  1  0  0  0
 39 67  2  0  0  0
 40 52  1  0  0  0
 40 53  2  0  0  0
 40 58  1  0  0  0
 41112  1  0  0  0
 41113  1  0  0  0
 41114  1  0  0  0
 41 48  1  0  0  0
 42 43  1  0  0  0
 42 66  1  0  0  0
 42115  1  0  0  0
 42116  1  0  0  0
 43 44  1  0  0  0
 44117  1  0  0  0
 45 46  2  0  0  0
 45118  1  0  0  0
 46119  1  0  0  0
 47120  1  0  0  0
 47121  1  0  0  0
 48 56  1  0  0  0
 48 65  1  0  0  0
 48122  1  0  0  0
 49 50  1  0  0  0
 49 53  1  0  0  0
 49 64  1  0  0  0
 49123  1  0  0  0
 50 51  1  0  0  0
 50124  1  0  0  0
 50125  1  0  0  0
 51 52  1  0  0  0
 51126  1  0  0  0
 51127  1  0  0  0
 52128  1  0  0  0
 52129  1  0  0  0
 53 54  1  0  0  0
 54 55  2  0  0  0
 54130  1  0  0  0
 55 57  1  0  0  0
 55131  1  0  0  0
 56 69  2  0  0  0
 57 58  2  0  0  0
 57132  1  0  0  0
 58133  1  0  0  0
 59 60  1  0  0  0
 59 61  1  0  0  0
 59 62  1  0  0  0
 60134  1  0  0  0
 60135  1  0  0  0
 60136  1  0  0  0
 61137  1  0  0  0
 61138  1  0  0  0
 61139  1  0  0  0
 62140  1  0  0  0
 62141  1  0  0  0
 62142  1  0  0  0
 63 65  1  0  0  0
 63143  1  0  0  0
 63144  1  0  0  0
 63145  1  0  0  0
 64146  1  0  0  0
 65147  1  0  0  0
 68 83  1  0  0  0
 71 72  2  0  0  0
 71 74  1  0  0  0
 71148  1  0  0  0
 72 76  1  0  0  0
 72149  1  0  0  0
 73 74  2  0  0  0
 73 75  1  0  0  0
 73150  1  0  0  0
 74 81  1  0  0  0
 75 76  2  0  0  0
 75 82  1  0  0  0
 76 88  1  0  0  0
 77 79  1  0  0  0
 77 85  1  0  0  0
 77 86  2  0  0  0
 78 83  1  0  0  0
 78 84  1  0  0  0
 78 87  2  0  0  0
 79151  1  0  0  0
 79152  1  0  0  0
 79153  1  0  0  0
 80 88  1  0  0  0
 80154  1  0  0  0
 80155  1  0  0  0
 80156  1  0  0  0
 81 84  1  0  0  0
 81157  1  0  0  0
 81158  1  0  0  0
 82 85  1  0  0  0
 82159  1  0  0  0
 82160  1  0  0  0
 83161  1  0  0  0
 83162  1  0  0  0
 84163  1  0  0  0
M  ISO  4   1 100  68 101  83 101  85 100
M  END
> <chiral flag>
0

> <version>
0

> <s_m_source_file>
/data/baiqing/PycharmProjects/Reinvent-master-3.2/result/LINK_invent/BTK/process_docking_weight1_custom_sum_contain_oxygen_bond_distance_aromatic_linkinvent_7_9_3/rearranged_h_0004.sdf

> <i_m_source_file_index>
81

> <r_mmod_Potential_Energy-OPLS-2005>
-10.9659471511841

> <r_mmod_Stretch_Energy-OPLS-2005>
62.281681060791

> <r_mmod_Bend_Energy-OPLS-2005>
152.666839599609

> <r_mmod_Torsional_Energy-OPLS-2005>
242.27360534668

> <r_mmod_Improper_Torsional_Energy-OPLS-2005>
4.18588352203369

> <r_mmod_Van_der_Waal_Energy-OPLS-2005>
175.464462280273

> <r_mmod_Electrostatic_Energy-OPLS-2005>
-429.849731445312

> <r_mmod_Solvation_Energy-OPLS-2005>
-235.5859375

> <b_mmod_Minimization_Converged-OPLS-2005>
0

> <r_mmod_RMS_Derivative-OPLS-2005>
4.08380460739136

$$$$
81
                    3D
 Structure written by MMmdl.
181189  0  0  1  0            999 V2000
  -30.7842  -14.3151   20.7000 C   0  0  0  0  0  0
  -30.4190  -12.2579   19.3999 C   0  0  0  0  0  0
  -29.4880  -12.5078   18.2003 C   0  0  0  0  0  0
  -28.0127  -12.3558   18.6102 C   0  0  0  0  0  0
  -27.6683  -13.1851   19.8736 C   0  0  2  0  0  0
  -28.6995  -12.9342   20.9945 C   0  0  0  0  0  0
  -25.2604  -13.8045   20.5558 C   0  0  0  0  0  0
  -24.1874  -13.0372   20.9145 C   0  0  0  0  0  0
  -24.6398  -11.6834   20.8693 C   0  0  0  0  0  0
  -23.9056  -10.4268   21.0351 C   0  0  0  0  0  0
  -24.3596   -9.4208   21.9166 C   0  0  0  0  0  0
  -23.6298   -8.2238   22.0724 C   0  0  0  0  0  0
  -22.4293   -8.0273   21.3490 C   0  0  0  0  0  0
  -21.9908   -9.0236   20.4595 C   0  0  0  0  0  0
  -22.7213  -10.2126   20.3020 C   0  0  0  0  0  0
  -21.6858   -6.0755   22.5278 C   0  0  0  0  0  0
  -21.4013   -6.5650   23.8218 C   0  0  0  0  0  0
  -21.3648   -5.6779   24.9171 C   0  0  0  0  0  0
  -21.6028   -4.3046   24.7205 C   0  0  0  0  0  0
  -21.8835   -3.8162   23.4322 C   0  0  0  0  0  0
  -21.9203   -4.6996   22.3382 C   0  0  0  0  0  0
  -22.7913  -13.5181   21.1826 C   0  0  0  0  0  0
  -22.1668   -4.2195   21.0951 F   0  0  0  0  0  0
  -21.5601   -3.4517   25.7713 F   0  0  0  0  0  0
  -30.0589  -13.1954   20.4733 N   0  0  0  0  0  0
  -26.3047  -12.9205   20.3300 N   0  0  0  0  0  0
  -25.9314  -11.6393   20.5726 N   0  0  0  0  0  0
  -22.0543  -12.8191   22.0391 N   0  0  0  0  0  0
  -25.4268  -15.1732   20.3795 N   0  0  0  0  0  0
  -31.7654  -14.6426   20.0247 O   0  0  0  0  0  0
  -21.6610   -6.8909   21.4246 O   0  0  0  0  0  0
  -22.3611  -14.5483   20.6664 O   0  0  0  0  0  0
  -24.6097  -31.8727   23.2176 C   0  0  0  0  0  0
  -25.9019  -32.4847   23.8444 C   0  0  1  0  0  0
  -27.2408  -27.4862   20.0551 C   0  0  0  0  0  0
  -25.5901  -33.8646   24.2381 N   0  0  0  0  0  0
  -23.3941  -30.4991   21.5577 C   0  0  2  0  0  0
  -24.8376  -28.9707   20.1239 C   0  0  0  0  0  0
  -22.7376  -29.4692   22.5033 C   0  0  0  0  0  0
  -18.0258  -28.1367   22.8491 C   0  0  0  0  0  0
  -24.1484  -36.7312   23.2637 C   0  0  0  0  0  0
  -25.9217  -30.8440   21.3715 C   0  0  0  0  0  0
  -25.9966  -29.4811   20.7220 C   0  0  0  0  0  0
  -27.1954  -28.7378   20.7024 C   0  0  0  0  0  0
  -26.0522  -26.9693   19.4889 C   0  0  0  0  0  0
  -24.8554  -27.7047   19.5168 C   0  0  0  0  0  0
  -23.5996  -29.8346   20.1712 C   0  0  0  0  0  0
  -25.4099  -36.3129   24.0348 C   0  0  1  0  0  0
  -20.5846  -28.3645   23.1330 C   0  0  2  0  0  0
  -20.6752  -26.9386   22.5414 C   0  0  0  0  0  0
  -19.5740  -26.6380   21.5205 C   0  0  0  0  0  0
  -18.1914  -26.7912   22.1616 C   0  0  0  0  0  0
  -19.1507  -28.8821   23.2907 C   0  0  0  0  0  0
  -18.9437  -30.1426   23.8915 C   0  0  0  0  0  0
  -17.6448  -30.6576   24.0565 C   0  0  0  0  0  0
  -25.9015  -34.9493   23.5152 C   0  0  0  0  0  0
  -16.5339  -29.9075   23.6337 C   0  0  0  0  0  0
  -16.7250  -28.6495   23.0349 C   0  0  0  0  0  0
  -26.4473  -31.6606   25.0747 C   0  0  0  0  0  0
  -25.3759  -31.3672   26.1503 C   0  0  0  0  0  0
  -27.0306  -30.3058   24.6097 C   0  0  0  0  0  0
  -27.6069  -32.4306   25.7491 C   0  0  0  0  0  0
  -27.5582  -37.1809   24.8467 C   0  0  0  0  0  0
  -21.4112  -29.3032   22.3761 N   0  0  0  0  0  0
  -26.4295  -37.3801   23.9413 N   0  0  0  0  0  0
  -24.6599  -31.0842   22.1076 N   0  0  0  0  0  0
  -23.4166  -28.8225   23.3054 O   0  0  0  0  0  0
  -28.4487  -26.8294   19.9698 O   0  0  0  0  0  0
  -26.5569  -34.8932   22.4707 O   0  0  0  0  0  0
  -23.5312  -32.1497   23.7598 O   0  0  0  0  0  0
  -29.5016  -19.2313   18.6646 C   0  0  0  0  0  0
  -29.8870  -20.3821   17.9549 C   0  0  0  0  0  0
  -27.2094  -20.0231   18.6719 C   0  0  0  0  0  0
  -28.1584  -19.0549   19.0717 C   0  0  0  0  0  0
  -28.9428  -21.3874   17.6499 C   0  0  0  0  0  0
  -27.5797  -21.2080   17.9880 C   0  0  0  0  0  0
  -30.1327  -23.4797   17.7330 C   0  0  0  0  0  0
  -24.7033  -23.4940   18.0897 C   0  0  0  0  0  0
  -24.5853  -21.2494   16.9304 C   0  0  0  0  0  0
  -28.8070  -22.9048   15.7160 C   0  0  0  0  0  0
  -26.5623  -18.1451   20.7047 C   0  0  0  0  0  0
  -30.3076  -24.9283   17.2394 C   0  0  0  0  0  0
  -30.0660  -25.9523   18.3712 C   0  0  0  0  0  0
  -29.5392  -17.4067   21.5663 C   0  0  0  0  0  0
  -30.7074  -16.4657   21.9297 C   0  0  0  0  0  0
  -28.7415  -16.9739   20.3149 C   0  0  0  0  0  0
  -28.6143  -25.9342   18.8727 C   0  0  0  0  0  0
  -25.3041  -22.0917   17.9960 C   0  0  0  0  0  0
  -30.3577  -15.0614   21.7249 N   0  0  0  0  0  0
  -29.3688  -22.5979   17.0337 N   0  0  0  0  0  0
  -27.7571  -17.9626   19.8789 N   0  0  0  0  0  0
  -30.7045  -23.1744   18.7875 O   0  0  0  0  0  0
  -26.6912  -22.2242   17.6749 O   0  0  0  0  0  0
  -31.4655  -12.3453   19.0982 H   0  0  0  0  0  0
  -30.3070  -11.2339   19.7595 H   0  0  0  0  0  0
  -29.7249  -11.8146   17.3917 H   0  0  0  0  0  0
  -29.6621  -13.5076   17.8004 H   0  0  0  0  0  0
  -27.8229  -11.2972   18.7945 H   0  0  0  0  0  0
  -27.3584  -12.6425   17.7873 H   0  0  0  0  0  0
  -27.7257  -14.2321   19.5850 H   0  0  0  0  0  0
  -28.6417  -11.8969   21.3277 H   0  0  0  0  0  0
  -28.4371  -13.5272   21.8700 H   0  0  0  0  0  0
  -25.2744   -9.5736   22.4715 H   0  0  0  0  0  0
  -24.0034   -7.4623   22.7406 H   0  0  0  0  0  0
  -21.0863   -8.8720   19.8881 H   0  0  0  0  0  0
  -22.3650  -10.9661   19.6125 H   0  0  0  0  0  0
  -21.2046   -7.6161   23.9764 H   0  0  0  0  0  0
  -21.1430   -6.0487   25.9076 H   0  0  0  0  0  0
  -22.0632   -2.7649   23.2772 H   0  0  0  0  0  0
  -22.4124  -11.9862   22.4829 H   0  0  0  0  0  0
  -21.1131  -13.1210   22.2455 H   0  0  0  0  0  0
  -24.6473  -15.8183   20.4537 H   0  0  0  0  0  0
  -26.2692  -15.6116   20.0233 H   0  0  0  0  0  0
  -26.7083  -32.5570   23.1207 H   0  0  0  0  0  0
  -25.0119  -33.9826   25.0575 H   0  0  0  0  0  0
  -22.6814  -31.3152   21.4221 H   0  0  0  0  0  0
  -23.3759  -35.9632   23.3315 H   0  0  0  0  0  0
  -24.3591  -36.8904   22.2050 H   0  0  0  0  0  0
  -23.7227  -37.6516   23.6632 H   0  0  0  0  0  0
  -26.0352  -31.6125   20.6059 H   0  0  0  0  0  0
  -26.8083  -30.8945   21.9907 H   0  0  0  0  0  0
  -28.0928  -29.1381   21.1526 H   0  0  0  0  0  0
  -26.0407  -26.0098   18.9994 H   0  0  0  0  0  0
  -23.9648  -27.3019   19.0535 H   0  0  0  0  0  0
  -23.7084  -30.6106   19.4119 H   0  0  0  0  0  0
  -22.7241  -29.2519   19.8752 H   0  0  0  0  0  0
  -25.1279  -36.2011   25.0843 H   0  0  0  0  0  0
  -20.9932  -28.3197   24.1454 H   0  0  0  0  0  0
  -20.5659  -26.2248   23.3591 H   0  0  0  0  0  0
  -21.6623  -26.7440   22.1209 H   0  0  0  0  0  0
  -19.6899  -25.6297   21.1220 H   0  0  0  0  0  0
  -19.6679  -27.3211   20.6752 H   0  0  0  0  0  0
  -17.4184  -26.6672   21.4009 H   0  0  0  0  0  0
  -18.0305  -26.0037   22.8999 H   0  0  0  0  0  0
  -19.7905  -30.7234   24.2291 H   0  0  0  0  0  0
  -17.4996  -31.6259   24.5153 H   0  0  0  0  0  0
  -15.5341  -30.2981   23.7640 H   0  0  0  0  0  0
  -15.8648  -28.0814   22.7066 H   0  0  0  0  0  0
  -24.5954  -30.6989   25.7841 H   0  0  0  0  0  0
  -24.8924  -32.2806   26.4972 H   0  0  0  0  0  0
  -25.8144  -30.8840   27.0246 H   0  0  0  0  0  0
  -26.2843  -29.6798   24.1189 H   0  0  0  0  0  0
  -27.4137  -29.7301   25.4532 H   0  0  0  0  0  0
  -27.8650  -30.4383   23.9208 H   0  0  0  0  0  0
  -27.2715  -33.3601   26.2096 H   0  0  0  0  0  0
  -28.3858  -32.6862   25.0295 H   0  0  0  0  0  0
  -28.0755  -31.8409   26.5379 H   0  0  0  0  0  0
  -28.2609  -38.0101   24.7531 H   0  0  0  0  0  0
  -28.1077  -36.2643   24.6278 H   0  0  0  0  0  0
  -27.2305  -37.1437   25.8870 H   0  0  0  0  0  0
  -20.9263  -29.8763   21.7001 H   0  0  0  0  0  0
  -26.0200  -38.2882   24.1422 H   0  0  0  0  0  0
  -30.2739  -18.5184   18.9122 H   0  0  0  0  0  0
  -30.9253  -20.5062   17.6806 H   0  0  0  0  0  0
  -26.1773  -19.8521   18.9193 H   0  0  0  0  0  0
  -23.6352  -23.4443   18.3022 H   0  0  0  0  0  0
  -24.8338  -24.0579   17.1660 H   0  0  0  0  0  0
  -25.1692  -24.0494   18.9022 H   0  0  0  0  0  0
  -23.5290  -21.1344   17.1727 H   0  0  0  0  0  0
  -25.0122  -20.2507   16.8362 H   0  0  0  0  0  0
  -24.6426  -21.7275   15.9531 H   0  0  0  0  0  0
  -28.3510  -22.0206   15.2683 H   0  0  0  0  0  0
  -29.5766  -23.2561   15.0285 H   0  0  0  0  0  0
  -28.0292  -23.6650   15.7966 H   0  0  0  0  0  0
  -26.4881  -19.1658   21.0800 H   0  0  0  0  0  0
  -26.5636  -17.4861   21.5744 H   0  0  0  0  0  0
  -25.6603  -17.9266   20.1310 H   0  0  0  0  0  0
  -29.6464  -25.1743   16.4116 H   0  0  0  0  0  0
  -31.3212  -25.0310   16.8532 H   0  0  0  0  0  0
  -30.3017  -26.9516   18.0041 H   0  0  0  0  0  0
  -30.7498  -25.7691   19.2004 H   0  0  0  0  0  0
  -29.9438  -18.4108   21.4350 H   0  0  0  0  0  0
  -28.8532  -17.4755   22.4109 H   0  0  0  0  0  0
  -31.0019  -16.6144   22.9690 H   0  0  0  0  0  0
  -31.5841  -16.7347   21.3362 H   0  0  0  0  0  0
  -28.1975  -16.0655   20.5614 H   0  0  0  0  0  0
  -29.4042  -16.6890   19.4982 H   0  0  0  0  0  0
  -28.3095  -24.9405   19.2015 H   0  0  0  0  0  0
  -27.9934  -26.2062   18.0177 H   0  0  0  0  0  0
  -25.1728  -21.6526   18.9834 H   0  0  0  0  0  0
  -29.6233  -14.6688   22.2989 H   0  0  0  0  0  0
  1 25  1  0  0  0
  1 30  2  0  0  0
  1 89  1  0  0  0
  2  3  1  0  0  0
  2 25  1  0  0  0
  2 94  1  0  0  0
  2 95  1  0  0  0
  3  4  1  0  0  0
  3 96  1  0  0  0
  3 97  1  0  0  0
  4  5  1  0  0  0
  4 98  1  0  0  0
  4 99  1  0  0  0
  5  6  1  0  0  0
  5 26  1  0  0  0
  5100  1  0  0  0
  6 25  1  0  0  0
  6101  1  0  0  0
  6102  1  0  0  0
  7  8  2  0  0  0
  7 26  1  0  0  0
  7 29  1  0  0  0
  8  9  1  0  0  0
  8 22  1  0  0  0
  9 10  1  0  0  0
  9 27  2  0  0  0
 10 11  2  0  0  0
 10 15  1  0  0  0
 11 12  1  0  0  0
 11103  1  0  0  0
 12 13  2  0  0  0
 12104  1  0  0  0
 13 14  1  0  0  0
 13 31  1  0  0  0
 14 15  2  0  0  0
 14105  1  0  0  0
 15106  1  0  0  0
 16 17  2  0  0  0
 16 21  1  0  0  0
 16 31  1  0  0  0
 17 18  1  0  0  0
 17107  1  0  0  0
 18 19  2  0  0  0
 18108  1  0  0  0
 19 20  1  0  0  0
 19 24  1  0  0  0
 20 21  2  0  0  0
 20109  1  0  0  0
 21 23  1  0  0  0
 22 28  1  0  0  0
 22 32  2  0  0  0
 26 27  1  0  0  0
 28110  1  0  0  0
 28111  1  0  0  0
 29112  1  0  0  0
 29113  1  0  0  0
 33 34  1  0  0  0
 33 66  1  0  0  0
 33 70  2  0  0  0
 34 36  1  0  0  0
 34 59  1  0  0  0
 34114  1  0  0  0
 35 44  2  0  0  0
 35 45  1  0  0  0
 35 68  1  0  0  0
 36 56  1  0  0  0
 36115  1  0  0  0
 37 39  1  0  0  0
 37 47  1  0  0  0
 37 66  1  0  0  0
 37116  1  0  0  0
 38 43  2  0  0  0
 38 46  1  0  0  0
 38 47  1  0  0  0
 39 64  1  0  0  0
 39 67  2  0  0  0
 40 52  1  0  0  0
 40 53  2  0  0  0
 40 58  1  0  0  0
 41117  1  0  0  0
 41118  1  0  0  0
 41119  1  0  0  0
 41 48  1  0  0  0
 42 43  1  0  0  0
 42 66  1  0  0  0
 42120  1  0  0  0
 42121  1  0  0  0
 43 44  1  0  0  0
 44122  1  0  0  0
 45 46  2  0  0  0
 45123  1  0  0  0
 46124  1  0  0  0
 47125  1  0  0  0
 47126  1  0  0  0
 48 56  1  0  0  0
 48 65  1  0  0  0
 48127  1  0  0  0
 49 50  1  0  0  0
 49 53  1  0  0  0
 49 64  1  0  0  0
 49128  1  0  0  0
 50 51  1  0  0  0
 50129  1  0  0  0
 50130  1  0  0  0
 51 52  1  0  0  0
 51131  1  0  0  0
 51132  1  0  0  0
 52133  1  0  0  0
 52134  1  0  0  0
 53 54  1  0  0  0
 54 55  2  0  0  0
 54135  1  0  0  0
 55 57  1  0  0  0
 55136  1  0  0  0
 56 69  2  0  0  0
 57 58  2  0  0  0
 57137  1  0  0  0
 58138  1  0  0  0
 59 60  1  0  0  0
 59 61  1  0  0  0
 59 62  1  0  0  0
 60139  1  0  0  0
 60140  1  0  0  0
 60141  1  0  0  0
 61142  1  0  0  0
 61143  1  0  0  0
 61144  1  0  0  0
 62145  1  0  0  0
 62146  1  0  0  0
 62147  1  0  0  0
 63 65  1  0  0  0
 63148  1  0  0  0
 63149  1  0  0  0
 63150  1  0  0  0
 64151  1  0  0  0
 65152  1  0  0  0
 68 87  1  0  0  0
 71 72  2  0  0  0
 71 74  1  0  0  0
 71153  1  0  0  0
 72 75  1  0  0  0
 72154  1  0  0  0
 73 74  2  0  0  0
 73 76  1  0  0  0
 73155  1  0  0  0
 74 91  1  0  0  0
 75 76  2  0  0  0
 75 90  1  0  0  0
 76 93  1  0  0  0
 77 82  1  0  0  0
 77 90  1  0  0  0
 77 92  2  0  0  0
 78156  1  0  0  0
 78157  1  0  0  0
 78158  1  0  0  0
 78 88  1  0  0  0
 79 88  1  0  0  0
 79159  1  0  0  0
 79160  1  0  0  0
 79161  1  0  0  0
 80 90  1  0  0  0
 80162  1  0  0  0
 80163  1  0  0  0
 80164  1  0  0  0
 81 91  1  0  0  0
 81165  1  0  0  0
 81166  1  0  0  0
 81167  1  0  0  0
 82 83  1  0  0  0
 82168  1  0  0  0
 82169  1  0  0  0
 83 87  1  0  0  0
 83170  1  0  0  0
 83171  1  0  0  0
 84 85  1  0  0  0
 84 86  1  0  0  0
 84172  1  0  0  0
 84173  1  0  0  0
 85 89  1  0  0  0
 85174  1  0  0  0
 85175  1  0  0  0
 86 91  1  0  0  0
 86176  1  0  0  0
 86177  1  0  0  0
 87178  1  0  0  0
 87179  1  0  0  0
 88 93  1  0  0  0
 88180  1  0  0  0
 89181  1  0  0  0
M  ISO  4   1 100  68 101  87 101  89 100
M  END
> <chiral flag>
0

> <version>
0

> <s_m_source_file>
/data/baiqing/PycharmProjects/Reinvent-master-3.2/result/LINK_invent/BTK/process_docking_weight1_custom_sum_contain_oxygen_bond_distance_aromatic_linkinvent_7_9_3/rearranged_h_0004.sdf

> <i_m_source_file_index>
82

> <r_mmod_Potential_Energy-OPLS-2005>
-39.2474632263184

> <r_mmod_Stretch_Energy-OPLS-2005>
37.6582450866699

> <r_mmod_Bend_Energy-OPLS-2005>
115.013725280762

> <r_mmod_Torsional_Energy-OPLS-2005>
251.471221923828

> <r_mmod_Improper_Torsional_Energy-OPLS-2005>
4.24141788482666

> <r_mmod_Van_der_Waal_Energy-OPLS-2005>
187.46061706543

> <r_mmod_Electrostatic_Energy-OPLS-2005>
-412.433807373047

> <r_mmod_Solvation_Energy-OPLS-2005>
-231.370056152344

> <b_mmod_Minimization_Converged-OPLS-2005>
0

> <r_mmod_RMS_Derivative-OPLS-2005>
3.89735102653503

$$$$
82
                    3D
 Structure written by MMmdl.
147155  0  0  1  0            999 V2000
  -30.3056  -15.5909   20.3155 C   0  0  0  0  0  0
  -30.4390  -13.0438   19.5403 C   0  0  0  0  0  0
  -29.5585  -12.6371   18.3244 C   0  0  0  0  0  0
  -28.1252  -12.2991   18.7648 C   0  0  0  0  0  0
  -27.6040  -13.3026   19.8184 C   0  0  2  0  0  0
  -28.6253  -13.6060   20.9382 C   0  0  0  0  0  0
  -25.2354  -13.8285   20.5784 C   0  0  0  0  0  0
  -24.1724  -13.0453   20.9298 C   0  0  0  0  0  0
  -24.6426  -11.6955   20.8789 C   0  0  0  0  0  0
  -23.9122  -10.4308   21.0434 C   0  0  0  0  0  0
  -24.3650   -9.4215   21.9209 C   0  0  0  0  0  0
  -23.6299   -8.2263   22.0776 C   0  0  0  0  0  0
  -22.4283   -8.0322   21.3573 C   0  0  0  0  0  0
  -21.9935   -9.0302   20.4676 C   0  0  0  0  0  0
  -22.7294  -10.2170   20.3086 C   0  0  0  0  0  0
  -21.6861   -6.0761   22.5290 C   0  0  0  0  0  0
  -21.4022   -6.5655   23.8230 C   0  0  0  0  0  0
  -21.3652   -5.6804   24.9181 C   0  0  0  0  0  0
  -21.6034   -4.3064   24.7228 C   0  0  0  0  0  0
  -21.8812   -3.8162   23.4344 C   0  0  0  0  0  0
  -21.9193   -4.6981   22.3405 C   0  0  0  0  0  0
  -22.7733  -13.5204   21.1909 C   0  0  0  0  0  0
  -22.1652   -4.2169   21.0979 F   0  0  0  0  0  0
  -21.5613   -3.4545   25.7733 F   0  0  0  0  0  0
  -29.8079  -14.2187   20.2893 N   0  0  0  0  0  0
  -26.2811  -12.9609   20.3249 N   0  0  0  0  0  0
  -25.9378  -11.6690   20.5725 N   0  0  0  0  0  0
  -22.0344  -12.8239   22.0461 N   0  0  0  0  0  0
  -25.3933  -15.2024   20.4167 N   0  0  0  0  0  0
  -31.5354  -15.5643   20.1222 O   0  0  0  0  0  0
  -21.6647   -6.8914   21.4261 O   0  0  0  0  0  0
  -22.3441  -14.5504   20.6723 O   0  0  0  0  0  0
  -24.6839  -31.7985   23.1533 C   0  0  0  0  0  0
  -25.9418  -32.4452   23.8076 C   0  0  1  0  0  0
  -27.2302  -26.7089   20.2037 C   0  0  0  0  0  0
  -25.5990  -33.8283   24.1953 N   0  0  0  0  0  0
  -23.5107  -30.4017   21.5058 C   0  0  2  0  0  0
  -24.9690  -28.7449   20.1155 C   0  0  0  0  0  0
  -22.7761  -29.4308   22.4709 C   0  0  0  0  0  0
  -18.0337  -28.1417   22.8454 C   0  0  0  0  0  0
  -24.1504  -36.7158   23.2658 C   0  0  0  0  0  0
  -26.0923  -30.5315   21.4198 C   0  0  0  0  0  0
  -26.1584  -29.0983   20.7649 C   0  0  0  0  0  0
  -27.2729  -28.1087   20.7785 C   0  0  0  0  0  0
  -26.0092  -26.5650   19.4959 C   0  0  0  0  0  0
  -24.9333  -27.5028   19.4577 C   0  0  0  0  0  0
  -23.7644  -29.6994   20.1409 C   0  0  0  0  0  0
  -25.4158  -36.2892   24.0282 C   0  0  1  0  0  0
  -20.5971  -28.3774   23.1133 C   0  0  2  0  0  0
  -20.6816  -26.9435   22.5397 C   0  0  0  0  0  0
  -19.5790  -26.6373   21.5211 C   0  0  0  0  0  0
  -18.1970  -26.7945   22.1620 C   0  0  0  0  0  0
  -19.1605  -28.8924   23.2776 C   0  0  0  0  0  0
  -18.9507  -30.1513   23.8815 C   0  0  0  0  0  0
  -17.6494  -30.6599   24.0546 C   0  0  0  0  0  0
  -25.9131  -34.9274   23.4961 C   0  0  0  0  0  0
  -16.5383  -29.9080   23.6350 C   0  0  0  0  0  0
  -16.7315  -28.6508   23.0361 C   0  0  0  0  0  0
  -26.4583  -31.6501   25.0709 C   0  0  0  0  0  0
  -25.3649  -31.3820   26.1324 C   0  0  0  0  0  0
  -27.0519  -30.2836   24.6635 C   0  0  0  0  0  0
  -27.6031  -32.4367   25.7517 C   0  0  0  0  0  0
  -27.5576  -37.1742   24.8474 C   0  0  0  0  0  0
  -21.4413  -29.3016   22.3443 N   0  0  0  0  0  0
  -26.4290  -37.3647   23.9392 N   0  0  0  0  0  0
  -24.7859  -30.9437   22.0780 N   0  0  0  0  0  0
  -23.4203  -28.7904   23.3049 O   0  0  0  0  0  0
  -28.1815  -25.4836   20.2880 O   0  0  0  0  0  0
  -26.5777  -34.8842   22.4579 O   0  0  0  0  0  0
  -23.5863  -32.1049   23.6491 O   0  0  0  0  0  0
  -28.7204  -21.1038   21.3336 C   0  0  0  0  0  0
  -29.0478  -19.6080   21.3845 C   0  0  0  0  0  0
  -29.0022  -21.0707   19.1329 C   0  0  0  0  0  0
  -28.6464  -22.0646   20.1965 C   0  0  0  0  0  0
  -29.3323  -19.5696   19.1677 C   0  0  0  0  0  0
  -29.4057  -18.6217   20.3208 C   0  0  0  0  0  0
  -29.5456  -18.9220   17.8057 C   0  0  0  0  0  0
  -27.9033  -23.7751   20.0254 C   0  0  0  0  0  0
  -29.4801  -16.9036   20.3974 N   0  0  0  0  0  0
  -31.4334  -13.3074   19.1772 H   0  0  0  0  0  0
  -30.5964  -12.1918   20.2048 H   0  0  0  0  0  0
  -30.0008  -11.7879   17.8020 H   0  0  0  0  0  0
  -29.5330  -13.4595   17.6081 H   0  0  0  0  0  0
  -28.1426  -11.2981   19.1976 H   0  0  0  0  0  0
  -27.4568  -12.2550   17.9043 H   0  0  0  0  0  0
  -27.4777  -14.2321   19.2620 H   0  0  0  0  0  0
  -28.8740  -12.7086   21.5065 H   0  0  0  0  0  0
  -28.2041  -14.3184   21.6495 H   0  0  0  0  0  0
  -25.2791   -9.5672   22.4798 H   0  0  0  0  0  0
  -23.9989   -7.4655   22.7512 H   0  0  0  0  0  0
  -21.0854   -8.8871   19.8997 H   0  0  0  0  0  0
  -22.3768  -10.9726   19.6211 H   0  0  0  0  0  0
  -21.2027   -7.6168   23.9740 H   0  0  0  0  0  0
  -21.1468   -6.0527   25.9087 H   0  0  0  0  0  0
  -22.0586   -2.7625   23.2850 H   0  0  0  0  0  0
  -22.3922  -11.9917   22.4904 H   0  0  0  0  0  0
  -21.0973  -13.1343   22.2641 H   0  0  0  0  0  0
  -24.6122  -15.8406   20.5232 H   0  0  0  0  0  0
  -26.2130  -15.6467   20.0251 H   0  0  0  0  0  0
  -26.7498  -32.4911   23.0790 H   0  0  0  0  0  0
  -25.0017  -33.9305   25.0021 H   0  0  0  0  0  0
  -22.8361  -31.2399   21.3171 H   0  0  0  0  0  0
  -23.3762  -35.9496   23.3299 H   0  0  0  0  0  0
  -24.3565  -36.8833   22.2080 H   0  0  0  0  0  0
  -23.7270  -37.6338   23.6739 H   0  0  0  0  0  0
  -26.3026  -31.2582   20.6342 H   0  0  0  0  0  0
  -26.9417  -30.5929   22.0886 H   0  0  0  0  0  0
  -28.1665  -28.3830   21.3228 H   0  0  0  0  0  0
  -25.8433  -25.6253   18.9879 H   0  0  0  0  0  0
  -24.0371  -27.2234   18.9204 H   0  0  0  0  0  0
  -23.9339  -30.4601   19.3778 H   0  0  0  0  0  0
  -22.8693  -29.1649   19.8197 H   0  0  0  0  0  0
  -25.1362  -36.1677   25.0773 H   0  0  0  0  0  0
  -21.0048  -28.3410   24.1259 H   0  0  0  0  0  0
  -20.5677  -26.2390   23.3655 H   0  0  0  0  0  0
  -21.6679  -26.7385   22.1204 H   0  0  0  0  0  0
  -19.6946  -25.6267   21.1290 H   0  0  0  0  0  0
  -19.6735  -27.3129   20.6700 H   0  0  0  0  0  0
  -17.4229  -26.6656   21.4035 H   0  0  0  0  0  0
  -18.0386  -26.0108   22.9043 H   0  0  0  0  0  0
  -19.7976  -30.7370   24.2137 H   0  0  0  0  0  0
  -17.5032  -31.6267   24.5168 H   0  0  0  0  0  0
  -15.5381  -30.2954   23.7726 H   0  0  0  0  0  0
  -15.8713  -28.0808   22.7112 H   0  0  0  0  0  0
  -24.5804  -30.7217   25.7598 H   0  0  0  0  0  0
  -24.8880  -32.3053   26.4630 H   0  0  0  0  0  0
  -25.7806  -30.9024   27.0196 H   0  0  0  0  0  0
  -26.3242  -29.6438   24.1631 H   0  0  0  0  0  0
  -27.3920  -29.7295   25.5394 H   0  0  0  0  0  0
  -27.9233  -30.3936   24.0179 H   0  0  0  0  0  0
  -27.2550  -33.3704   26.1945 H   0  0  0  0  0  0
  -28.3911  -32.6881   25.0405 H   0  0  0  0  0  0
  -28.0631  -31.8619   26.5565 H   0  0  0  0  0  0
  -28.2583  -38.0043   24.7469 H   0  0  0  0  0  0
  -28.1069  -36.2558   24.6356 H   0  0  0  0  0  0
  -27.2272  -37.1450   25.8871 H   0  0  0  0  0  0
  -20.9713  -29.8651   21.6493 H   0  0  0  0  0  0
  -26.0127  -38.2706   24.1349 H   0  0  0  0  0  0
  -28.4393  -21.5279   22.2890 H   0  0  0  0  0  0
  -28.9662  -19.1779   22.3729 H   0  0  0  0  0  0
  -28.9592  -21.4904   18.1376 H   0  0  0  0  0  0
  -29.8995  -19.6366   17.0579 H   0  0  0  0  0  0
  -28.6105  -18.4870   17.4450 H   0  0  0  0  0  0
  -30.2885  -18.1244   17.8786 H   0  0  0  0  0  0
  -26.9319  -23.6357   20.5010 H   0  0  0  0  0  0
  -27.6642  -23.7756   18.9615 H   0  0  0  0  0  0
  -28.5441  -16.5726   20.5794 H   0  0  0  0  0  0
  1 25  1  0  0  0
  1 30  2  0  0  0
  1 79  1  0  0  0
  2  3  1  0  0  0
  2 25  1  0  0  0
  2 80  1  0  0  0
  2 81  1  0  0  0
  3  4  1  0  0  0
  3 82  1  0  0  0
  3 83  1  0  0  0
  4  5  1  0  0  0
  4 84  1  0  0  0
  4 85  1  0  0  0
  5  6  1  0  0  0
  5 26  1  0  0  0
  5 86  1  0  0  0
  6 25  1  0  0  0
  6 87  1  0  0  0
  6 88  1  0  0  0
  7  8  2  0  0  0
  7 26  1  0  0  0
  7 29  1  0  0  0
  8  9  1  0  0  0
  8 22  1  0  0  0
  9 10  1  0  0  0
  9 27  2  0  0  0
 10 11  2  0  0  0
 10 15  1  0  0  0
 11 12  1  0  0  0
 11 89  1  0  0  0
 12 13  2  0  0  0
 12 90  1  0  0  0
 13 14  1  0  0  0
 13 31  1  0  0  0
 14 15  2  0  0  0
 14 91  1  0  0  0
 15 92  1  0  0  0
 16 17  2  0  0  0
 16 21  1  0  0  0
 16 31  1  0  0  0
 17 18  1  0  0  0
 17 93  1  0  0  0
 18 19  2  0  0  0
 18 94  1  0  0  0
 19 20  1  0  0  0
 19 24  1  0  0  0
 20 21  2  0  0  0
 20 95  1  0  0  0
 21 23  1  0  0  0
 22 28  1  0  0  0
 22 32  2  0  0  0
 26 27  1  0  0  0
 28 96  1  0  0  0
 28 97  1  0  0  0
 29 98  1  0  0  0
 29 99  1  0  0  0
 33 34  1  0  0  0
 33 66  1  0  0  0
 33 70  2  0  0  0
 34 36  1  0  0  0
 34 59  1  0  0  0
 34100  1  0  0  0
 35 44  2  0  0  0
 35 45  1  0  0  0
 35 68  1  0  0  0
 36 56  1  0  0  0
 36101  1  0  0  0
 37 39  1  0  0  0
 37 47  1  0  0  0
 37 66  1  0  0  0
 37102  1  0  0  0
 38 43  2  0  0  0
 38 46  1  0  0  0
 38 47  1  0  0  0
 39 64  1  0  0  0
 39 67  2  0  0  0
 40 52  1  0  0  0
 40 53  2  0  0  0
 40 58  1  0  0  0
 41103  1  0  0  0
 41104  1  0  0  0
 41105  1  0  0  0
 41 48  1  0  0  0
 42 43  1  0  0  0
 42 66  1  0  0  0
 42106  1  0  0  0
 42107  1  0  0  0
 43 44  1  0  0  0
 44108  1  0  0  0
 45 46  2  0  0  0
 45109  1  0  0  0
 46110  1  0  0  0
 47111  1  0  0  0
 47112  1  0  0  0
 48 56  1  0  0  0
 48 65  1  0  0  0
 48113  1  0  0  0
 49 50  1  0  0  0
 49 53  1  0  0  0
 49 64  1  0  0  0
 49114  1  0  0  0
 50 51  1  0  0  0
 50115  1  0  0  0
 50116  1  0  0  0
 51 52  1  0  0  0
 51117  1  0  0  0
 51118  1  0  0  0
 52119  1  0  0  0
 52120  1  0  0  0
 53 54  1  0  0  0
 54 55  2  0  0  0
 54121  1  0  0  0
 55 57  1  0  0  0
 55122  1  0  0  0
 56 69  2  0  0  0
 57 58  2  0  0  0
 57123  1  0  0  0
 58124  1  0  0  0
 59 60  1  0  0  0
 59 61  1  0  0  0
 59 62  1  0  0  0
 60125  1  0  0  0
 60126  1  0  0  0
 60127  1  0  0  0
 61128  1  0  0  0
 61129  1  0  0  0
 61130  1  0  0  0
 62131  1  0  0  0
 62132  1  0  0  0
 62133  1  0  0  0
 63 65  1  0  0  0
 63134  1  0  0  0
 63135  1  0  0  0
 63136  1  0  0  0
 64137  1  0  0  0
 65138  1  0  0  0
 68 78  1  0  0  0
 71 72  2  0  0  0
 71 74  1  0  0  0
 71139  1  0  0  0
 72 76  1  0  0  0
 72140  1  0  0  0
 73 74  2  0  0  0
 73 75  1  0  0  0
 73141  1  0  0  0
 74 78  1  0  0  0
 75 76  2  0  0  0
 75 77  1  0  0  0
 76 79  1  0  0  0
 77142  1  0  0  0
 77143  1  0  0  0
 77144  1  0  0  0
 78145  1  0  0  0
 78146  1  0  0  0
 79147  1  0  0  0
M  ISO  4   1 100  68 101  78 101  79 100
M  END
> <chiral flag>
0

> <version>
0

> <s_m_source_file>
/data/baiqing/PycharmProjects/Reinvent-master-3.2/result/LINK_invent/BTK/process_docking_weight1_custom_sum_contain_oxygen_bond_distance_aromatic_linkinvent_7_9_3/rearranged_h_0004.sdf

> <i_m_source_file_index>
83

> <r_mmod_Potential_Energy-OPLS-2005>
2252.31005859375

> <r_mmod_Stretch_Energy-OPLS-2005>
917.401550292969

> <r_mmod_Bend_Energy-OPLS-2005>
649.210205078125

> <r_mmod_Torsional_Energy-OPLS-2005>
259.007171630859

> <r_mmod_Improper_Torsional_Energy-OPLS-2005>
10.5041561126709

> <r_mmod_Van_der_Waal_Energy-OPLS-2005>
130.28239440918

> <r_mmod_Electrostatic_Energy-OPLS-2005>
-365.772888183594

> <r_mmod_Solvation_Energy-OPLS-2005>
-212.011962890625

> <b_mmod_Minimization_Converged-OPLS-2005>
0

> <r_mmod_RMS_Derivative-OPLS-2005>
2.78072738647461

$$$$
83
                    3D
 Structure written by MMmdl.
161169  0  0  1  0            999 V2000
  -30.6188  -14.6374   20.5050 C   0  0  0  0  0  0
  -30.4426  -12.3928   19.4510 C   0  0  0  0  0  0
  -29.5100  -12.5096   18.2246 C   0  0  0  0  0  0
  -28.0329  -12.3469   18.6371 C   0  0  0  0  0  0
  -27.6555  -13.2148   19.8678 C   0  0  2  0  0  0
  -28.7006  -13.0610   20.9956 C   0  0  0  0  0  0
  -25.2554  -13.8153   20.5660 C   0  0  0  0  0  0
  -24.1814  -13.0429   20.9160 C   0  0  0  0  0  0
  -24.6387  -11.6902   20.8729 C   0  0  0  0  0  0
  -23.9060  -10.4290   21.0402 C   0  0  0  0  0  0
  -24.3607   -9.4206   21.9183 C   0  0  0  0  0  0
  -23.6280   -8.2244   22.0756 C   0  0  0  0  0  0
  -22.4260   -8.0284   21.3551 C   0  0  0  0  0  0
  -21.9897   -9.0258   20.4653 C   0  0  0  0  0  0
  -22.7229  -10.2135   20.3058 C   0  0  0  0  0  0
  -21.6853   -6.0727   22.5275 C   0  0  0  0  0  0
  -21.4015   -6.5628   23.8207 C   0  0  0  0  0  0
  -21.3662   -5.6784   24.9170 C   0  0  0  0  0  0
  -21.6040   -4.3047   24.7222 C   0  0  0  0  0  0
  -21.8820   -3.8140   23.4344 C   0  0  0  0  0  0
  -21.9192   -4.6955   22.3401 C   0  0  0  0  0  0
  -22.7843  -13.5243   21.1829 C   0  0  0  0  0  0
  -22.1660   -4.2142   21.0977 F   0  0  0  0  0  0
  -21.5630   -3.4530   25.7737 F   0  0  0  0  0  0
  -30.0163  -13.4083   20.4337 N   0  0  0  0  0  0
  -26.3000  -12.9341   20.3349 N   0  0  0  0  0  0
  -25.9320  -11.6499   20.5770 N   0  0  0  0  0  0
  -22.0475  -12.8256   22.0393 N   0  0  0  0  0  0
  -25.4234  -15.1862   20.4035 N   0  0  0  0  0  0
  -31.7784  -14.8053   20.1164 O   0  0  0  0  0  0
  -21.6635   -6.8873   21.4241 O   0  0  0  0  0  0
  -22.3543  -14.5557   20.6683 O   0  0  0  0  0  0
  -24.6247  -31.8614   23.2038 C   0  0  0  0  0  0
  -25.9104  -32.4786   23.8360 C   0  0  1  0  0  0
  -27.2221  -27.3320   20.1099 C   0  0  0  0  0  0
  -25.5923  -33.8586   24.2286 N   0  0  0  0  0  0
  -23.4166  -30.4866   21.5469 C   0  0  2  0  0  0
  -24.8620  -28.9462   20.1095 C   0  0  0  0  0  0
  -22.7463  -29.4635   22.4942 C   0  0  0  0  0  0
  -18.0286  -28.1385   22.8492 C   0  0  0  0  0  0
  -24.1489  -36.7296   23.2635 C   0  0  0  0  0  0
  -25.9571  -30.7966   21.3730 C   0  0  0  0  0  0
  -26.0315  -29.4263   20.7128 C   0  0  0  0  0  0
  -27.2143  -28.6310   20.7027 C   0  0  0  0  0  0
  -26.0278  -26.9034   19.4830 C   0  0  0  0  0  0
  -24.8617  -27.6897   19.4862 C   0  0  0  0  0  0
  -23.6299  -29.8246   20.1610 C   0  0  0  0  0  0
  -25.4111  -36.3083   24.0328 C   0  0  1  0  0  0
  -20.5884  -28.3684   23.1288 C   0  0  2  0  0  0
  -20.6778  -26.9408   22.5413 C   0  0  0  0  0  0
  -19.5752  -26.6385   21.5214 C   0  0  0  0  0  0
  -18.1931  -26.7932   22.1624 C   0  0  0  0  0  0
  -19.1538  -28.8851   23.2888 C   0  0  0  0  0  0
  -18.9462  -30.1458   23.8898 C   0  0  0  0  0  0
  -17.6462  -30.6588   24.0564 C   0  0  0  0  0  0
  -25.9049  -34.9454   23.5102 C   0  0  0  0  0  0
  -16.5353  -29.9087   23.6329 C   0  0  0  0  0  0
  -16.7274  -28.6504   23.0349 C   0  0  0  0  0  0
  -26.4491  -31.6587   25.0722 C   0  0  0  0  0  0
  -25.3732  -31.3729   26.1454 C   0  0  0  0  0  0
  -27.0326  -30.3009   24.6164 C   0  0  0  0  0  0
  -27.6053  -32.4317   25.7494 C   0  0  0  0  0  0
  -27.5580  -37.1796   24.8459 C   0  0  0  0  0  0
  -21.4177  -29.3042   22.3687 N   0  0  0  0  0  0
  -26.4287  -37.3779   23.9413 N   0  0  0  0  0  0
  -24.6851  -31.0641   22.0984 N   0  0  0  0  0  0
  -23.4196  -28.8171   23.3012 O   0  0  0  0  0  0
  -28.3426  -26.4900   20.1592 O   0  0  0  0  0  0
  -26.5616  -34.8918   22.4669 O   0  0  0  0  0  0
  -23.5416  -32.1412   23.7375 O   0  0  0  0  0  0
  -30.9936  -19.2881   20.2741 C   0  0  0  0  0  0
  -30.9829  -17.8630   20.2635 C   0  0  0  0  0  0
  -28.8039  -19.3213   21.2692 C   0  0  0  0  0  0
  -29.9271  -20.0626   20.8168 C   0  0  0  0  0  0
  -29.8897  -17.1281   20.7891 C   0  0  0  0  0  0
  -28.7819  -17.8847   21.2686 C   0  0  0  0  0  0
  -31.0231  -21.8846   21.9229 C   0  0  0  0  0  0
  -30.7315  -22.8778   23.0482 C   0  0  0  0  0  0
  -26.6236  -17.8323   22.3399 C   0  0  0  0  0  0
  -29.2824  -24.0538   20.4890 C   0  0  0  0  0  0
  -28.9414  -22.4895   20.6679 C   0  0  0  0  0  0
  -28.1110  -25.0328   20.0731 C   0  0  0  0  0  0
  -29.8012  -15.6706   20.8757 N   0  0  0  0  0  0
  -30.0408  -21.5153   21.0526 N   0  0  0  0  0  0
  -32.1714  -21.4302   21.8755 O   0  0  0  0  0  0
  -27.7190  -17.1444   21.7482 O   0  0  0  0  0  0
  -31.4833  -12.5220   19.1493 H   0  0  0  0  0  0
  -30.3811  -11.3954   19.8887 H   0  0  0  0  0  0
  -29.7735  -11.7606   17.4767 H   0  0  0  0  0  0
  -29.6521  -13.4806   17.7464 H   0  0  0  0  0  0
  -27.8688  -11.2932   18.8671 H   0  0  0  0  0  0
  -27.3795  -12.5791   17.7957 H   0  0  0  0  0  0
  -27.6763  -14.2519   19.5321 H   0  0  0  0  0  0
  -28.7120  -12.0355   21.3680 H   0  0  0  0  0  0
  -28.4463  -13.6832   21.8557 H   0  0  0  0  0  0
  -25.2752   -9.5679   22.4757 H   0  0  0  0  0  0
  -23.9987   -7.4635   22.7473 H   0  0  0  0  0  0
  -21.0828   -8.8776   19.8961 H   0  0  0  0  0  0
  -22.3687  -10.9669   19.6164 H   0  0  0  0  0  0
  -21.2007   -7.6135   23.9711 H   0  0  0  0  0  0
  -21.1483   -6.0510   25.9073 H   0  0  0  0  0  0
  -22.0597   -2.7602   23.2845 H   0  0  0  0  0  0
  -22.4074  -11.9922   22.4804 H   0  0  0  0  0  0
  -21.1102  -13.1310   22.2593 H   0  0  0  0  0  0
  -24.6552  -15.8377   20.5138 H   0  0  0  0  0  0
  -26.2896  -15.6374   20.1385 H   0  0  0  0  0  0
  -26.7170  -32.5460   23.1110 H   0  0  0  0  0  0
  -25.0074  -33.9739   25.0431 H   0  0  0  0  0  0
  -22.7095  -31.3067   21.4063 H   0  0  0  0  0  0
  -23.3749  -35.9629   23.3291 H   0  0  0  0  0  0
  -24.3584  -36.8924   22.2050 H   0  0  0  0  0  0
  -23.7245  -37.6496   23.6667 H   0  0  0  0  0  0
  -26.0870  -31.5621   20.6068 H   0  0  0  0  0  0
  -26.8378  -30.8435   22.0017 H   0  0  0  0  0  0
  -28.1109  -28.9939   21.1854 H   0  0  0  0  0  0
  -25.9657  -25.9452   18.9897 H   0  0  0  0  0  0
  -23.9658  -27.3172   19.0083 H   0  0  0  0  0  0
  -23.7470  -30.6024   19.4055 H   0  0  0  0  0  0
  -22.7498  -29.2540   19.8590 H   0  0  0  0  0  0
  -25.1288  -36.1931   25.0819 H   0  0  0  0  0  0
  -20.9979  -28.3259   24.1406 H   0  0  0  0  0  0
  -20.5680  -26.2291   23.3611 H   0  0  0  0  0  0
  -21.6648  -26.7447   22.1205 H   0  0  0  0  0  0
  -19.6912  -25.6296   21.1246 H   0  0  0  0  0  0
  -19.6688  -27.3196   20.6743 H   0  0  0  0  0  0
  -17.4202  -26.6684   21.4025 H   0  0  0  0  0  0
  -18.0322  -26.0075   22.9017 H   0  0  0  0  0  0
  -19.7939  -30.7279   24.2259 H   0  0  0  0  0  0
  -17.5016  -31.6268   24.5166 H   0  0  0  0  0  0
  -15.5354  -30.2985   23.7656 H   0  0  0  0  0  0
  -15.8676  -28.0826   22.7054 H   0  0  0  0  0  0
  -24.5908  -30.7069   25.7793 H   0  0  0  0  0  0
  -24.8924  -32.2898   26.4869 H   0  0  0  0  0  0
  -25.8063  -30.8922   27.0232 H   0  0  0  0  0  0
  -26.2892  -29.6766   24.1188 H   0  0  0  0  0  0
  -27.4023  -29.7254   25.4659 H   0  0  0  0  0  0
  -27.8763  -30.4290   23.9379 H   0  0  0  0  0  0
  -27.2661  -33.3612   26.2075 H   0  0  0  0  0  0
  -28.3861  -32.6879   25.0322 H   0  0  0  0  0  0
  -28.0720  -31.8440   26.5406 H   0  0  0  0  0  0
  -28.2584  -38.0107   24.7523 H   0  0  0  0  0  0
  -28.1088  -36.2637   24.6259 H   0  0  0  0  0  0
  -27.2307  -37.1420   25.8864 H   0  0  0  0  0  0
  -20.9345  -29.8764   21.6903 H   0  0  0  0  0  0
  -26.0163  -38.2851   24.1423 H   0  0  0  0  0  0
  -31.8757  -19.7923   19.9037 H   0  0  0  0  0  0
  -31.8460  -17.3473   19.8679 H   0  0  0  0  0  0
  -27.9778  -19.8802   21.6823 H   0  0  0  0  0  0
  -29.6672  -23.0601   23.1905 H   0  0  0  0  0  0
  -31.2470  -23.8213   22.8693 H   0  0  0  0  0  0
  -31.1082  -22.4753   23.9882 H   0  0  0  0  0  0
  -26.1237  -18.4856   21.6236 H   0  0  0  0  0  0
  -26.9386  -18.4177   23.2042 H   0  0  0  0  0  0
  -25.8893  -17.1062   22.6903 H   0  0  0  0  0  0
  -30.0924  -24.1606   19.7669 H   0  0  0  0  0  0
  -29.6643  -24.4713   21.4145 H   0  0  0  0  0  0
  -28.5291  -22.1342   19.7231 H   0  0  0  0  0  0
  -28.1323  -22.3855   21.3912 H   0  0  0  0  0  0
  -27.2534  -24.7898   20.7032 H   0  0  0  0  0  0
  -27.8267  -24.7835   19.0501 H   0  0  0  0  0  0
  -28.9024  -15.3569   21.2095 H   0  0  0  0  0  0
  1 25  1  0  0  0
  1 30  2  0  0  0
  1 83  1  0  0  0
  2  3  1  0  0  0
  2 25  1  0  0  0
  2 87  1  0  0  0
  2 88  1  0  0  0
  3  4  1  0  0  0
  3 89  1  0  0  0
  3 90  1  0  0  0
  4  5  1  0  0  0
  4 91  1  0  0  0
  4 92  1  0  0  0
  5  6  1  0  0  0
  5 26  1  0  0  0
  5 93  1  0  0  0
  6 25  1  0  0  0
  6 94  1  0  0  0
  6 95  1  0  0  0
  7  8  2  0  0  0
  7 26  1  0  0  0
  7 29  1  0  0  0
  8  9  1  0  0  0
  8 22  1  0  0  0
  9 10  1  0  0  0
  9 27  2  0  0  0
 10 11  2  0  0  0
 10 15  1  0  0  0
 11 12  1  0  0  0
 11 96  1  0  0  0
 12 13  2  0  0  0
 12 97  1  0  0  0
 13 14  1  0  0  0
 13 31  1  0  0  0
 14 15  2  0  0  0
 14 98  1  0  0  0
 15 99  1  0  0  0
 16 17  2  0  0  0
 16 21  1  0  0  0
 16 31  1  0  0  0
 17 18  1  0  0  0
 17100  1  0  0  0
 18 19  2  0  0  0
 18101  1  0  0  0
 19 20  1  0  0  0
 19 24  1  0  0  0
 20 21  2  0  0  0
 20102  1  0  0  0
 21 23  1  0  0  0
 22 28  1  0  0  0
 22 32  2  0  0  0
 26 27  1  0  0  0
 28103  1  0  0  0
 28104  1  0  0  0
 29105  1  0  0  0
 29106  1  0  0  0
 33 34  1  0  0  0
 33 66  1  0  0  0
 33 70  2  0  0  0
 34 36  1  0  0  0
 34 59  1  0  0  0
 34107  1  0  0  0
 35 44  2  0  0  0
 35 45  1  0  0  0
 35 68  1  0  0  0
 36 56  1  0  0  0
 36108  1  0  0  0
 37 39  1  0  0  0
 37 47  1  0  0  0
 37 66  1  0  0  0
 37109  1  0  0  0
 38 43  2  0  0  0
 38 46  1  0  0  0
 38 47  1  0  0  0
 39 64  1  0  0  0
 39 67  2  0  0  0
 40 52  1  0  0  0
 40 53  2  0  0  0
 40 58  1  0  0  0
 41110  1  0  0  0
 41111  1  0  0  0
 41112  1  0  0  0
 41 48  1  0  0  0
 42 43  1  0  0  0
 42 66  1  0  0  0
 42113  1  0  0  0
 42114  1  0  0  0
 43 44  1  0  0  0
 44115  1  0  0  0
 45 46  2  0  0  0
 45116  1  0  0  0
 46117  1  0  0  0
 47118  1  0  0  0
 47119  1  0  0  0
 48 56  1  0  0  0
 48 65  1  0  0  0
 48120  1  0  0  0
 49 50  1  0  0  0
 49 53  1  0  0  0
 49 64  1  0  0  0
 49121  1  0  0  0
 50 51  1  0  0  0
 50122  1  0  0  0
 50123  1  0  0  0
 51 52  1  0  0  0
 51124  1  0  0  0
 51125  1  0  0  0
 52126  1  0  0  0
 52127  1  0  0  0
 53 54  1  0  0  0
 54 55  2  0  0  0
 54128  1  0  0  0
 55 57  1  0  0  0
 55129  1  0  0  0
 56 69  2  0  0  0
 57 58  2  0  0  0
 57130  1  0  0  0
 58131  1  0  0  0
 59 60  1  0  0  0
 59 61  1  0  0  0
 59 62  1  0  0  0
 60132  1  0  0  0
 60133  1  0  0  0
 60134  1  0  0  0
 61135  1  0  0  0
 61136  1  0  0  0
 61137  1  0  0  0
 62138  1  0  0  0
 62139  1  0  0  0
 62140  1  0  0  0
 63 65  1  0  0  0
 63141  1  0  0  0
 63142  1  0  0  0
 63143  1  0  0  0
 64144  1  0  0  0
 65145  1  0  0  0
 68 82  1  0  0  0
 71 72  2  0  0  0
 71 74  1  0  0  0
 71146  1  0  0  0
 72 75  1  0  0  0
 72147  1  0  0  0
 73 74  2  0  0  0
 73 76  1  0  0  0
 73148  1  0  0  0
 74 84  1  0  0  0
 75 76  2  0  0  0
 75 83  1  0  0  0
 76 86  1  0  0  0
 77 78  1  0  0  0
 77 84  1  0  0  0
 77 85  2  0  0  0
 78149  1  0  0  0
 78150  1  0  0  0
 78151  1  0  0  0
 79 86  1  0  0  0
 79152  1  0  0  0
 79153  1  0  0  0
 79154  1  0  0  0
 80 81  1  0  0  0
 80 82  1  0  0  0
 80155  1  0  0  0
 80156  1  0  0  0
 81 84  1  0  0  0
 81157  1  0  0  0
 81158  1  0  0  0
 82159  1  0  0  0
 82160  1  0  0  0
 83161  1  0  0  0
M  ISO  4   1 100  68 101  82 101  83 100
M  END
> <chiral flag>
0

> <version>
0

> <s_m_source_file>
/data/baiqing/PycharmProjects/Reinvent-master-3.2/result/LINK_invent/BTK/process_docking_weight1_custom_sum_contain_oxygen_bond_distance_aromatic_linkinvent_7_9_3/rearranged_h_0004.sdf

> <i_m_source_file_index>
84

> <r_mmod_Potential_Energy-OPLS-2005>
110.239868164062

> <r_mmod_Stretch_Energy-OPLS-2005>
86.0180358886719

> <r_mmod_Bend_Energy-OPLS-2005>
147.664810180664

> <r_mmod_Torsional_Energy-OPLS-2005>
291.215576171875

> <r_mmod_Improper_Torsional_Energy-OPLS-2005>
5.00704669952393

> <r_mmod_Van_der_Waal_Energy-OPLS-2005>
161.708953857422

> <r_mmod_Electrostatic_Energy-OPLS-2005>
-406.858062744141

> <r_mmod_Solvation_Energy-OPLS-2005>
-220.107894897461

> <b_mmod_Minimization_Converged-OPLS-2005>
0

> <r_mmod_RMS_Derivative-OPLS-2005>
1.19895029067993

$$$$
84
                    3D
 Structure written by MMmdl.
179188  0  0  1  0            999 V2000
  -30.7717  -14.3018   20.7354 C   0  0  0  0  0  0
  -30.4240  -12.2815   19.3548 C   0  0  0  0  0  0
  -29.4746  -12.5368   18.1701 C   0  0  0  0  0  0
  -28.0018  -12.3827   18.5950 C   0  0  0  0  0  0
  -27.6712  -13.1870   19.8777 C   0  0  2  0  0  0
  -28.7096  -12.8720   20.9732 C   0  0  0  0  0  0
  -25.2659  -13.8123   20.5659 C   0  0  0  0  0  0
  -24.1878  -13.0446   20.9148 C   0  0  0  0  0  0
  -24.6391  -11.6899   20.8721 C   0  0  0  0  0  0
  -23.9043  -10.4298   21.0393 C   0  0  0  0  0  0
  -24.3601   -9.4218   21.9177 C   0  0  0  0  0  0
  -23.6281   -8.2255   22.0756 C   0  0  0  0  0  0
  -22.4265   -8.0280   21.3544 C   0  0  0  0  0  0
  -21.9898   -9.0251   20.4645 C   0  0  0  0  0  0
  -22.7214  -10.2136   20.3049 C   0  0  0  0  0  0
  -21.6855   -6.0733   22.5272 C   0  0  0  0  0  0
  -21.4013   -6.5634   23.8205 C   0  0  0  0  0  0
  -21.3661   -5.6792   24.9174 C   0  0  0  0  0  0
  -21.6045   -4.3053   24.7226 C   0  0  0  0  0  0
  -21.8823   -3.8148   23.4345 C   0  0  0  0  0  0
  -21.9194   -4.6962   22.3399 C   0  0  0  0  0  0
  -22.7904  -13.5257   21.1819 C   0  0  0  0  0  0
  -22.1663   -4.2147   21.0976 F   0  0  0  0  0  0
  -21.5632   -3.4537   25.7740 F   0  0  0  0  0  0
  -30.0569  -13.1845   20.4524 N   0  0  0  0  0  0
  -26.3072  -12.9260   20.3357 N   0  0  0  0  0  0
  -25.9306  -11.6436   20.5737 N   0  0  0  0  0  0
  -22.0534  -12.8263   22.0363 N   0  0  0  0  0  0
  -25.4456  -15.1841   20.4094 N   0  0  0  0  0  0
  -31.7313  -14.6853   20.0568 O   0  0  0  0  0  0
  -21.6634   -6.8877   21.4232 O   0  0  0  0  0  0
  -22.3607  -14.5572   20.6662 O   0  0  0  0  0  0
  -24.6161  -31.8685   23.2078 C   0  0  0  0  0  0
  -25.9038  -32.4827   23.8399 C   0  0  1  0  0  0
  -27.2400  -27.4365   20.1089 C   0  0  0  0  0  0
  -25.5874  -33.8625   24.2318 N   0  0  0  0  0  0
  -23.4054  -30.4878   21.5522 C   0  0  2  0  0  0
  -24.8491  -28.9456   20.1235 C   0  0  0  0  0  0
  -22.7396  -29.4692   22.5053 C   0  0  0  0  0  0
  -18.0260  -28.1392   22.8494 C   0  0  0  0  0  0
  -24.1493  -36.7329   23.2641 C   0  0  0  0  0  0
  -25.9311  -30.8332   21.3572 C   0  0  0  0  0  0
  -26.0078  -29.4653   20.7143 C   0  0  0  0  0  0
  -27.2031  -28.7171   20.7034 C   0  0  0  0  0  0
  -26.0643  -26.9243   19.5157 C   0  0  0  0  0  0
  -24.8725  -27.6726   19.5242 C   0  0  0  0  0  0
  -23.6074  -29.8083   20.1723 C   0  0  0  0  0  0
  -25.4109  -36.3116   24.0331 C   0  0  1  0  0  0
  -20.5849  -28.3704   23.1301 C   0  0  2  0  0  0
  -20.6776  -26.9448   22.5416 C   0  0  0  0  0  0
  -19.5758  -26.6395   21.5226 C   0  0  0  0  0  0
  -18.1923  -26.7947   22.1626 C   0  0  0  0  0  0
  -19.1520  -28.8856   23.2902 C   0  0  0  0  0  0
  -18.9460  -30.1449   23.8926 C   0  0  0  0  0  0
  -17.6473  -30.6600   24.0584 C   0  0  0  0  0  0
  -25.9043  -34.9479   23.5130 C   0  0  0  0  0  0
  -16.5348  -29.9123   23.6336 C   0  0  0  0  0  0
  -16.7257  -28.6537   23.0359 C   0  0  0  0  0  0
  -26.4461  -31.6618   25.0742 C   0  0  0  0  0  0
  -25.3708  -31.3730   26.1485 C   0  0  0  0  0  0
  -27.0314  -30.3058   24.6109 C   0  0  0  0  0  0
  -27.6035  -32.4368   25.7486 C   0  0  0  0  0  0
  -27.5575  -37.1797   24.8448 C   0  0  0  0  0  0
  -21.4131  -29.3055   22.3715 N   0  0  0  0  0  0
  -26.4293  -37.3791   23.9398 N   0  0  0  0  0  0
  -24.6702  -31.0775   22.0972 N   0  0  0  0  0  0
  -23.4129  -28.8236   23.3136 O   0  0  0  0  0  0
  -28.4291  -26.7427   20.1134 O   0  0  0  0  0  0
  -26.5634  -34.8925   22.4704 O   0  0  0  0  0  0
  -23.5336  -32.1468   23.7421 O   0  0  0  0  0  0
  -32.1992  -18.0366   22.7794 C   0  0  0  0  0  0
  -31.2319  -18.6585   23.5865 C   0  0  0  0  0  0
  -31.9305  -16.7828   22.2064 C   0  0  0  0  0  0
  -27.3087  -21.5480   23.1010 C   0  0  0  0  0  0
  -29.9967  -18.0278   23.8462 C   0  0  0  0  0  0
  -29.7302  -16.7462   23.2929 C   0  0  0  0  0  0
  -30.6953  -16.1369   22.4439 C   0  0  0  0  0  0
  -26.8495  -20.3877   22.3957 C   0  0  0  0  0  0
  -28.1003  -21.1079   24.1277 C   0  0  0  0  0  0
  -27.0062  -22.9850   22.8123 C   0  0  0  0  0  0
  -28.3997  -16.0534   23.6029 C   0  0  0  0  0  0
  -28.7692  -21.8251   25.2603 C   0  0  0  0  0  0
  -25.2079  -21.4572   20.7323 C   0  0  0  0  0  0
  -24.8115  -19.1685   21.5688 C   0  0  0  0  0  0
  -26.7299  -19.6281   20.0024 C   0  0  0  0  0  0
  -28.9779  -18.7661   24.7188 C   0  0  0  0  0  0
  -27.9907  -25.0801   21.8765 C   0  0  0  0  0  0
  -28.3980  -25.3407   20.4104 C   0  0  0  0  0  0
  -25.9194  -20.1733   21.1941 C   0  0  0  0  0  0
  -27.4288  -19.3121   22.9250 N   0  0  0  0  0  0
  -28.2038  -19.7401   23.9525 N   0  0  0  0  0  0
  -30.4038  -14.8622   21.8967 N   0  0  0  0  0  0
  -27.9966  -23.6533   22.2064 N   0  0  0  0  0  0
  -25.9352  -23.4903   23.1477 O   0  0  0  0  0  0
  -31.4622  -12.4066   19.0430 H   0  0  0  0  0  0
  -30.3416  -11.2458   19.6871 H   0  0  0  0  0  0
  -29.6991  -11.8537   17.3495 H   0  0  0  0  0  0
  -29.6364  -13.5439   17.7816 H   0  0  0  0  0  0
  -27.8110  -11.3213   18.7638 H   0  0  0  0  0  0
  -27.3405  -12.6831   17.7815 H   0  0  0  0  0  0
  -27.7475  -14.2471   19.6334 H   0  0  0  0  0  0
  -28.6702  -11.8118   21.2288 H   0  0  0  0  0  0
  -28.4427  -13.3813   21.8941 H   0  0  0  0  0  0
  -25.2749   -9.5706   22.4751 H   0  0  0  0  0  0
  -23.9991   -7.4657   22.7489 H   0  0  0  0  0  0
  -21.0832   -8.8757   19.8958 H   0  0  0  0  0  0
  -22.3653  -10.9677   19.6167 H   0  0  0  0  0  0
  -21.1998   -7.6143   23.9710 H   0  0  0  0  0  0
  -21.1478   -6.0523   25.9079 H   0  0  0  0  0  0
  -22.0602   -2.7611   23.2845 H   0  0  0  0  0  0
  -22.4124  -11.9905   22.4742 H   0  0  0  0  0  0
  -21.1160  -13.1320   22.2570 H   0  0  0  0  0  0
  -24.6913  -15.8490   20.5343 H   0  0  0  0  0  0
  -26.3131  -15.6177   20.1215 H   0  0  0  0  0  0
  -26.7119  -32.5546   23.1178 H   0  0  0  0  0  0
  -25.0035  -33.9814   25.0457 H   0  0  0  0  0  0
  -22.7012  -31.3087   21.4038 H   0  0  0  0  0  0
  -23.3762  -35.9666   23.3322 H   0  0  0  0  0  0
  -24.3577  -36.8940   22.2051 H   0  0  0  0  0  0
  -23.7245  -37.6532   23.6673 H   0  0  0  0  0  0
  -26.0315  -31.5904   20.5800 H   0  0  0  0  0  0
  -26.8236  -30.8949   21.9697 H   0  0  0  0  0  0
  -28.0997  -29.1055   21.1654 H   0  0  0  0  0  0
  -26.0576  -25.9552   19.0362 H   0  0  0  0  0  0
  -23.9832  -27.2625   19.0672 H   0  0  0  0  0  0
  -23.6997  -30.5767   19.4024 H   0  0  0  0  0  0
  -22.7329  -29.2174   19.8968 H   0  0  0  0  0  0
  -25.1267  -36.2024   25.0826 H   0  0  0  0  0  0
  -20.9928  -28.3314   24.1429 H   0  0  0  0  0  0
  -20.5726  -26.2343   23.3636 H   0  0  0  0  0  0
  -21.6643  -26.7538   22.1175 H   0  0  0  0  0  0
  -19.6989  -25.6315   21.1270 H   0  0  0  0  0  0
  -19.6701  -27.3211   20.6756 H   0  0  0  0  0  0
  -17.4206  -26.6697   21.4025 H   0  0  0  0  0  0
  -18.0315  -26.0094   22.9018 H   0  0  0  0  0  0
  -19.7951  -30.7222   24.2350 H   0  0  0  0  0  0
  -17.5047  -31.6294   24.5170 H   0  0  0  0  0  0
  -15.5366  -30.3022   23.7646 H   0  0  0  0  0  0
  -15.8669  -28.0840   22.7071 H   0  0  0  0  0  0
  -24.5873  -30.7070   25.7840 H   0  0  0  0  0  0
  -24.8881  -32.2879   26.4934 H   0  0  0  0  0  0
  -25.8011  -30.8918   27.0269 H   0  0  0  0  0  0
  -26.2866  -29.6797   24.1174 H   0  0  0  0  0  0
  -27.4117  -29.7305   25.4568 H   0  0  0  0  0  0
  -27.8674  -30.4412   23.9246 H   0  0  0  0  0  0
  -27.2646  -33.3690   26.2036 H   0  0  0  0  0  0
  -28.3815  -32.6901   25.0270 H   0  0  0  0  0  0
  -28.0749  -31.8528   26.5421 H   0  0  0  0  0  0
  -28.2575  -38.0101   24.7504 H   0  0  0  0  0  0
  -28.1073  -36.2622   24.6269 H   0  0  0  0  0  0
  -27.2284  -37.1425   25.8845 H   0  0  0  0  0  0
  -20.9344  -29.8722   21.6852 H   0  0  0  0  0  0
  -26.0213  -38.2890   24.1393 H   0  0  0  0  0  0
  -33.1474  -18.5227   22.5930 H   0  0  0  0  0  0
  -31.4400  -19.6310   24.0119 H   0  0  0  0  0  0
  -32.6953  -16.3271   21.5949 H   0  0  0  0  0  0
  -27.5693  -16.6019   23.1580 H   0  0  0  0  0  0
  -28.2349  -15.9878   24.6780 H   0  0  0  0  0  0
  -28.3271  -15.0337   23.2442 H   0  0  0  0  0  0
  -28.6460  -22.9050   25.1878 H   0  0  0  0  0  0
  -29.8354  -21.6029   25.2880 H   0  0  0  0  0  0
  -28.3380  -21.5154   26.2149 H   0  0  0  0  0  0
  -24.5874  -21.8692   21.5283 H   0  0  0  0  0  0
  -24.5451  -21.2626   19.8881 H   0  0  0  0  0  0
  -25.9138  -22.2215   20.4082 H   0  0  0  0  0  0
  -24.2198  -19.5291   22.4112 H   0  0  0  0  0  0
  -25.2202  -18.1973   21.8492 H   0  0  0  0  0  0
  -24.1287  -19.0020   20.7349 H   0  0  0  0  0  0
  -27.5328  -20.3127   19.7262 H   0  0  0  0  0  0
  -26.0999  -19.4809   19.1220 H   0  0  0  0  0  0
  -27.1830  -18.6651   20.2416 H   0  0  0  0  0  0
  -29.5158  -19.2723   25.5194 H   0  0  0  0  0  0
  -28.2900  -18.0956   25.2287 H   0  0  0  0  0  0
  -27.0114  -25.5199   22.0733 H   0  0  0  0  0  0
  -28.6925  -25.5828   22.5425 H   0  0  0  0  0  0
  -27.7688  -24.7831   19.7183 H   0  0  0  0  0  0
  -29.4104  -24.9613   20.2531 H   0  0  0  0  0  0
  -29.6448  -14.3724   22.3420 H   0  0  0  0  0  0
  -28.8328  -23.1272   21.9833 H   0  0  0  0  0  0
  1 25  1  0  0  0
  1 30  2  0  0  0
  1 92  1  0  0  0
  2  3  1  0  0  0
  2 25  1  0  0  0
  2 95  1  0  0  0
  2 96  1  0  0  0
  3  4  1  0  0  0
  3 97  1  0  0  0
  3 98  1  0  0  0
  4  5  1  0  0  0
  4 99  1  0  0  0
  4100  1  0  0  0
  5  6  1  0  0  0
  5 26  1  0  0  0
  5101  1  0  0  0
  6 25  1  0  0  0
  6102  1  0  0  0
  6103  1  0  0  0
  7  8  2  0  0  0
  7 26  1  0  0  0
  7 29  1  0  0  0
  8  9  1  0  0  0
  8 22  1  0  0  0
  9 10  1  0  0  0
  9 27  2  0  0  0
 10 11  2  0  0  0
 10 15  1  0  0  0
 11 12  1  0  0  0
 11104  1  0  0  0
 12 13  2  0  0  0
 12105  1  0  0  0
 13 14  1  0  0  0
 13 31  1  0  0  0
 14 15  2  0  0  0
 14106  1  0  0  0
 15107  1  0  0  0
 16 17  2  0  0  0
 16 21  1  0  0  0
 16 31  1  0  0  0
 17 18  1  0  0  0
 17108  1  0  0  0
 18 19  2  0  0  0
 18109  1  0  0  0
 19 20  1  0  0  0
 19 24  1  0  0  0
 20 21  2  0  0  0
 20110  1  0  0  0
 21 23  1  0  0  0
 22 28  1  0  0  0
 22 32  2  0  0  0
 26 27  1  0  0  0
 28111  1  0  0  0
 28112  1  0  0  0
 29113  1  0  0  0
 29114  1  0  0  0
 33 34  1  0  0  0
 33 66  1  0  0  0
 33 70  2  0  0  0
 34 36  1  0  0  0
 34 59  1  0  0  0
 34115  1  0  0  0
 35 44  2  0  0  0
 35 45  1  0  0  0
 35 68  1  0  0  0
 36 56  1  0  0  0
 36116  1  0  0  0
 37 39  1  0  0  0
 37 47  1  0  0  0
 37 66  1  0  0  0
 37117  1  0  0  0
 38 43  2  0  0  0
 38 46  1  0  0  0
 38 47  1  0  0  0
 39 64  1  0  0  0
 39 67  2  0  0  0
 40 52  1  0  0  0
 40 53  2  0  0  0
 40 58  1  0  0  0
 41118  1  0  0  0
 41119  1  0  0  0
 41120  1  0  0  0
 41 48  1  0  0  0
 42 43  1  0  0  0
 42 66  1  0  0  0
 42121  1  0  0  0
 42122  1  0  0  0
 43 44  1  0  0  0
 44123  1  0  0  0
 45 46  2  0  0  0
 45124  1  0  0  0
 46125  1  0  0  0
 47126  1  0  0  0
 47127  1  0  0  0
 48 56  1  0  0  0
 48 65  1  0  0  0
 48128  1  0  0  0
 49 50  1  0  0  0
 49 53  1  0  0  0
 49 64  1  0  0  0
 49129  1  0  0  0
 50 51  1  0  0  0
 50130  1  0  0  0
 50131  1  0  0  0
 51 52  1  0  0  0
 51132  1  0  0  0
 51133  1  0  0  0
 52134  1  0  0  0
 52135  1  0  0  0
 53 54  1  0  0  0
 54 55  2  0  0  0
 54136  1  0  0  0
 55 57  1  0  0  0
 55137  1  0  0  0
 56 69  2  0  0  0
 57 58  2  0  0  0
 57138  1  0  0  0
 58139  1  0  0  0
 59 60  1  0  0  0
 59 61  1  0  0  0
 59 62  1  0  0  0
 60140  1  0  0  0
 60141  1  0  0  0
 60142  1  0  0  0
 61143  1  0  0  0
 61144  1  0  0  0
 61145  1  0  0  0
 62146  1  0  0  0
 62147  1  0  0  0
 62148  1  0  0  0
 63 65  1  0  0  0
 63149  1  0  0  0
 63150  1  0  0  0
 63151  1  0  0  0
 64152  1  0  0  0
 65153  1  0  0  0
 68 88  1  0  0  0
 71 72  2  0  0  0
 71 73  1  0  0  0
 71154  1  0  0  0
 72 75  1  0  0  0
 72155  1  0  0  0
 73 77  2  0  0  0
 73156  1  0  0  0
 74 78  1  0  0  0
 74 79  2  0  0  0
 74 80  1  0  0  0
 75 76  2  0  0  0
 75 86  1  0  0  0
 76 77  1  0  0  0
 76 81  1  0  0  0
 77 92  1  0  0  0
 78 89  1  0  0  0
 78 90  2  0  0  0
 79 82  1  0  0  0
 79 91  1  0  0  0
 80 93  1  0  0  0
 80 94  2  0  0  0
 81157  1  0  0  0
 81158  1  0  0  0
 81159  1  0  0  0
 82160  1  0  0  0
 82161  1  0  0  0
 82162  1  0  0  0
 83163  1  0  0  0
 83164  1  0  0  0
 83165  1  0  0  0
 83 89  1  0  0  0
 84 89  1  0  0  0
 84166  1  0  0  0
 84167  1  0  0  0
 84168  1  0  0  0
 85 89  1  0  0  0
 85169  1  0  0  0
 85170  1  0  0  0
 85171  1  0  0  0
 86 91  1  0  0  0
 86172  1  0  0  0
 86173  1  0  0  0
 87 88  1  0  0  0
 87 93  1  0  0  0
 87174  1  0  0  0
 87175  1  0  0  0
 88176  1  0  0  0
 88177  1  0  0  0
 90 91  1  0  0  0
 92178  1  0  0  0
 93179  1  0  0  0
M  ISO  4   1 100  68 101  88 101  92 100
M  END
> <chiral flag>
0

> <version>
0

> <s_m_source_file>
/data/baiqing/PycharmProjects/Reinvent-master-3.2/result/LINK_invent/BTK/process_docking_weight1_custom_sum_contain_oxygen_bond_distance_aromatic_linkinvent_7_9_3/rearranged_h_0004.sdf

> <i_m_source_file_index>
85

> <r_mmod_Potential_Energy-OPLS-2005>
-166.560134887695

> <r_mmod_Stretch_Energy-OPLS-2005>
37.6175384521484

> <r_mmod_Bend_Energy-OPLS-2005>
122.370864868164

> <r_mmod_Torsional_Energy-OPLS-2005>
239.374572753906

> <r_mmod_Improper_Torsional_Energy-OPLS-2005>
3.38347625732422

> <r_mmod_Van_der_Waal_Energy-OPLS-2005>
150.727447509766

> <r_mmod_Electrostatic_Energy-OPLS-2005>
-501.654937744141

> <r_mmod_Solvation_Energy-OPLS-2005>
-228.787750244141

> <b_mmod_Minimization_Converged-OPLS-2005>
0

> <r_mmod_RMS_Derivative-OPLS-2005>
3.55085587501526

$$$$
85
                    3D
 Structure written by MMmdl.
169176  0  0  1  0            999 V2000
  -30.6895  -14.4275   20.6292 C   0  0  0  0  0  0
  -30.4379  -12.3041   19.3914 C   0  0  0  0  0  0
  -29.4959  -12.5219   18.1887 C   0  0  0  0  0  0
  -28.0143  -12.3805   18.6007 C   0  0  0  0  0  0
  -27.6685  -13.1946   19.8764 C   0  0  2  0  0  0
  -28.7078  -12.9152   20.9827 C   0  0  0  0  0  0
  -25.2634  -13.8128   20.5636 C   0  0  0  0  0  0
  -24.1869  -13.0432   20.9137 C   0  0  0  0  0  0
  -24.6389  -11.6889   20.8681 C   0  0  0  0  0  0
  -23.9042  -10.4290   21.0373 C   0  0  0  0  0  0
  -24.3606   -9.4223   21.9153 C   0  0  0  0  0  0
  -23.6308   -8.2247   22.0742 C   0  0  0  0  0  0
  -22.4286   -8.0258   21.3534 C   0  0  0  0  0  0
  -21.9911   -9.0222   20.4646 C   0  0  0  0  0  0
  -22.7208  -10.2117   20.3039 C   0  0  0  0  0  0
  -21.6864   -6.0729   22.5263 C   0  0  0  0  0  0
  -21.4016   -6.5643   23.8191 C   0  0  0  0  0  0
  -21.3661   -5.6780   24.9151 C   0  0  0  0  0  0
  -21.6051   -4.3053   24.7210 C   0  0  0  0  0  0
  -21.8818   -3.8144   23.4327 C   0  0  0  0  0  0
  -21.9207   -4.6958   22.3385 C   0  0  0  0  0  0
  -22.7892  -13.5254   21.1795 C   0  0  0  0  0  0
  -22.1672   -4.2146   21.0966 F   0  0  0  0  0  0
  -21.5646   -3.4534   25.7730 F   0  0  0  0  0  0
  -30.0426  -13.2483   20.4462 N   0  0  0  0  0  0
  -26.3066  -12.9273   20.3332 N   0  0  0  0  0  0
  -25.9320  -11.6436   20.5690 N   0  0  0  0  0  0
  -22.0538  -12.8254   22.0359 N   0  0  0  0  0  0
  -25.4373  -15.1837   20.4022 N   0  0  0  0  0  0
  -31.7754  -14.7043   20.1068 O   0  0  0  0  0  0
  -21.6648   -6.8865   21.4228 O   0  0  0  0  0  0
  -22.3580  -14.5560   20.6638 O   0  0  0  0  0  0
  -24.6119  -31.8702   23.2119 C   0  0  0  0  0  0
  -25.9022  -32.4836   23.8404 C   0  0  1  0  0  0
  -27.2338  -27.4528   20.0955 C   0  0  0  0  0  0
  -25.5891  -33.8635   24.2337 N   0  0  0  0  0  0
  -23.3992  -30.4920   21.5526 C   0  0  2  0  0  0
  -24.8476  -28.9554   20.1204 C   0  0  0  0  0  0
  -22.7387  -29.4660   22.5005 C   0  0  0  0  0  0
  -18.0262  -28.1371   22.8490 C   0  0  0  0  0  0
  -24.1488  -36.7325   23.2640 C   0  0  0  0  0  0
  -25.9256  -30.8370   21.3652 C   0  0  0  0  0  0
  -26.0038  -29.4685   20.7236 C   0  0  0  0  0  0
  -27.2007  -28.7189   20.7215 C   0  0  0  0  0  0
  -26.0689  -26.9491   19.4859 C   0  0  0  0  0  0
  -24.8716  -27.6905   19.5051 C   0  0  0  0  0  0
  -23.6084  -29.8208   20.1684 C   0  0  0  0  0  0
  -25.4108  -36.3126   24.0343 C   0  0  1  0  0  0
  -20.5852  -28.3654   23.1337 C   0  0  2  0  0  0
  -20.6756  -26.9398   22.5430 C   0  0  0  0  0  0
  -19.5742  -26.6385   21.5217 C   0  0  0  0  0  0
  -18.1914  -26.7923   22.1617 C   0  0  0  0  0  0
  -19.1511  -28.8829   23.2907 C   0  0  0  0  0  0
  -18.9442  -30.1435   23.8906 C   0  0  0  0  0  0
  -17.6451  -30.6588   24.0565 C   0  0  0  0  0  0
  -25.9035  -34.9490   23.5137 C   0  0  0  0  0  0
  -16.5341  -29.9089   23.6328 C   0  0  0  0  0  0
  -16.7253  -28.6507   23.0344 C   0  0  0  0  0  0
  -26.4470  -31.6598   25.0712 C   0  0  0  0  0  0
  -25.3751  -31.3696   26.1470 C   0  0  0  0  0  0
  -27.0298  -30.3045   24.6060 C   0  0  0  0  0  0
  -27.6052  -32.4310   25.7467 C   0  0  0  0  0  0
  -27.5586  -37.1814   24.8463 C   0  0  0  0  0  0
  -21.4119  -29.3022   22.3739 N   0  0  0  0  0  0
  -26.4297  -37.3808   23.9413 N   0  0  0  0  0  0
  -24.6637  -31.0805   22.1023 N   0  0  0  0  0  0
  -23.4165  -28.8207   23.3048 O   0  0  0  0  0  0
  -28.3823  -26.7052   20.0218 O   0  0  0  0  0  0
  -26.5595  -34.8938   22.4695 O   0  0  0  0  0  0
  -23.5316  -32.1456   23.7515 O   0  0  0  0  0  0
  -30.6904  -24.3751   19.5778 C   0  0  0  0  0  0
  -29.7112  -17.6484   20.6405 C   0  0  0  0  0  0
  -31.1803  -23.7260   18.2817 C   0  0  0  0  0  0
  -28.1533  -16.7134   23.1753 C   0  0  0  0  0  0
  -30.3976  -16.1749   24.2015 C   0  0  0  0  0  0
  -29.7226  -21.4351   20.5230 C   0  0  0  0  0  0
  -29.2975  -20.0353   20.0235 C   0  0  0  0  0  0
  -28.9789  -22.5977   19.8150 C   0  0  0  0  0  0
  -28.8385  -24.6315   21.2539 C   0  0  0  0  0  0
  -28.8622  -26.1859   21.2595 C   0  0  0  0  0  0
  -30.3146  -16.6921   21.7025 C   0  0  1  0  0  0
  -29.6774  -16.9708   23.0985 C   0  0  0  0  0  0
  -29.8995  -18.9669   20.8252 N   0  0  0  0  0  0
  -30.0136  -15.2947   21.3886 N   0  0  0  0  0  0
  -29.5364  -23.9319   20.1461 N   0  0  0  0  0  0
  -31.3641  -25.2995   20.0373 O   0  0  0  0  0  0
  -29.0652  -17.2058   19.6878 O   0  0  0  0  0  0
  -31.4768  -12.4377   19.0808 H   0  0  0  0  0  0
  -30.3630  -11.2805   19.7607 H   0  0  0  0  0  0
  -29.7345  -11.8148   17.3933 H   0  0  0  0  0  0
  -29.6589  -13.5162   17.7699 H   0  0  0  0  0  0
  -27.8155  -11.3222   18.7729 H   0  0  0  0  0  0
  -27.3625  -12.6769   17.7774 H   0  0  0  0  0  0
  -27.7292  -14.2515   19.6154 H   0  0  0  0  0  0
  -28.6861  -11.8618   21.2604 H   0  0  0  0  0  0
  -28.4565  -13.4489   21.8993 H   0  0  0  0  0  0
  -25.2753   -9.5749   22.4704 H   0  0  0  0  0  0
  -24.0041   -7.4675   22.7482 H   0  0  0  0  0  0
  -21.0829   -8.8731   19.8972 H   0  0  0  0  0  0
  -22.3638  -10.9648   19.6157 H   0  0  0  0  0  0
  -21.1990   -7.6147   23.9692 H   0  0  0  0  0  0
  -21.1494   -6.0512   25.9053 H   0  0  0  0  0  0
  -22.0607   -2.7609   23.2804 H   0  0  0  0  0  0
  -22.4164  -11.9955   22.4812 H   0  0  0  0  0  0
  -21.1151  -13.1270   22.2537 H   0  0  0  0  0  0
  -24.6661  -15.8363   20.4854 H   0  0  0  0  0  0
  -26.2903  -15.6174   20.0715 H   0  0  0  0  0  0
  -26.7083  -32.5568   23.1164 H   0  0  0  0  0  0
  -25.0050  -33.9806   25.0486 H   0  0  0  0  0  0
  -22.6866  -31.3076   21.4126 H   0  0  0  0  0  0
  -23.3755  -35.9655   23.3314 H   0  0  0  0  0  0
  -24.3586  -36.8925   22.2053 H   0  0  0  0  0  0
  -23.7237  -37.6534   23.6642 H   0  0  0  0  0  0
  -26.0304  -31.5952   20.5875 H   0  0  0  0  0  0
  -26.8177  -30.8984   21.9773 H   0  0  0  0  0  0
  -28.0960  -29.1119   21.1829 H   0  0  0  0  0  0
  -26.0908  -25.9818   19.0026 H   0  0  0  0  0  0
  -23.9820  -27.2875   19.0401 H   0  0  0  0  0  0
  -23.7140  -30.5936   19.4065 H   0  0  0  0  0  0
  -22.7337  -29.2375   19.8752 H   0  0  0  0  0  0
  -25.1284  -36.2000   25.0835 H   0  0  0  0  0  0
  -20.9935  -28.3224   24.1465 H   0  0  0  0  0  0
  -20.5677  -26.2258   23.3606 H   0  0  0  0  0  0
  -21.6629  -26.7456   22.1223 H   0  0  0  0  0  0
  -19.6914  -25.6303   21.1232 H   0  0  0  0  0  0
  -19.6700  -27.3207   20.6760 H   0  0  0  0  0  0
  -17.4197  -26.6676   21.4004 H   0  0  0  0  0  0
  -18.0304  -26.0057   22.9003 H   0  0  0  0  0  0
  -19.7925  -30.7234   24.2286 H   0  0  0  0  0  0
  -17.5020  -31.6273   24.5162 H   0  0  0  0  0  0
  -15.5344  -30.2999   23.7656 H   0  0  0  0  0  0
  -15.8651  -28.0843   22.7044 H   0  0  0  0  0  0
  -24.5907  -30.7059   25.7815 H   0  0  0  0  0  0
  -24.8959  -32.2848   26.4956 H   0  0  0  0  0  0
  -25.8122  -30.8843   27.0203 H   0  0  0  0  0  0
  -26.2825  -29.6800   24.1148 H   0  0  0  0  0  0
  -27.4118  -29.7287   25.4501 H   0  0  0  0  0  0
  -27.8640  -30.4379   23.9166 H   0  0  0  0  0  0
  -27.2671  -33.3589   26.2094 H   0  0  0  0  0  0
  -28.3832  -32.6904   25.0275 H   0  0  0  0  0  0
  -28.0750  -31.8400   26.5339 H   0  0  0  0  0  0
  -28.2614  -38.0105   24.7516 H   0  0  0  0  0  0
  -28.1066  -36.2635   24.6276 H   0  0  0  0  0  0
  -27.2305  -37.1460   25.8867 H   0  0  0  0  0  0
  -20.9265  -29.8740   21.6967 H   0  0  0  0  0  0
  -26.0194  -38.2890   24.1409 H   0  0  0  0  0  0
  -31.4143  -22.6720   18.4249 H   0  0  0  0  0  0
  -32.0850  -24.2184   17.9251 H   0  0  0  0  0  0
  -30.4275  -23.8175   17.4982 H   0  0  0  0  0  0
  -27.7742  -16.9108   24.1784 H   0  0  0  0  0  0
  -27.8926  -15.6825   22.9349 H   0  0  0  0  0  0
  -27.5957  -17.3576   22.4948 H   0  0  0  0  0  0
  -30.0280  -16.4478   25.1906 H   0  0  0  0  0  0
  -31.4702  -16.3688   24.1888 H   0  0  0  0  0  0
  -30.2643  -15.0974   24.0890 H   0  0  0  0  0  0
  -30.7997  -21.5366   20.3896 H   0  0  0  0  0  0
  -29.5452  -21.5115   21.5969 H   0  0  0  0  0  0
  -29.5815  -19.9137   18.9754 H   0  0  0  0  0  0
  -28.2117  -19.9373   20.0707 H   0  0  0  0  0  0
  -27.9224  -22.5459   20.0805 H   0  0  0  0  0  0
  -28.9850  -22.4383   18.7363 H   0  0  0  0  0  0
  -27.7905  -24.3330   21.2714 H   0  0  0  0  0  0
  -29.2641  -24.2718   22.1910 H   0  0  0  0  0  0
  -29.8566  -26.5821   21.4552 H   0  0  0  0  0  0
  -28.2570  -26.5365   22.0983 H   0  0  0  0  0  0
  -31.3967  -16.8410   21.7357 H   0  0  0  0  0  0
  -29.8341  -18.0246   23.3375 H   0  0  0  0  0  0
  -30.4475  -19.2436   21.6288 H   0  0  0  0  0  0
  -29.1284  -14.9634   21.7313 H   0  0  0  0  0  0
  1 25  1  0  0  0
  1 30  2  0  0  0
  1 84  1  0  0  0
  2  3  1  0  0  0
  2 25  1  0  0  0
  2 88  1  0  0  0
  2 89  1  0  0  0
  3  4  1  0  0  0
  3 90  1  0  0  0
  3 91  1  0  0  0
  4  5  1  0  0  0
  4 92  1  0  0  0
  4 93  1  0  0  0
  5  6  1  0  0  0
  5 26  1  0  0  0
  5 94  1  0  0  0
  6 25  1  0  0  0
  6 95  1  0  0  0
  6 96  1  0  0  0
  7  8  2  0  0  0
  7 26  1  0  0  0
  7 29  1  0  0  0
  8  9  1  0  0  0
  8 22  1  0  0  0
  9 10  1  0  0  0
  9 27  2  0  0  0
 10 11  2  0  0  0
 10 15  1  0  0  0
 11 12  1  0  0  0
 11 97  1  0  0  0
 12 13  2  0  0  0
 12 98  1  0  0  0
 13 14  1  0  0  0
 13 31  1  0  0  0
 14 15  2  0  0  0
 14 99  1  0  0  0
 15100  1  0  0  0
 16 17  2  0  0  0
 16 21  1  0  0  0
 16 31  1  0  0  0
 17 18  1  0  0  0
 17101  1  0  0  0
 18 19  2  0  0  0
 18102  1  0  0  0
 19 20  1  0  0  0
 19 24  1  0  0  0
 20 21  2  0  0  0
 20103  1  0  0  0
 21 23  1  0  0  0
 22 28  1  0  0  0
 22 32  2  0  0  0
 26 27  1  0  0  0
 28104  1  0  0  0
 28105  1  0  0  0
 29106  1  0  0  0
 29107  1  0  0  0
 33 34  1  0  0  0
 33 66  1  0  0  0
 33 70  2  0  0  0
 34 36  1  0  0  0
 34 59  1  0  0  0
 34108  1  0  0  0
 35 44  2  0  0  0
 35 45  1  0  0  0
 35 68  1  0  0  0
 36 56  1  0  0  0
 36109  1  0  0  0
 37 39  1  0  0  0
 37 47  1  0  0  0
 37 66  1  0  0  0
 37110  1  0  0  0
 38 43  2  0  0  0
 38 46  1  0  0  0
 38 47  1  0  0  0
 39 64  1  0  0  0
 39 67  2  0  0  0
 40 52  1  0  0  0
 40 53  2  0  0  0
 40 58  1  0  0  0
 41111  1  0  0  0
 41112  1  0  0  0
 41113  1  0  0  0
 41 48  1  0  0  0
 42 43  1  0  0  0
 42 66  1  0  0  0
 42114  1  0  0  0
 42115  1  0  0  0
 43 44  1  0  0  0
 44116  1  0  0  0
 45 46  2  0  0  0
 45117  1  0  0  0
 46118  1  0  0  0
 47119  1  0  0  0
 47120  1  0  0  0
 48 56  1  0  0  0
 48 65  1  0  0  0
 48121  1  0  0  0
 49 50  1  0  0  0
 49 53  1  0  0  0
 49 64  1  0  0  0
 49122  1  0  0  0
 50 51  1  0  0  0
 50123  1  0  0  0
 50124  1  0  0  0
 51 52  1  0  0  0
 51125  1  0  0  0
 51126  1  0  0  0
 52127  1  0  0  0
 52128  1  0  0  0
 53 54  1  0  0  0
 54 55  2  0  0  0
 54129  1  0  0  0
 55 57  1  0  0  0
 55130  1  0  0  0
 56 69  2  0  0  0
 57 58  2  0  0  0
 57131  1  0  0  0
 58132  1  0  0  0
 59 60  1  0  0  0
 59 61  1  0  0  0
 59 62  1  0  0  0
 60133  1  0  0  0
 60134  1  0  0  0
 60135  1  0  0  0
 61136  1  0  0  0
 61137  1  0  0  0
 61138  1  0  0  0
 62139  1  0  0  0
 62140  1  0  0  0
 62141  1  0  0  0
 63 65  1  0  0  0
 63142  1  0  0  0
 63143  1  0  0  0
 63144  1  0  0  0
 64145  1  0  0  0
 65146  1  0  0  0
 68 80  1  0  0  0
 71 73  1  0  0  0
 71 85  1  0  0  0
 71 86  2  0  0  0
 72 81  1  0  0  0
 72 83  1  0  0  0
 72 87  2  0  0  0
 73147  1  0  0  0
 73148  1  0  0  0
 73149  1  0  0  0
 74150  1  0  0  0
 74151  1  0  0  0
 74152  1  0  0  0
 74 82  1  0  0  0
 75 82  1  0  0  0
 75153  1  0  0  0
 75154  1  0  0  0
 75155  1  0  0  0
 76 77  1  0  0  0
 76 78  1  0  0  0
 76156  1  0  0  0
 76157  1  0  0  0
 77 83  1  0  0  0
 77158  1  0  0  0
 77159  1  0  0  0
 78 85  1  0  0  0
 78160  1  0  0  0
 78161  1  0  0  0
 79 80  1  0  0  0
 79 85  1  0  0  0
 79162  1  0  0  0
 79163  1  0  0  0
 80164  1  0  0  0
 80165  1  0  0  0
 81 82  1  0  0  0
 81 84  1  0  0  0
 81166  1  0  0  0
 82167  1  0  0  0
 83168  1  0  0  0
 84169  1  0  0  0
M  ISO  4   1 100  68 101  80 101  84 100
M  END
> <chiral flag>
0

> <version>
0

> <s_m_source_file>
/data/baiqing/PycharmProjects/Reinvent-master-3.2/result/LINK_invent/BTK/process_docking_weight1_custom_sum_contain_oxygen_bond_distance_aromatic_linkinvent_7_9_3/rearranged_h_0004.sdf

> <i_m_source_file_index>
86

> <r_mmod_Potential_Energy-OPLS-2005>
-228.913940429688

> <r_mmod_Stretch_Energy-OPLS-2005>
39.1403007507324

> <r_mmod_Bend_Energy-OPLS-2005>
101.438804626465

> <r_mmod_Torsional_Energy-OPLS-2005>
255.480880737305

> <r_mmod_Improper_Torsional_Energy-OPLS-2005>
2.66558432579041

> <r_mmod_Van_der_Waal_Energy-OPLS-2005>
143.022552490234

> <r_mmod_Electrostatic_Energy-OPLS-2005>
-539.509948730469

> <r_mmod_Solvation_Energy-OPLS-2005>
-239.869491577148

> <b_mmod_Minimization_Converged-OPLS-2005>
0

> <r_mmod_RMS_Derivative-OPLS-2005>
2.70646381378174

$$$$
86
                    3D
 Structure written by MMmdl.
160168  0  0  1  0            999 V2000
  -30.6821  -14.7385   20.4912 C   0  0  0  0  0  0
  -30.4275  -12.4677   19.4746 C   0  0  0  0  0  0
  -29.5066  -12.4950   18.2385 C   0  0  0  0  0  0
  -28.0383  -12.3246   18.6627 C   0  0  0  0  0  0
  -27.6440  -13.2407   19.8515 C   0  0  2  0  0  0
  -28.6905  -13.2114   20.9869 C   0  0  0  0  0  0
  -25.2523  -13.8214   20.5738 C   0  0  0  0  0  0
  -24.1820  -13.0455   20.9203 C   0  0  0  0  0  0
  -24.6404  -11.6924   20.8740 C   0  0  0  0  0  0
  -23.9073  -10.4303   21.0388 C   0  0  0  0  0  0
  -24.3616   -9.4221   21.9176 C   0  0  0  0  0  0
  -23.6286   -8.2257   22.0755 C   0  0  0  0  0  0
  -22.4269   -8.0285   21.3540 C   0  0  0  0  0  0
  -21.9907   -9.0261   20.4647 C   0  0  0  0  0  0
  -22.7233  -10.2142   20.3049 C   0  0  0  0  0  0
  -21.6862   -6.0726   22.5265 C   0  0  0  0  0  0
  -21.4021   -6.5634   23.8196 C   0  0  0  0  0  0
  -21.3655   -5.6784   24.9153 C   0  0  0  0  0  0
  -21.6041   -4.3045   24.7212 C   0  0  0  0  0  0
  -21.8828   -3.8130   23.4339 C   0  0  0  0  0  0
  -21.9202   -4.6949   22.3394 C   0  0  0  0  0  0
  -22.7834  -13.5230   21.1848 C   0  0  0  0  0  0
  -22.1675   -4.2132   21.0969 F   0  0  0  0  0  0
  -21.5621   -3.4538   25.7727 F   0  0  0  0  0  0
  -29.9908  -13.5477   20.3952 N   0  0  0  0  0  0
  -26.2971  -12.9448   20.3328 N   0  0  0  0  0  0
  -25.9348  -11.6574   20.5778 N   0  0  0  0  0  0
  -22.0480  -12.8228   22.0397 N   0  0  0  0  0  0
  -25.4213  -15.1945   20.4175 N   0  0  0  0  0  0
  -31.8554  -14.7574   20.1203 O   0  0  0  0  0  0
  -21.6648   -6.8872   21.4226 O   0  0  0  0  0  0
  -22.3520  -14.5529   20.6669 O   0  0  0  0  0  0
  -24.6338  -31.8574   23.1997 C   0  0  0  0  0  0
  -25.9161  -32.4775   23.8333 C   0  0  1  0  0  0
  -27.2060  -27.2525   20.1078 C   0  0  0  0  0  0
  -25.5941  -33.8569   24.2262 N   0  0  0  0  0  0
  -23.4281  -30.4825   21.5504 C   0  0  2  0  0  0
  -24.8691  -28.9325   20.1130 C   0  0  0  0  0  0
  -22.7496  -29.4621   22.4938 C   0  0  0  0  0  0
  -18.0282  -28.1417   22.8482 C   0  0  0  0  0  0
  -24.1489  -36.7287   23.2640 C   0  0  0  0  0  0
  -25.9765  -30.7696   21.3791 C   0  0  0  0  0  0
  -26.0483  -29.3923   20.7141 C   0  0  0  0  0  0
  -27.2237  -28.5678   20.6928 C   0  0  0  0  0  0
  -25.9982  -26.8698   19.4823 C   0  0  0  0  0  0
  -24.8479  -27.6793   19.4902 C   0  0  0  0  0  0
  -23.6438  -29.8249   20.1642 C   0  0  0  0  0  0
  -25.4127  -36.3074   24.0302 C   0  0  1  0  0  0
  -20.5888  -28.3743   23.1257 C   0  0  2  0  0  0
  -20.6783  -26.9464   22.5411 C   0  0  0  0  0  0
  -19.5757  -26.6404   21.5221 C   0  0  0  0  0  0
  -18.1933  -26.7956   22.1622 C   0  0  0  0  0  0
  -19.1536  -28.8886   23.2874 C   0  0  0  0  0  0
  -18.9452  -30.1471   23.8918 C   0  0  0  0  0  0
  -17.6454  -30.6611   24.0561 C   0  0  0  0  0  0
  -25.9061  -34.9449   23.5084 C   0  0  0  0  0  0
  -16.5348  -29.9102   23.6334 C   0  0  0  0  0  0
  -16.7266  -28.6519   23.0353 C   0  0  0  0  0  0
  -26.4519  -31.6584   25.0717 C   0  0  0  0  0  0
  -25.3722  -31.3723   26.1419 C   0  0  0  0  0  0
  -27.0395  -30.2997   24.6243 C   0  0  0  0  0  0
  -27.6054  -32.4352   25.7487 C   0  0  0  0  0  0
  -27.5589  -37.1793   24.8462 C   0  0  0  0  0  0
  -21.4212  -29.3061   22.3648 N   0  0  0  0  0  0
  -26.4304  -37.3771   23.9409 N   0  0  0  0  0  0
  -24.6998  -31.0524   22.1005 N   0  0  0  0  0  0
  -23.4167  -28.8167   23.3058 O   0  0  0  0  0  0
  -28.2938  -26.3413   20.1381 O   0  0  0  0  0  0
  -26.5646  -34.8913   22.4656 O   0  0  0  0  0  0
  -23.5476  -32.1426   23.7276 O   0  0  0  0  0  0
  -31.6949  -20.2237   19.2823 C   0  0  0  0  0  0
  -30.8789  -21.3237   19.6044 C   0  0  0  0  0  0
  -29.1971  -19.7551   20.3629 C   0  0  0  0  0  0
  -31.2944  -18.8782   19.4699 C   0  0  0  0  0  0
  -30.0212  -18.5847   20.0489 C   0  0  0  0  0  0
  -29.5864  -21.1468   20.1408 C   0  0  0  0  0  0
  -30.1406  -24.1003   21.3203 C   0  0  0  0  0  0
  -30.4648  -16.3695   22.2813 C   0  0  0  0  0  0
  -29.4767  -17.0672   20.1261 C   0  0  0  0  0  0
  -28.0052  -24.8536   20.1445 C   0  0  0  0  0  0
  -29.1588  -23.7141   20.2059 C   0  0  2  0  0  0
  -32.2681  -17.7936   19.0002 C   0  0  0  0  0  0
  -30.0742  -15.9120   20.9459 N   0  0  0  0  0  0
  -28.7434  -22.2769   20.4034 O   0  0  0  0  0  0
  -33.2266  -18.2861   18.2113 F   0  0  0  0  0  0
  -32.8677  -17.2669   20.0645 F   0  0  0  0  0  0
  -31.6488  -16.8504   18.2917 F   0  0  0  0  0  0
  -31.4652  -12.5773   19.1536 H   0  0  0  0  0  0
  -30.3785  -11.5015   19.9776 H   0  0  0  0  0  0
  -29.7860  -11.6976   17.5485 H   0  0  0  0  0  0
  -29.6352  -13.4313   17.6937 H   0  0  0  0  0  0
  -27.9066  -11.2817   18.9479 H   0  0  0  0  0  0
  -27.3747  -12.4950   17.8140 H   0  0  0  0  0  0
  -27.6311  -14.2563   19.4556 H   0  0  0  0  0  0
  -28.7299  -12.2326   21.4669 H   0  0  0  0  0  0
  -28.4260  -13.9275   21.7655 H   0  0  0  0  0  0
  -25.2753   -9.5704   22.4769 H   0  0  0  0  0  0
  -23.9981   -7.4656   22.7495 H   0  0  0  0  0  0
  -21.0830   -8.8779   19.8967 H   0  0  0  0  0  0
  -22.3665  -10.9684   19.6171 H   0  0  0  0  0  0
  -21.2022   -7.6139   23.9684 H   0  0  0  0  0  0
  -21.1464   -6.0522   25.9061 H   0  0  0  0  0  0
  -22.0612   -2.7603   23.2840 H   0  0  0  0  0  0
  -22.4111  -11.9910   22.4811 H   0  0  0  0  0  0
  -21.1093  -13.1255   22.2583 H   0  0  0  0  0  0
  -24.6564  -15.8492   20.5403 H   0  0  0  0  0  0
  -26.2755  -15.6360   20.1052 H   0  0  0  0  0  0
  -26.7224  -32.5436   23.1065 H   0  0  0  0  0  0
  -24.9986  -33.9693   25.0339 H   0  0  0  0  0  0
  -22.7255  -31.3058   21.4089 H   0  0  0  0  0  0
  -23.3748  -35.9618   23.3285 H   0  0  0  0  0  0
  -24.3565  -36.8956   22.2063 H   0  0  0  0  0  0
  -23.7218  -37.6460   23.6692 H   0  0  0  0  0  0
  -26.1134  -31.5368   20.6148 H   0  0  0  0  0  0
  -26.8515  -30.8121   22.0175 H   0  0  0  0  0  0
  -28.1334  -28.9177   21.1611 H   0  0  0  0  0  0
  -25.8956  -25.9248   18.9745 H   0  0  0  0  0  0
  -23.9409  -27.3202   19.0242 H   0  0  0  0  0  0
  -23.7754  -30.6072   19.4147 H   0  0  0  0  0  0
  -22.7562  -29.2676   19.8594 H   0  0  0  0  0  0
  -25.1301  -36.1924   25.0783 H   0  0  0  0  0  0
  -20.9965  -28.3351   24.1383 H   0  0  0  0  0  0
  -20.5719  -26.2364   23.3619 H   0  0  0  0  0  0
  -21.6649  -26.7523   22.1200 H   0  0  0  0  0  0
  -19.6914  -25.6306   21.1259 H   0  0  0  0  0  0
  -19.6676  -27.3197   20.6727 H   0  0  0  0  0  0
  -17.4212  -26.6696   21.4016 H   0  0  0  0  0  0
  -18.0329  -26.0109   22.9028 H   0  0  0  0  0  0
  -19.7933  -30.7273   24.2316 H   0  0  0  0  0  0
  -17.5015  -31.6282   24.5175 H   0  0  0  0  0  0
  -15.5343  -30.3001   23.7655 H   0  0  0  0  0  0
  -15.8672  -28.0821   22.7072 H   0  0  0  0  0  0
  -24.5896  -30.7099   25.7703 H   0  0  0  0  0  0
  -24.8909  -32.2888   26.4845 H   0  0  0  0  0  0
  -25.8013  -30.8871   27.0198 H   0  0  0  0  0  0
  -26.3005  -29.6699   24.1291 H   0  0  0  0  0  0
  -27.4068  -29.7313   25.4791 H   0  0  0  0  0  0
  -27.8872  -30.4225   23.9501 H   0  0  0  0  0  0
  -27.2647  -33.3670   26.2021 H   0  0  0  0  0  0
  -28.3879  -32.6919   25.0326 H   0  0  0  0  0  0
  -28.0726  -31.8529   26.5448 H   0  0  0  0  0  0
  -28.2592  -38.0115   24.7557 H   0  0  0  0  0  0
  -28.1101  -36.2637   24.6239 H   0  0  0  0  0  0
  -27.2296  -37.1391   25.8862 H   0  0  0  0  0  0
  -20.9412  -29.8765   21.6829 H   0  0  0  0  0  0
  -26.0180  -38.2834   24.1441 H   0  0  0  0  0  0
  -32.6614  -20.4302   18.8466 H   0  0  0  0  0  0
  -31.2796  -22.3057   19.4053 H   0  0  0  0  0  0
  -28.2089  -19.5746   20.7598 H   0  0  0  0  0  0
  -30.5691  -25.0804   21.1106 H   0  0  0  0  0  0
  -30.9684  -23.3987   21.4230 H   0  0  0  0  0  0
  -29.6382  -24.1677   22.2842 H   0  0  0  0  0  0
  -29.7337  -17.0702   22.6877 H   0  0  0  0  0  0
  -31.4335  -16.8716   22.2535 H   0  0  0  0  0  0
  -30.5408  -15.5387   22.9871 H   0  0  0  0  0  0
  -29.3926  -16.7116   19.0995 H   0  0  0  0  0  0
  -28.4389  -17.1390   20.4533 H   0  0  0  0  0  0
  -27.3389  -24.6791   20.9898 H   0  0  0  0  0  0
  -27.4299  -24.5942   19.2565 H   0  0  0  0  0  0
  -29.6765  -23.7702   19.2477 H   0  0  0  0  0  0
  1 25  1  0  0  0
  1 30  2  0  0  0
  1 83  1  0  0  0
  2  3  1  0  0  0
  2 25  1  0  0  0
  2 88  1  0  0  0
  2 89  1  0  0  0
  3  4  1  0  0  0
  3 90  1  0  0  0
  3 91  1  0  0  0
  4  5  1  0  0  0
  4 92  1  0  0  0
  4 93  1  0  0  0
  5  6  1  0  0  0
  5 26  1  0  0  0
  5 94  1  0  0  0
  6 25  1  0  0  0
  6 95  1  0  0  0
  6 96  1  0  0  0
  7  8  2  0  0  0
  7 26  1  0  0  0
  7 29  1  0  0  0
  8  9  1  0  0  0
  8 22  1  0  0  0
  9 10  1  0  0  0
  9 27  2  0  0  0
 10 11  2  0  0  0
 10 15  1  0  0  0
 11 12  1  0  0  0
 11 97  1  0  0  0
 12 13  2  0  0  0
 12 98  1  0  0  0
 13 14  1  0  0  0
 13 31  1  0  0  0
 14 15  2  0  0  0
 14 99  1  0  0  0
 15100  1  0  0  0
 16 17  2  0  0  0
 16 21  1  0  0  0
 16 31  1  0  0  0
 17 18  1  0  0  0
 17101  1  0  0  0
 18 19  2  0  0  0
 18102  1  0  0  0
 19 20  1  0  0  0
 19 24  1  0  0  0
 20 21  2  0  0  0
 20103  1  0  0  0
 21 23  1  0  0  0
 22 28  1  0  0  0
 22 32  2  0  0  0
 26 27  1  0  0  0
 28104  1  0  0  0
 28105  1  0  0  0
 29106  1  0  0  0
 29107  1  0  0  0
 33 34  1  0  0  0
 33 66  1  0  0  0
 33 70  2  0  0  0
 34 36  1  0  0  0
 34 59  1  0  0  0
 34108  1  0  0  0
 35 44  2  0  0  0
 35 45  1  0  0  0
 35 68  1  0  0  0
 36 56  1  0  0  0
 36109  1  0  0  0
 37 39  1  0  0  0
 37 47  1  0  0  0
 37 66  1  0  0  0
 37110  1  0  0  0
 38 43  2  0  0  0
 38 46  1  0  0  0
 38 47  1  0  0  0
 39 64  1  0  0  0
 39 67  2  0  0  0
 40 52  1  0  0  0
 40 53  2  0  0  0
 40 58  1  0  0  0
 41111  1  0  0  0
 41112  1  0  0  0
 41113  1  0  0  0
 41 48  1  0  0  0
 42 43  1  0  0  0
 42 66  1  0  0  0
 42114  1  0  0  0
 42115  1  0  0  0
 43 44  1  0  0  0
 44116  1  0  0  0
 45 46  2  0  0  0
 45117  1  0  0  0
 46118  1  0  0  0
 47119  1  0  0  0
 47120  1  0  0  0
 48 56  1  0  0  0
 48 65  1  0  0  0
 48121  1  0  0  0
 49 50  1  0  0  0
 49 53  1  0  0  0
 49 64  1  0  0  0
 49122  1  0  0  0
 50 51  1  0  0  0
 50123  1  0  0  0
 50124  1  0  0  0
 51 52  1  0  0  0
 51125  1  0  0  0
 51126  1  0  0  0
 52127  1  0  0  0
 52128  1  0  0  0
 53 54  1  0  0  0
 54 55  2  0  0  0
 54129  1  0  0  0
 55 57  1  0  0  0
 55130  1  0  0  0
 56 69  2  0  0  0
 57 58  2  0  0  0
 57131  1  0  0  0
 58132  1  0  0  0
 59 60  1  0  0  0
 59 61  1  0  0  0
 59 62  1  0  0  0
 60133  1  0  0  0
 60134  1  0  0  0
 60135  1  0  0  0
 61136  1  0  0  0
 61137  1  0  0  0
 61138  1  0  0  0
 62139  1  0  0  0
 62140  1  0  0  0
 62141  1  0  0  0
 63 65  1  0  0  0
 63142  1  0  0  0
 63143  1  0  0  0
 63144  1  0  0  0
 64145  1  0  0  0
 65146  1  0  0  0
 68 80  1  0  0  0
 71 72  2  0  0  0
 71 74  1  0  0  0
 71147  1  0  0  0
 72 76  1  0  0  0
 72148  1  0  0  0
 73 75  1  0  0  0
 73 76  2  0  0  0
 73149  1  0  0  0
 74 75  2  0  0  0
 74 82  1  0  0  0
 75 79  1  0  0  0
 76 84  1  0  0  0
 77150  1  0  0  0
 77151  1  0  0  0
 77152  1  0  0  0
 77 81  1  0  0  0
 78 83  1  0  0  0
 78153  1  0  0  0
 78154  1  0  0  0
 78155  1  0  0  0
 79 83  1  0  0  0
 79156  1  0  0  0
 79157  1  0  0  0
 80 81  1  0  0  0
 80158  1  0  0  0
 80159  1  0  0  0
 81 84  1  0  0  0
 81160  1  0  0  0
 82 85  1  0  0  0
 82 86  1  0  0  0
 82 87  1  0  0  0
M  ISO  4   1 100  68 101  80 101  83 100
M  END
> <chiral flag>
0

> <version>
0

> <s_m_source_file>
/data/baiqing/PycharmProjects/Reinvent-master-3.2/result/LINK_invent/BTK/process_docking_weight1_custom_sum_contain_oxygen_bond_distance_aromatic_linkinvent_7_9_3/rearranged_h_0004.sdf

> <i_m_source_file_index>
87

> <r_mmod_Potential_Energy-OPLS-2005>
396.082458496094

> <r_mmod_Stretch_Energy-OPLS-2005>
145.023239135742

> <r_mmod_Bend_Energy-OPLS-2005>
195.026809692383

> <r_mmod_Torsional_Energy-OPLS-2005>
283.878631591797

> <r_mmod_Improper_Torsional_Energy-OPLS-2005>
4.03227996826172

> <r_mmod_Van_der_Waal_Energy-OPLS-2005>
146.912902832031

> <r_mmod_Electrostatic_Energy-OPLS-2005>
-272.569854736328

> <r_mmod_Solvation_Energy-OPLS-2005>
-193.543472290039

> <b_mmod_Minimization_Converged-OPLS-2005>
0

> <r_mmod_RMS_Derivative-OPLS-2005>
3.07148361206055

$$$$
87
                    3D
 Structure written by MMmdl.
193201  0  0  1  0            999 V2000
  -30.7504  -14.3637   20.6730 C   0  0  0  0  0  0
  -30.4214  -12.2820   19.3948 C   0  0  0  0  0  0
  -29.4869  -12.5221   18.1936 C   0  0  0  0  0  0
  -28.0097  -12.3809   18.6089 C   0  0  0  0  0  0
  -27.6682  -13.1982   19.8829 C   0  0  2  0  0  0
  -28.7049  -12.9252   20.9949 C   0  0  0  0  0  0
  -25.2614  -13.8149   20.5660 C   0  0  0  0  0  0
  -24.1849  -13.0439   20.9154 C   0  0  0  0  0  0
  -24.6391  -11.6896   20.8724 C   0  0  0  0  0  0
  -23.9056  -10.4290   21.0397 C   0  0  0  0  0  0
  -24.3613   -9.4206   21.9177 C   0  0  0  0  0  0
  -23.6291   -8.2245   22.0753 C   0  0  0  0  0  0
  -22.4270   -8.0284   21.3540 C   0  0  0  0  0  0
  -21.9905   -9.0249   20.4645 C   0  0  0  0  0  0
  -22.7232  -10.2131   20.3047 C   0  0  0  0  0  0
  -21.6850   -6.0737   22.5285 C   0  0  0  0  0  0
  -21.4006   -6.5641   23.8214 C   0  0  0  0  0  0
  -21.3657   -5.6783   24.9179 C   0  0  0  0  0  0
  -21.6043   -4.3049   24.7221 C   0  0  0  0  0  0
  -21.8824   -3.8147   23.4340 C   0  0  0  0  0  0
  -21.9193   -4.6962   22.3407 C   0  0  0  0  0  0
  -22.7874  -13.5245   21.1837 C   0  0  0  0  0  0
  -22.1662   -4.2152   21.0980 F   0  0  0  0  0  0
  -21.5630   -3.4531   25.7733 F   0  0  0  0  0  0
  -30.0494  -13.2210   20.4615 N   0  0  0  0  0  0
  -26.3048  -12.9305   20.3389 N   0  0  0  0  0  0
  -25.9317  -11.6470   20.5758 N   0  0  0  0  0  0
  -22.0515  -12.8235   22.0392 N   0  0  0  0  0  0
  -25.4358  -15.1867   20.4082 N   0  0  0  0  0  0
  -31.7880  -14.6517   20.0670 O   0  0  0  0  0  0
  -21.6638   -6.8875   21.4243 O   0  0  0  0  0  0
  -22.3562  -14.5555   20.6697 O   0  0  0  0  0  0
  -24.6095  -31.8719   23.2105 C   0  0  0  0  0  0
  -25.8996  -32.4834   23.8417 C   0  0  1  0  0  0
  -27.2496  -27.4830   20.1059 C   0  0  0  0  0  0
  -25.5858  -33.8633   24.2363 N   0  0  0  0  0  0
  -23.3955  -30.4916   21.5506 C   0  0  2  0  0  0
  -24.8458  -28.9547   20.1227 C   0  0  0  0  0  0
  -22.7384  -29.4669   22.5011 C   0  0  0  0  0  0
  -18.0267  -28.1364   22.8527 C   0  0  0  0  0  0
  -24.1465  -36.7315   23.2646 C   0  0  0  0  0  0
  -25.9175  -30.8530   21.3536 C   0  0  0  0  0  0
  -25.9987  -29.4876   20.7108 C   0  0  0  0  0  0
  -27.2059  -28.7600   20.6970 C   0  0  0  0  0  0
  -26.0827  -26.9439   19.5248 C   0  0  0  0  0  0
  -24.8789  -27.6778   19.5303 C   0  0  0  0  0  0
  -23.6024  -29.8142   20.1675 C   0  0  0  0  0  0
  -25.4081  -36.3122   24.0362 C   0  0  1  0  0  0
  -20.5864  -28.3632   23.1351 C   0  0  2  0  0  0
  -20.6765  -26.9371   22.5442 C   0  0  0  0  0  0
  -19.5745  -26.6377   21.5244 C   0  0  0  0  0  0
  -18.1916  -26.7921   22.1635 C   0  0  0  0  0  0
  -19.1520  -28.8815   23.2936 C   0  0  0  0  0  0
  -18.9451  -30.1434   23.8922 C   0  0  0  0  0  0
  -17.6457  -30.6581   24.0582 C   0  0  0  0  0  0
  -25.9019  -34.9488   23.5171 C   0  0  0  0  0  0
  -16.5349  -29.9091   23.6329 C   0  0  0  0  0  0
  -16.7261  -28.6504   23.0356 C   0  0  0  0  0  0
  -26.4441  -31.6578   25.0717 C   0  0  0  0  0  0
  -25.3701  -31.3701   26.1461 C   0  0  0  0  0  0
  -27.0249  -30.3030   24.6025 C   0  0  0  0  0  0
  -27.6042  -32.4259   25.7481 C   0  0  0  0  0  0
  -27.5571  -37.1794   24.8459 C   0  0  0  0  0  0
  -21.4116  -29.3009   22.3753 N   0  0  0  0  0  0
  -26.4266  -37.3803   23.9429 N   0  0  0  0  0  0
  -24.6594  -31.0859   22.0979 N   0  0  0  0  0  0
  -23.4193  -28.8237   23.3044 O   0  0  0  0  0  0
  -28.4434  -26.8133   20.0316 O   0  0  0  0  0  0
  -26.5582  -34.8940   22.4733 O   0  0  0  0  0  0
  -23.5299  -32.1467   23.7522 O   0  0  0  0  0  0
  -33.4789  -28.1233   27.6182 C   0  0  0  0  0  0
  -33.6563  -27.4591   26.3925 C   0  0  0  0  0  0
  -32.1895  -28.5104   28.0266 C   0  0  0  0  0  0
  -32.5430  -27.1803   25.5800 C   0  0  0  0  0  0
  -31.0659  -28.2277   27.2195 C   0  0  0  0  0  0
  -31.2393  -27.5455   25.9860 C   0  0  0  0  0  0
  -34.5389  -21.9613   27.5421 C   0  0  0  0  0  0
  -33.9872  -20.2386   25.9121 C   0  0  0  0  0  0
  -30.2202  -24.7427   25.4035 C   0  0  0  0  0  0
  -29.6926  -28.6537   27.7124 C   0  0  0  0  0  0
  -35.3408  -21.0410   28.4708 C   0  0  0  0  0  0
  -30.0564  -27.1716   25.0840 C   0  0  0  0  0  0
  -33.2073  -19.8782   24.6274 C   0  0  0  0  0  0
  -30.9175  -23.4581   24.9150 C   0  0  0  0  0  0
  -32.9048  -18.3775   24.4435 C   0  0  0  0  0  0
  -31.7702  -22.7246   25.9807 C   0  0  0  0  0  0
  -31.9632  -18.1526   23.2508 C   0  0  0  0  0  0
  -31.6137  -16.6815   22.9957 C   0  0  0  0  0  0
  -28.8738  -26.2975   22.4084 C   0  0  0  0  0  0
  -33.2567  -22.5706   25.5713 C   0  0  0  0  0  0
  -30.6228  -16.5642   21.8276 C   0  0  0  0  0  0
  -30.1001  -25.6476   23.0860 C   0  0  0  0  0  0
  -28.6362  -25.7691   20.9750 C   0  0  0  0  0  0
  -30.2145  -15.1878   21.5786 N   0  0  0  0  0  0
  -33.9600  -21.5330   26.3742 N   0  0  0  0  0  0
  -30.1177  -25.7959   24.5547 N   0  0  0  0  0  0
  -34.4413  -23.1336   27.9240 O   0  0  0  0  0  0
  -34.6008  -19.3098   26.4484 O   0  0  0  0  0  0
  -29.8445  -24.8056   26.5785 O   0  0  0  0  0  0
  -31.4641  -12.3885   19.0893 H   0  0  0  0  0  0
  -30.3231  -11.2576   19.7560 H   0  0  0  0  0  0
  -29.7180  -11.8200   17.3912 H   0  0  0  0  0  0
  -29.6588  -13.5195   17.7860 H   0  0  0  0  0  0
  -27.8126  -11.3226   18.7837 H   0  0  0  0  0  0
  -27.3574  -12.6766   17.7864 H   0  0  0  0  0  0
  -27.7316  -14.2538   19.6176 H   0  0  0  0  0  0
  -28.6657  -11.8775   21.2958 H   0  0  0  0  0  0
  -28.4526  -13.4853   21.8955 H   0  0  0  0  0  0
  -25.2763   -9.5682   22.4735 H   0  0  0  0  0  0
  -24.0006   -7.4634   22.7465 H   0  0  0  0  0  0
  -21.0841   -8.8761   19.8947 H   0  0  0  0  0  0
  -22.3696  -10.9658   19.6145 H   0  0  0  0  0  0
  -21.1991   -7.6145   23.9719 H   0  0  0  0  0  0
  -21.1470   -6.0512   25.9075 H   0  0  0  0  0  0
  -22.0603   -2.7608   23.2838 H   0  0  0  0  0  0
  -22.4125  -11.9891   22.4767 H   0  0  0  0  0  0
  -21.1136  -13.1268   22.2611 H   0  0  0  0  0  0
  -24.6741  -15.8470   20.5163 H   0  0  0  0  0  0
  -26.3003  -15.6236   20.1129 H   0  0  0  0  0  0
  -26.7080  -32.5573   23.1203 H   0  0  0  0  0  0
  -24.9970  -33.9810   25.0485 H   0  0  0  0  0  0
  -22.6826  -31.3071   21.4104 H   0  0  0  0  0  0
  -23.3734  -35.9635   23.3303 H   0  0  0  0  0  0
  -24.3575  -36.8924   22.2057 H   0  0  0  0  0  0
  -23.7210  -37.6520   23.6662 H   0  0  0  0  0  0
  -26.0176  -31.6140   20.5788 H   0  0  0  0  0  0
  -26.8099  -30.9179   21.9634 H   0  0  0  0  0  0
  -28.0996  -29.1819   21.1339 H   0  0  0  0  0  0
  -26.1111  -25.9701   19.0574 H   0  0  0  0  0  0
  -23.9893  -27.2598   19.0800 H   0  0  0  0  0  0
  -23.7037  -30.5855   19.4039 H   0  0  0  0  0  0
  -22.7315  -29.2236   19.8771 H   0  0  0  0  0  0
  -25.1258  -36.1989   25.0854 H   0  0  0  0  0  0
  -20.9977  -28.3169   24.1470 H   0  0  0  0  0  0
  -20.5681  -26.2227   23.3618 H   0  0  0  0  0  0
  -21.6630  -26.7427   22.1216 H   0  0  0  0  0  0
  -19.6902  -25.6300   21.1236 H   0  0  0  0  0  0
  -19.6689  -27.3226   20.6809 H   0  0  0  0  0  0
  -17.4209  -26.6712   21.3999 H   0  0  0  0  0  0
  -18.0266  -26.0050   22.9013 H   0  0  0  0  0  0
  -19.7931  -30.7257   24.2273 H   0  0  0  0  0  0
  -17.5019  -31.6263   24.5178 H   0  0  0  0  0  0
  -15.5350  -30.3011   23.7638 H   0  0  0  0  0  0
  -15.8666  -28.0854   22.7027 H   0  0  0  0  0  0
  -24.5851  -30.7092   25.7775 H   0  0  0  0  0  0
  -24.8927  -32.2872   26.4918 H   0  0  0  0  0  0
  -25.8022  -30.8847   27.0215 H   0  0  0  0  0  0
  -26.2779  -29.6822   24.1071 H   0  0  0  0  0  0
  -27.4038  -29.7213   25.4427 H   0  0  0  0  0  0
  -27.8594  -30.4373   23.9143 H   0  0  0  0  0  0
  -27.2679  -33.3512   26.2167 H   0  0  0  0  0  0
  -28.3783  -32.6876   25.0262 H   0  0  0  0  0  0
  -28.0773  -31.8317   26.5303 H   0  0  0  0  0  0
  -28.2586  -38.0095   24.7525 H   0  0  0  0  0  0
  -28.1072  -36.2637   24.6243 H   0  0  0  0  0  0
  -27.2316  -37.1378   25.8868 H   0  0  0  0  0  0
  -20.9258  -29.8722   21.6986 H   0  0  0  0  0  0
  -26.0165  -38.2888   24.1434 H   0  0  0  0  0  0
  -34.3329  -28.3338   28.2465 H   0  0  0  0  0  0
  -34.6461  -27.1579   26.0784 H   0  0  0  0  0  0
  -32.0699  -29.0202   28.9739 H   0  0  0  0  0  0
  -32.6960  -26.6620   24.6440 H   0  0  0  0  0  0
  -29.7496  -29.1431   28.6848 H   0  0  0  0  0  0
  -29.0336  -27.7928   27.8241 H   0  0  0  0  0  0
  -29.2355  -29.3547   27.0153 H   0  0  0  0  0  0
  -34.7126  -20.2401   28.8602 H   0  0  0  0  0  0
  -35.7292  -21.5970   29.3241 H   0  0  0  0  0  0
  -36.1967  -20.6106   27.9517 H   0  0  0  0  0  0
  -30.0575  -27.8980   24.2736 H   0  0  0  0  0  0
  -29.0976  -27.2937   25.5866 H   0  0  0  0  0  0
  -33.7745  -20.2387   23.7686 H   0  0  0  0  0  0
  -32.2499  -20.3944   24.6185 H   0  0  0  0  0  0
  -31.5683  -23.7025   24.0774 H   0  0  0  0  0  0
  -30.1548  -22.7849   24.5212 H   0  0  0  0  0  0
  -32.4457  -17.9778   25.3498 H   0  0  0  0  0  0
  -33.8347  -17.8251   24.2941 H   0  0  0  0  0  0
  -31.3188  -21.7511   26.1660 H   0  0  0  0  0  0
  -31.7359  -23.2304   26.9463 H   0  0  0  0  0  0
  -32.4096  -18.5791   22.3511 H   0  0  0  0  0  0
  -31.0380  -18.7061   23.4197 H   0  0  0  0  0  0
  -31.1814  -16.2433   23.8970 H   0  0  0  0  0  0
  -32.5222  -16.1162   22.7787 H   0  0  0  0  0  0
  -29.0257  -27.3748   22.3784 H   0  0  0  0  0  0
  -27.9730  -26.1366   23.0017 H   0  0  0  0  0  0
  -33.7486  -23.5441   25.6476 H   0  0  0  0  0  0
  -33.3502  -22.3690   24.5038 H   0  0  0  0  0  0
  -31.0472  -17.0069   20.9235 H   0  0  0  0  0  0
  -29.7233  -17.1392   22.0510 H   0  0  0  0  0  0
  -31.0237  -26.0492   22.6669 H   0  0  0  0  0  0
  -30.0732  -24.5952   22.8034 H   0  0  0  0  0  0
  -27.8050  -25.0619   20.9509 H   0  0  0  0  0  0
  -29.5120  -25.2152   20.6326 H   0  0  0  0  0  0
  -29.3734  -14.8648   22.0335 H   0  0  0  0  0  0
  1 25  1  0  0  0
  1 30  2  0  0  0
  1 94  1  0  0  0
  2  3  1  0  0  0
  2 25  1  0  0  0
  2100  1  0  0  0
  2101  1  0  0  0
  3  4  1  0  0  0
  3102  1  0  0  0
  3103  1  0  0  0
  4  5  1  0  0  0
  4104  1  0  0  0
  4105  1  0  0  0
  5  6  1  0  0  0
  5 26  1  0  0  0
  5106  1  0  0  0
  6 25  1  0  0  0
  6107  1  0  0  0
  6108  1  0  0  0
  7  8  2  0  0  0
  7 26  1  0  0  0
  7 29  1  0  0  0
  8  9  1  0  0  0
  8 22  1  0  0  0
  9 10  1  0  0  0
  9 27  2  0  0  0
 10 11  2  0  0  0
 10 15  1  0  0  0
 11 12  1  0  0  0
 11109  1  0  0  0
 12 13  2  0  0  0
 12110  1  0  0  0
 13 14  1  0  0  0
 13 31  1  0  0  0
 14 15  2  0  0  0
 14111  1  0  0  0
 15112  1  0  0  0
 16 17  2  0  0  0
 16 21  1  0  0  0
 16 31  1  0  0  0
 17 18  1  0  0  0
 17113  1  0  0  0
 18 19  2  0  0  0
 18114  1  0  0  0
 19 20  1  0  0  0
 19 24  1  0  0  0
 20 21  2  0  0  0
 20115  1  0  0  0
 21 23  1  0  0  0
 22 28  1  0  0  0
 22 32  2  0  0  0
 26 27  1  0  0  0
 28116  1  0  0  0
 28117  1  0  0  0
 29118  1  0  0  0
 29119  1  0  0  0
 33 34  1  0  0  0
 33 66  1  0  0  0
 33 70  2  0  0  0
 34 36  1  0  0  0
 34 59  1  0  0  0
 34120  1  0  0  0
 35 44  2  0  0  0
 35 45  1  0  0  0
 35 68  1  0  0  0
 36 56  1  0  0  0
 36121  1  0  0  0
 37 39  1  0  0  0
 37 47  1  0  0  0
 37 66  1  0  0  0
 37122  1  0  0  0
 38 43  2  0  0  0
 38 46  1  0  0  0
 38 47  1  0  0  0
 39 64  1  0  0  0
 39 67  2  0  0  0
 40 52  1  0  0  0
 40 53  2  0  0  0
 40 58  1  0  0  0
 41123  1  0  0  0
 41124  1  0  0  0
 41125  1  0  0  0
 41 48  1  0  0  0
 42 43  1  0  0  0
 42 66  1  0  0  0
 42126  1  0  0  0
 42127  1  0  0  0
 43 44  1  0  0  0
 44128  1  0  0  0
 45 46  2  0  0  0
 45129  1  0  0  0
 46130  1  0  0  0
 47131  1  0  0  0
 47132  1  0  0  0
 48 56  1  0  0  0
 48 65  1  0  0  0
 48133  1  0  0  0
 49 50  1  0  0  0
 49 53  1  0  0  0
 49 64  1  0  0  0
 49134  1  0  0  0
 50 51  1  0  0  0
 50135  1  0  0  0
 50136  1  0  0  0
 51 52  1  0  0  0
 51137  1  0  0  0
 51138  1  0  0  0
 52139  1  0  0  0
 52140  1  0  0  0
 53 54  1  0  0  0
 54 55  2  0  0  0
 54141  1  0  0  0
 55 57  1  0  0  0
 55142  1  0  0  0
 56 69  2  0  0  0
 57 58  2  0  0  0
 57143  1  0  0  0
 58144  1  0  0  0
 59 60  1  0  0  0
 59 61  1  0  0  0
 59 62  1  0  0  0
 60145  1  0  0  0
 60146  1  0  0  0
 60147  1  0  0  0
 61148  1  0  0  0
 61149  1  0  0  0
 61150  1  0  0  0
 62151  1  0  0  0
 62152  1  0  0  0
 62153  1  0  0  0
 63 65  1  0  0  0
 63154  1  0  0  0
 63155  1  0  0  0
 63156  1  0  0  0
 64157  1  0  0  0
 65158  1  0  0  0
 68 93  1  0  0  0
 71 72  2  0  0  0
 71 73  1  0  0  0
 71159  1  0  0  0
 72 74  1  0  0  0
 72160  1  0  0  0
 73 75  2  0  0  0
 73161  1  0  0  0
 74 76  2  0  0  0
 74162  1  0  0  0
 75 76  1  0  0  0
 75 80  1  0  0  0
 76 82  1  0  0  0
 77 81  1  0  0  0
 77 95  1  0  0  0
 77 97  2  0  0  0
 78 83  1  0  0  0
 78 95  1  0  0  0
 78 98  2  0  0  0
 79 84  1  0  0  0
 79 96  1  0  0  0
 79 99  2  0  0  0
 80163  1  0  0  0
 80164  1  0  0  0
 80165  1  0  0  0
 81166  1  0  0  0
 81167  1  0  0  0
 81168  1  0  0  0
 82 96  1  0  0  0
 82169  1  0  0  0
 82170  1  0  0  0
 83 85  1  0  0  0
 83171  1  0  0  0
 83172  1  0  0  0
 84 86  1  0  0  0
 84173  1  0  0  0
 84174  1  0  0  0
 85 87  1  0  0  0
 85175  1  0  0  0
 85176  1  0  0  0
 86 90  1  0  0  0
 86177  1  0  0  0
 86178  1  0  0  0
 87 88  1  0  0  0
 87179  1  0  0  0
 87180  1  0  0  0
 88 91  1  0  0  0
 88181  1  0  0  0
 88182  1  0  0  0
 89 92  1  0  0  0
 89 93  1  0  0  0
 89183  1  0  0  0
 89184  1  0  0  0
 90 95  1  0  0  0
 90185  1  0  0  0
 90186  1  0  0  0
 91 94  1  0  0  0
 91187  1  0  0  0
 91188  1  0  0  0
 92 96  1  0  0  0
 92189  1  0  0  0
 92190  1  0  0  0
 93191  1  0  0  0
 93192  1  0  0  0
 94193  1  0  0  0
M  ISO  4   1 100  68 101  93 101  94 100
M  END
> <chiral flag>
0

> <version>
0

> <s_m_source_file>
/data/baiqing/PycharmProjects/Reinvent-master-3.2/result/LINK_invent/BTK/process_docking_weight1_custom_sum_contain_oxygen_bond_distance_aromatic_linkinvent_7_9_3/rearranged_h_0004.sdf

> <i_m_source_file_index>
88

> <r_mmod_Potential_Energy-OPLS-2005>
-32.529411315918

> <r_mmod_Stretch_Energy-OPLS-2005>
46.1972961425781

> <r_mmod_Bend_Energy-OPLS-2005>
112.777008056641

> <r_mmod_Torsional_Energy-OPLS-2005>
278.689788818359

> <r_mmod_Improper_Torsional_Energy-OPLS-2005>
2.68893885612488

> <r_mmod_Van_der_Waal_Energy-OPLS-2005>
195.305847167969

> <r_mmod_Electrostatic_Energy-OPLS-2005>
-414.046875

> <r_mmod_Solvation_Energy-OPLS-2005>
-260.776519775391

> <b_mmod_Minimization_Converged-OPLS-2005>
0

> <r_mmod_RMS_Derivative-OPLS-2005>
2.42612814903259

$$$$
88
                    3D
 Structure written by MMmdl.
146153  0  0  1  0            999 V2000
  -30.5452  -14.9485   20.4262 C   0  0  0  0  0  0
  -30.4374  -12.5896   19.5003 C   0  0  0  0  0  0
  -29.5207  -12.5335   18.2573 C   0  0  0  0  0  0
  -28.0519  -12.3214   18.6701 C   0  0  0  0  0  0
  -27.6281  -13.2498   19.8390 C   0  0  2  0  0  0
  -28.6707  -13.2788   20.9775 C   0  0  0  0  0  0
  -25.2455  -13.8226   20.5701 C   0  0  0  0  0  0
  -24.1775  -13.0443   20.9223 C   0  0  0  0  0  0
  -24.6391  -11.6927   20.8749 C   0  0  0  0  0  0
  -23.9081  -10.4295   21.0397 C   0  0  0  0  0  0
  -24.3633   -9.4212   21.9172 C   0  0  0  0  0  0
  -23.6309   -8.2248   22.0745 C   0  0  0  0  0  0
  -22.4297   -8.0275   21.3535 C   0  0  0  0  0  0
  -21.9928   -9.0247   20.4639 C   0  0  0  0  0  0
  -22.7252  -10.2130   20.3044 C   0  0  0  0  0  0
  -21.6854   -6.0742   22.5276 C   0  0  0  0  0  0
  -21.4018   -6.5647   23.8207 C   0  0  0  0  0  0
  -21.3665   -5.6796   24.9169 C   0  0  0  0  0  0
  -21.6043   -4.3061   24.7224 C   0  0  0  0  0  0
  -21.8822   -3.8150   23.4341 C   0  0  0  0  0  0
  -21.9196   -4.6966   22.3398 C   0  0  0  0  0  0
  -22.7799  -13.5203   21.1885 C   0  0  0  0  0  0
  -22.1661   -4.2154   21.0978 F   0  0  0  0  0  0
  -21.5628   -3.4541   25.7734 F   0  0  0  0  0  0
  -29.9468  -13.6904   20.3797 N   0  0  0  0  0  0
  -26.2878  -12.9451   20.3235 N   0  0  0  0  0  0
  -25.9319  -11.6585   20.5738 N   0  0  0  0  0  0
  -22.0464  -12.8178   22.0441 N   0  0  0  0  0  0
  -25.4147  -15.1957   20.4150 N   0  0  0  0  0  0
  -31.7485  -15.0100   20.1508 O   0  0  0  0  0  0
  -21.6648   -6.8880   21.4236 O   0  0  0  0  0  0
  -22.3474  -14.5498   20.6722 O   0  0  0  0  0  0
  -24.6453  -31.8408   23.1874 C   0  0  0  0  0  0
  -25.9219  -32.4686   23.8261 C   0  0  1  0  0  0
  -27.2177  -27.1297   20.1548 C   0  0  0  0  0  0
  -25.5964  -33.8493   24.2179 N   0  0  0  0  0  0
  -23.4491  -30.4612   21.5319 C   0  0  2  0  0  0
  -24.8983  -28.8877   20.1076 C   0  0  0  0  0  0
  -22.7571  -29.4539   22.4849 C   0  0  0  0  0  0
  -18.0305  -28.1390   22.8476 C   0  0  0  0  0  0
  -24.1496  -36.7258   23.2643 C   0  0  0  0  0  0
  -26.0045  -30.7156   21.3846 C   0  0  0  0  0  0
  -26.0754  -29.3260   20.7276 C   0  0  0  0  0  0
  -27.2354  -28.4636   20.7317 C   0  0  0  0  0  0
  -26.0141  -26.7936   19.4953 C   0  0  0  0  0  0
  -24.8809  -27.6361   19.4752 C   0  0  0  0  0  0
  -23.6741  -29.7893   20.1517 C   0  0  0  0  0  0
  -25.4123  -36.3029   24.0316 C   0  0  1  0  0  0
  -20.5915  -28.3719   23.1229 C   0  0  2  0  0  0
  -20.6784  -26.9424   22.5398 C   0  0  0  0  0  0
  -19.5762  -26.6374   21.5206 C   0  0  0  0  0  0
  -18.1942  -26.7930   22.1619 C   0  0  0  0  0  0
  -19.1562  -28.8871   23.2845 C   0  0  0  0  0  0
  -18.9479  -30.1467   23.8870 C   0  0  0  0  0  0
  -17.6477  -30.6584   24.0558 C   0  0  0  0  0  0
  -25.9074  -34.9402   23.5052 C   0  0  0  0  0  0
  -16.5364  -29.9077   23.6341 C   0  0  0  0  0  0
  -16.7291  -28.6495   23.0357 C   0  0  0  0  0  0
  -26.4531  -31.6560   25.0711 C   0  0  0  0  0  0
  -25.3713  -31.3748   26.1406 C   0  0  0  0  0  0
  -27.0395  -30.2956   24.6298 C   0  0  0  0  0  0
  -27.6062  -32.4323   25.7497 C   0  0  0  0  0  0
  -27.5571  -37.1787   24.8463 C   0  0  0  0  0  0
  -21.4256  -29.3041   22.3596 N   0  0  0  0  0  0
  -26.4283  -37.3741   23.9413 N   0  0  0  0  0  0
  -24.7198  -31.0271   22.0900 N   0  0  0  0  0  0
  -23.4208  -28.8083   23.2997 O   0  0  0  0  0  0
  -28.2694  -26.1433   20.2352 O   0  0  0  0  0  0
  -26.5656  -34.8901   22.4629 O   0  0  0  0  0  0
  -23.5566  -32.1270   23.7096 O   0  0  0  0  0  0
  -29.6051  -20.6051   20.4922 C   0  0  0  0  0  0
  -29.1166  -19.0152   20.4611 C   0  0  0  0  0  0
  -30.1680  -17.6800   20.4744 C   0  0  0  0  0  0
  -27.9991  -24.6131   20.0633 C   0  0  0  0  0  0
  -29.0002  -23.2980   20.4326 C   0  0  0  0  0  0
  -29.7781  -16.1412   20.5738 N   0  0  0  0  0  0
  -30.8033  -20.8171   20.6819 O   0  0  0  0  0  0
  -28.6466  -21.7892   20.3199 O   0  0  0  0  0  0
  -31.4709  -12.7466   19.1881 H   0  0  0  0  0  0
  -30.4285  -11.6374   20.0341 H   0  0  0  0  0  0
  -29.8398  -11.7374   17.5836 H   0  0  0  0  0  0
  -29.6114  -13.4654   17.6970 H   0  0  0  0  0  0
  -27.9398  -11.2777   18.9667 H   0  0  0  0  0  0
  -27.3932  -12.4638   17.8126 H   0  0  0  0  0  0
  -27.5914  -14.2536   19.4142 H   0  0  0  0  0  0
  -28.7583  -12.3020   21.4566 H   0  0  0  0  0  0
  -28.3690  -13.9812   21.7565 H   0  0  0  0  0  0
  -25.2775   -9.5693   22.4750 H   0  0  0  0  0  0
  -24.0018   -7.4642   22.7468 H   0  0  0  0  0  0
  -21.0855   -8.8763   19.8946 H   0  0  0  0  0  0
  -22.3698  -10.9667   19.6156 H   0  0  0  0  0  0
  -21.2007   -7.6156   23.9712 H   0  0  0  0  0  0
  -21.1485   -6.0529   25.9073 H   0  0  0  0  0  0
  -22.0598   -2.7613   23.2840 H   0  0  0  0  0  0
  -22.4112  -11.9845   22.4815 H   0  0  0  0  0  0
  -21.1066  -13.1162   22.2648 H   0  0  0  0  0  0
  -24.6492  -15.8513   20.5293 H   0  0  0  0  0  0
  -26.2592  -15.6328   20.0695 H   0  0  0  0  0  0
  -26.7292  -32.5286   23.0990 H   0  0  0  0  0  0
  -25.0107  -33.9603   25.0328 H   0  0  0  0  0  0
  -22.7535  -31.2885   21.3772 H   0  0  0  0  0  0
  -23.3760  -35.9593   23.3288 H   0  0  0  0  0  0
  -24.3580  -36.8901   22.2060 H   0  0  0  0  0  0
  -23.7253  -37.6448   23.6691 H   0  0  0  0  0  0
  -26.1567  -31.4692   20.6101 H   0  0  0  0  0  0
  -26.8768  -30.7669   22.0252 H   0  0  0  0  0  0
  -28.1319  -28.7949   21.2374 H   0  0  0  0  0  0
  -25.9150  -25.8361   19.0076 H   0  0  0  0  0  0
  -23.9820  -27.2956   18.9790 H   0  0  0  0  0  0
  -23.8065  -30.5612   19.3928 H   0  0  0  0  0  0
  -22.7894  -29.2279   19.8450 H   0  0  0  0  0  0
  -25.1315  -36.1842   25.0808 H   0  0  0  0  0  0
  -21.0007  -28.3306   24.1351 H   0  0  0  0  0  0
  -20.5661  -26.2336   23.3617 H   0  0  0  0  0  0
  -21.6653  -26.7416   22.1208 H   0  0  0  0  0  0
  -19.6926  -25.6272   21.1258 H   0  0  0  0  0  0
  -19.6703  -27.3166   20.6720 H   0  0  0  0  0  0
  -17.4212  -26.6666   21.4025 H   0  0  0  0  0  0
  -18.0353  -26.0072   22.9017 H   0  0  0  0  0  0
  -19.7952  -30.7288   24.2222 H   0  0  0  0  0  0
  -17.5029  -31.6268   24.5158 H   0  0  0  0  0  0
  -15.5362  -30.2972   23.7674 H   0  0  0  0  0  0
  -15.8690  -28.0806   22.7086 H   0  0  0  0  0  0
  -24.5903  -30.7083   25.7725 H   0  0  0  0  0  0
  -24.8886  -32.2923   26.4781 H   0  0  0  0  0  0
  -25.7983  -30.8949   27.0222 H   0  0  0  0  0  0
  -26.2999  -29.6686   24.1297 H   0  0  0  0  0  0
  -27.3992  -29.7257   25.4876 H   0  0  0  0  0  0
  -27.8925  -30.4196   23.9620 H   0  0  0  0  0  0
  -27.2659  -33.3651   26.2009 H   0  0  0  0  0  0
  -28.3900  -32.6834   25.0340 H   0  0  0  0  0  0
  -28.0706  -31.8488   26.5457 H   0  0  0  0  0  0
  -28.2578  -38.0093   24.7505 H   0  0  0  0  0  0
  -28.1063  -36.2616   24.6278 H   0  0  0  0  0  0
  -27.2283  -37.1419   25.8862 H   0  0  0  0  0  0
  -20.9465  -29.8770   21.6793 H   0  0  0  0  0  0
  -26.0140  -38.2808   24.1409 H   0  0  0  0  0  0
  -28.4628  -18.9200   19.5948 H   0  0  0  0  0  0
  -28.4601  -18.9108   21.3252 H   0  0  0  0  0  0
  -30.8748  -17.8525   21.2876 H   0  0  0  0  0  0
  -30.7744  -17.7642   19.5719 H   0  0  0  0  0  0
  -27.0693  -24.4234   20.5993 H   0  0  0  0  0  0
  -27.7495  -24.4899   19.0091 H   0  0  0  0  0  0
  -29.3001  -23.4312   21.4728 H   0  0  0  0  0  0
  -29.9190  -23.4298   19.8610 H   0  0  0  0  0  0
  -28.8014  -15.9663   20.7610 H   0  0  0  0  0  0
  1 25  1  0  0  0
  1 30  2  0  0  0
  1 76  1  0  0  0
  2  3  1  0  0  0
  2 25  1  0  0  0
  2 79  1  0  0  0
  2 80  1  0  0  0
  3  4  1  0  0  0
  3 81  1  0  0  0
  3 82  1  0  0  0
  4  5  1  0  0  0
  4 83  1  0  0  0
  4 84  1  0  0  0
  5  6  1  0  0  0
  5 26  1  0  0  0
  5 85  1  0  0  0
  6 25  1  0  0  0
  6 86  1  0  0  0
  6 87  1  0  0  0
  7  8  2  0  0  0
  7 26  1  0  0  0
  7 29  1  0  0  0
  8  9  1  0  0  0
  8 22  1  0  0  0
  9 10  1  0  0  0
  9 27  2  0  0  0
 10 11  2  0  0  0
 10 15  1  0  0  0
 11 12  1  0  0  0
 11 88  1  0  0  0
 12 13  2  0  0  0
 12 89  1  0  0  0
 13 14  1  0  0  0
 13 31  1  0  0  0
 14 15  2  0  0  0
 14 90  1  0  0  0
 15 91  1  0  0  0
 16 17  2  0  0  0
 16 21  1  0  0  0
 16 31  1  0  0  0
 17 18  1  0  0  0
 17 92  1  0  0  0
 18 19  2  0  0  0
 18 93  1  0  0  0
 19 20  1  0  0  0
 19 24  1  0  0  0
 20 21  2  0  0  0
 20 94  1  0  0  0
 21 23  1  0  0  0
 22 28  1  0  0  0
 22 32  2  0  0  0
 26 27  1  0  0  0
 28 95  1  0  0  0
 28 96  1  0  0  0
 29 97  1  0  0  0
 29 98  1  0  0  0
 33 34  1  0  0  0
 33 66  1  0  0  0
 33 70  2  0  0  0
 34 36  1  0  0  0
 34 59  1  0  0  0
 34 99  1  0  0  0
 35 44  2  0  0  0
 35 45  1  0  0  0
 35 68  1  0  0  0
 36 56  1  0  0  0
 36100  1  0  0  0
 37 39  1  0  0  0
 37 47  1  0  0  0
 37 66  1  0  0  0
 37101  1  0  0  0
 38 43  2  0  0  0
 38 46  1  0  0  0
 38 47  1  0  0  0
 39 64  1  0  0  0
 39 67  2  0  0  0
 40 52  1  0  0  0
 40 53  2  0  0  0
 40 58  1  0  0  0
 41102  1  0  0  0
 41103  1  0  0  0
 41104  1  0  0  0
 41 48  1  0  0  0
 42 43  1  0  0  0
 42 66  1  0  0  0
 42105  1  0  0  0
 42106  1  0  0  0
 43 44  1  0  0  0
 44107  1  0  0  0
 45 46  2  0  0  0
 45108  1  0  0  0
 46109  1  0  0  0
 47110  1  0  0  0
 47111  1  0  0  0
 48 56  1  0  0  0
 48 65  1  0  0  0
 48112  1  0  0  0
 49 50  1  0  0  0
 49 53  1  0  0  0
 49 64  1  0  0  0
 49113  1  0  0  0
 50 51  1  0  0  0
 50114  1  0  0  0
 50115  1  0  0  0
 51 52  1  0  0  0
 51116  1  0  0  0
 51117  1  0  0  0
 52118  1  0  0  0
 52119  1  0  0  0
 53 54  1  0  0  0
 54 55  2  0  0  0
 54120  1  0  0  0
 55 57  1  0  0  0
 55121  1  0  0  0
 56 69  2  0  0  0
 57 58  2  0  0  0
 57122  1  0  0  0
 58123  1  0  0  0
 59 60  1  0  0  0
 59 61  1  0  0  0
 59 62  1  0  0  0
 60124  1  0  0  0
 60125  1  0  0  0
 60126  1  0  0  0
 61127  1  0  0  0
 61128  1  0  0  0
 61129  1  0  0  0
 62130  1  0  0  0
 62131  1  0  0  0
 62132  1  0  0  0
 63 65  1  0  0  0
 63133  1  0  0  0
 63134  1  0  0  0
 63135  1  0  0  0
 64136  1  0  0  0
 65137  1  0  0  0
 68 74  1  0  0  0
 71 72  1  0  0  0
 71 77  2  0  0  0
 71 78  1  0  0  0
 72 73  1  0  0  0
 72138  1  0  0  0
 72139  1  0  0  0
 73 76  1  0  0  0
 73140  1  0  0  0
 73141  1  0  0  0
 74 75  1  0  0  0
 74142  1  0  0  0
 74143  1  0  0  0
 75 78  1  0  0  0
 75144  1  0  0  0
 75145  1  0  0  0
 76146  1  0  0  0
M  ISO  4   1 100  68 101  74 101  76 100
M  END
> <chiral flag>
0

> <version>
0

> <s_m_source_file>
/data/baiqing/PycharmProjects/Reinvent-master-3.2/result/LINK_invent/BTK/process_docking_weight1_custom_sum_contain_oxygen_bond_distance_aromatic_linkinvent_7_9_3/rearranged_h_0004.sdf

> <i_m_source_file_index>
89

> <r_mmod_Potential_Energy-OPLS-2005>
462.942138671875

> <r_mmod_Stretch_Energy-OPLS-2005>
293.772094726562

> <r_mmod_Bend_Energy-OPLS-2005>
256.000244140625

> <r_mmod_Torsional_Energy-OPLS-2005>
199.279968261719

> <r_mmod_Improper_Torsional_Energy-OPLS-2005>
4.29366636276245

> <r_mmod_Van_der_Waal_Energy-OPLS-2005>
114.822929382324

> <r_mmod_Electrostatic_Energy-OPLS-2005>
-370.907257080078

> <r_mmod_Solvation_Energy-OPLS-2005>
-229.741271972656

> <b_mmod_Minimization_Converged-OPLS-2005>
0

> <r_mmod_RMS_Derivative-OPLS-2005>
1.6843489408493

$$$$
89
                    3D
 Structure written by MMmdl.
173181  0  0  1  0            999 V2000
  -30.6436  -14.5565   20.4640 C   0  0  0  0  0  0
  -30.4326  -12.3313   19.4292 C   0  0  0  0  0  0
  -29.5019  -12.4877   18.2066 C   0  0  0  0  0  0
  -28.0229  -12.3453   18.6216 C   0  0  0  0  0  0
  -27.6587  -13.2064   19.8622 C   0  0  2  0  0  0
  -28.7064  -13.0358   20.9866 C   0  0  0  0  0  0
  -25.2602  -13.8156   20.5667 C   0  0  0  0  0  0
  -24.1864  -13.0439   20.9184 C   0  0  0  0  0  0
  -24.6417  -11.6897   20.8740 C   0  0  0  0  0  0
  -23.9084  -10.4290   21.0402 C   0  0  0  0  0  0
  -24.3637   -9.4204   21.9180 C   0  0  0  0  0  0
  -23.6299   -8.2245   22.0753 C   0  0  0  0  0  0
  -22.4274   -8.0293   21.3544 C   0  0  0  0  0  0
  -21.9925   -9.0266   20.4646 C   0  0  0  0  0  0
  -22.7259  -10.2136   20.3053 C   0  0  0  0  0  0
  -21.6865   -6.0749   22.5278 C   0  0  0  0  0  0
  -21.4006   -6.5641   23.8215 C   0  0  0  0  0  0
  -21.3655   -5.6791   24.9175 C   0  0  0  0  0  0
  -21.6045   -4.3057   24.7221 C   0  0  0  0  0  0
  -21.8823   -3.8151   23.4348 C   0  0  0  0  0  0
  -21.9186   -4.6973   22.3403 C   0  0  0  0  0  0
  -22.7891  -13.5233   21.1843 C   0  0  0  0  0  0
  -22.1663   -4.2167   21.0984 F   0  0  0  0  0  0
  -21.5635   -3.4534   25.7736 F   0  0  0  0  0  0
  -30.0261  -13.3434   20.4180 N   0  0  0  0  0  0
  -26.3031  -12.9319   20.3315 N   0  0  0  0  0  0
  -25.9336  -11.6481   20.5753 N   0  0  0  0  0  0
  -22.0522  -12.8207   22.0386 N   0  0  0  0  0  0
  -25.4307  -15.1880   20.4081 N   0  0  0  0  0  0
  -31.8116  -14.7220   20.1034 O   0  0  0  0  0  0
  -21.6636   -6.8890   21.4240 O   0  0  0  0  0  0
  -22.3571  -14.5530   20.6691 O   0  0  0  0  0  0
  -24.6272  -31.8619   23.2046 C   0  0  0  0  0  0
  -25.9135  -32.4753   23.8374 C   0  0  1  0  0  0
  -27.2119  -27.3548   20.0792 C   0  0  0  0  0  0
  -25.5932  -33.8567   24.2280 N   0  0  0  0  0  0
  -23.4142  -30.4851   21.5485 C   0  0  2  0  0  0
  -24.8537  -28.9421   20.1114 C   0  0  0  0  0  0
  -22.7487  -29.4622   22.5014 C   0  0  0  0  0  0
  -18.0298  -28.1385   22.8486 C   0  0  0  0  0  0
  -24.1490  -36.7288   23.2650 C   0  0  0  0  0  0
  -25.9525  -30.8008   21.3670 C   0  0  0  0  0  0
  -26.0246  -29.4343   20.7039 C   0  0  0  0  0  0
  -27.2121  -28.6505   20.6690 C   0  0  0  0  0  0
  -26.0195  -26.8968   19.4875 C   0  0  0  0  0  0
  -24.8504  -27.6786   19.4984 C   0  0  0  0  0  0
  -23.6207  -29.8179   20.1647 C   0  0  0  0  0  0
  -25.4118  -36.3052   24.0335 C   0  0  1  0  0  0
  -20.5882  -28.3679   23.1304 C   0  0  2  0  0  0
  -20.6750  -26.9401   22.5428 C   0  0  0  0  0  0
  -19.5723  -26.6377   21.5225 C   0  0  0  0  0  0
  -18.1903  -26.7928   22.1635 C   0  0  0  0  0  0
  -19.1545  -28.8858   23.2872 C   0  0  0  0  0  0
  -18.9470  -30.1462   23.8883 C   0  0  0  0  0  0
  -17.6465  -30.6571   24.0572 C   0  0  0  0  0  0
  -25.9078  -34.9430   23.5111 C   0  0  0  0  0  0
  -16.5352  -29.9067   23.6342 C   0  0  0  0  0  0
  -16.7281  -28.6505   23.0338 C   0  0  0  0  0  0
  -26.4502  -31.6603   25.0769 C   0  0  0  0  0  0
  -25.3717  -31.3770   26.1499 C   0  0  0  0  0  0
  -27.0371  -30.3043   24.6226 C   0  0  0  0  0  0
  -27.6044  -32.4380   25.7503 C   0  0  0  0  0  0
  -27.5567  -37.1776   24.8461 C   0  0  0  0  0  0
  -21.4207  -29.3041   22.3737 N   0  0  0  0  0  0
  -26.4274  -37.3757   23.9420 N   0  0  0  0  0  0
  -24.6825  -31.0670   22.0965 N   0  0  0  0  0  0
  -23.4241  -28.8157   23.3072 O   0  0  0  0  0  0
  -28.3555  -26.5647   20.0305 O   0  0  0  0  0  0
  -26.5607  -34.8886   22.4655 O   0  0  0  0  0  0
  -23.5437  -32.1452   23.7395 O   0  0  0  0  0  0
  -24.7857  -22.2760   16.9284 C   0  0  0  0  0  0
  -25.6219  -21.7970   17.9542 C   0  0  0  0  0  0
  -26.7422  -22.7871   15.5728 C   0  0  0  0  0  0
  -25.3431  -22.8378   15.7556 C   0  0  0  0  0  0
  -27.0256  -21.8225   17.7971 C   0  0  0  0  0  0
  -27.5863  -22.2890   16.5829 C   0  0  0  0  0  0
  -24.4790  -23.4387   14.6761 C   0  0  0  0  0  0
  -28.1533  -20.0925   19.0184 C   0  0  0  0  0  0
  -22.5691  -24.8864   14.0564 C   0  0  0  0  0  0
  -23.3334  -24.8883   16.3762 C   0  0  0  0  0  0
  -29.0005  -19.5168   20.1897 C   0  0  0  0  0  0
  -28.8290  -17.9703   20.5012 C   0  0  0  0  0  0
  -28.0967  -24.0327   19.3236 C   0  0  0  0  0  0
  -30.0787  -17.0358   20.3328 C   0  0  0  0  0  0
  -28.2466  -22.5286   19.8356 C   0  0  0  0  0  0
  -28.2724  -25.1517   20.4168 C   0  0  0  0  0  0
  -29.8199  -15.6142   20.6810 N   0  0  0  0  0  0
  -27.8592  -21.4356   18.8866 N   0  0  0  0  0  0
  -23.5138  -24.3312   15.0301 N   0  0  0  0  0  0
  -24.7035  -23.1243   13.5019 O   0  0  0  0  0  0
  -27.7572  -19.2748   18.1786 O   0  0  0  0  0  0
  -29.2954  -22.2964   16.3231 Cl  0  0  0  0  0  0
  -31.4764  -12.4372   19.1252 H   0  0  0  0  0  0
  -30.3473  -11.3288   19.8517 H   0  0  0  0  0  0
  -29.7482  -11.7454   17.4455 H   0  0  0  0  0  0
  -29.6600  -13.4632   17.7437 H   0  0  0  0  0  0
  -27.8398  -11.2906   18.8321 H   0  0  0  0  0  0
  -27.3726  -12.6017   17.7841 H   0  0  0  0  0  0
  -27.6826  -14.2449   19.5307 H   0  0  0  0  0  0
  -28.6966  -12.0145   21.3694 H   0  0  0  0  0  0
  -28.4775  -13.6780   21.8382 H   0  0  0  0  0  0
  -25.2797   -9.5671   22.4746 H   0  0  0  0  0  0
  -24.0017   -7.4633   22.7465 H   0  0  0  0  0  0
  -21.0870   -8.8787   19.8942 H   0  0  0  0  0  0
  -22.3738  -10.9677   19.6164 H   0  0  0  0  0  0
  -21.1987   -7.6148   23.9726 H   0  0  0  0  0  0
  -21.1478   -6.0519   25.9082 H   0  0  0  0  0  0
  -22.0600   -2.7616   23.2837 H   0  0  0  0  0  0
  -22.4154  -11.9874   22.4766 H   0  0  0  0  0  0
  -21.1141  -13.1209   22.2594 H   0  0  0  0  0  0
  -24.6565  -15.8347   20.5107 H   0  0  0  0  0  0
  -26.2711  -15.6277   20.0566 H   0  0  0  0  0  0
  -26.7204  -32.5426   23.1122 H   0  0  0  0  0  0
  -25.0069  -33.9696   25.0403 H   0  0  0  0  0  0
  -22.7109  -31.3080   21.4061 H   0  0  0  0  0  0
  -23.3707  -35.9653   23.3316 H   0  0  0  0  0  0
  -24.3595  -36.8938   22.2060 H   0  0  0  0  0  0
  -23.7247  -37.6491   23.6706 H   0  0  0  0  0  0
  -26.0917  -31.5681   20.6051 H   0  0  0  0  0  0
  -26.8318  -30.8407   21.9972 H   0  0  0  0  0  0
  -28.1248  -29.0242   21.1108 H   0  0  0  0  0  0
  -25.9792  -25.9395   18.9906 H   0  0  0  0  0  0
  -23.9539  -27.3030   19.0277 H   0  0  0  0  0  0
  -23.7345  -30.5917   19.4061 H   0  0  0  0  0  0
  -22.7391  -29.2453   19.8680 H   0  0  0  0  0  0
  -25.1265  -36.1900   25.0816 H   0  0  0  0  0  0
  -20.9974  -28.3203   24.1417 H   0  0  0  0  0  0
  -20.5675  -26.2250   23.3616 H   0  0  0  0  0  0
  -21.6603  -26.7417   22.1194 H   0  0  0  0  0  0
  -19.6872  -25.6297   21.1242 H   0  0  0  0  0  0
  -19.6649  -27.3201   20.6764 H   0  0  0  0  0  0
  -17.4174  -26.6731   21.4023 H   0  0  0  0  0  0
  -18.0268  -26.0080   22.9043 H   0  0  0  0  0  0
  -19.7954  -30.7289   24.2234 H   0  0  0  0  0  0
  -17.5013  -31.6251   24.5165 H   0  0  0  0  0  0
  -15.5358  -30.2929   23.7680 H   0  0  0  0  0  0
  -15.8703  -28.0808   22.7013 H   0  0  0  0  0  0
  -24.5894  -30.7094   25.7874 H   0  0  0  0  0  0
  -24.8860  -32.2931   26.4899 H   0  0  0  0  0  0
  -25.8030  -30.9007   27.0319 H   0  0  0  0  0  0
  -26.2965  -29.6729   24.1299 H   0  0  0  0  0  0
  -27.4139  -29.7358   25.4744 H   0  0  0  0  0  0
  -27.8801  -30.4357   23.9420 H   0  0  0  0  0  0
  -27.2681  -33.3756   26.1957 H   0  0  0  0  0  0
  -28.3889  -32.6847   25.0330 H   0  0  0  0  0  0
  -28.0662  -31.8582   26.5514 H   0  0  0  0  0  0
  -28.2538  -38.0104   24.7510 H   0  0  0  0  0  0
  -28.1082  -36.2619   24.6266 H   0  0  0  0  0  0
  -27.2302  -37.1429   25.8867 H   0  0  0  0  0  0
  -20.9430  -29.8824   21.6971 H   0  0  0  0  0  0
  -26.0141  -38.2822   24.1424 H   0  0  0  0  0  0
  -23.7137  -22.2347   17.0667 H   0  0  0  0  0  0
  -25.1790  -21.4250   18.8678 H   0  0  0  0  0  0
  -27.1770  -23.1654   14.6574 H   0  0  0  0  0  0
  -22.6407  -24.4385   13.0659 H   0  0  0  0  0  0
  -22.7228  -25.9604   13.9418 H   0  0  0  0  0  0
  -21.5475  -24.7348   14.4065 H   0  0  0  0  0  0
  -22.7544  -24.2061   17.0002 H   0  0  0  0  0  0
  -22.7922  -25.8333   16.3515 H   0  0  0  0  0  0
  -24.2866  -25.0874   16.8689 H   0  0  0  0  0  0
  -28.7620  -20.0750   21.0955 H   0  0  0  0  0  0
  -30.0447  -19.7330   19.9655 H   0  0  0  0  0  0
  -28.0143  -17.5489   19.9116 H   0  0  0  0  0  0
  -28.4830  -17.8804   21.5318 H   0  0  0  0  0  0
  -27.1203  -24.1647   18.8639 H   0  0  0  0  0  0
  -28.8206  -24.2038   18.5251 H   0  0  0  0  0  0
  -30.9058  -17.4020   20.9422 H   0  0  0  0  0  0
  -30.4234  -17.0816   19.2971 H   0  0  0  0  0  0
  -27.6245  -22.4046   20.7229 H   0  0  0  0  0  0
  -29.2765  -22.3707   20.1551 H   0  0  0  0  0  0
  -29.2249  -24.9425   20.9093 H   0  0  0  0  0  0
  -27.5129  -25.0195   21.1884 H   0  0  0  0  0  0
  -28.8803  -15.3779   20.9651 H   0  0  0  0  0  0
  1 25  1  0  0  0
  1 30  2  0  0  0
  1 87  1  0  0  0
  2  3  1  0  0  0
  2 25  1  0  0  0
  2 93  1  0  0  0
  2 94  1  0  0  0
  3  4  1  0  0  0
  3 95  1  0  0  0
  3 96  1  0  0  0
  4  5  1  0  0  0
  4 97  1  0  0  0
  4 98  1  0  0  0
  5  6  1  0  0  0
  5 26  1  0  0  0
  5 99  1  0  0  0
  6 25  1  0  0  0
  6100  1  0  0  0
  6101  1  0  0  0
  7  8  2  0  0  0
  7 26  1  0  0  0
  7 29  1  0  0  0
  8  9  1  0  0  0
  8 22  1  0  0  0
  9 10  1  0  0  0
  9 27  2  0  0  0
 10 11  2  0  0  0
 10 15  1  0  0  0
 11 12  1  0  0  0
 11102  1  0  0  0
 12 13  2  0  0  0
 12103  1  0  0  0
 13 14  1  0  0  0
 13 31  1  0  0  0
 14 15  2  0  0  0
 14104  1  0  0  0
 15105  1  0  0  0
 16 17  2  0  0  0
 16 21  1  0  0  0
 16 31  1  0  0  0
 17 18  1  0  0  0
 17106  1  0  0  0
 18 19  2  0  0  0
 18107  1  0  0  0
 19 20  1  0  0  0
 19 24  1  0  0  0
 20 21  2  0  0  0
 20108  1  0  0  0
 21 23  1  0  0  0
 22 28  1  0  0  0
 22 32  2  0  0  0
 26 27  1  0  0  0
 28109  1  0  0  0
 28110  1  0  0  0
 29111  1  0  0  0
 29112  1  0  0  0
 33 34  1  0  0  0
 33 66  1  0  0  0
 33 70  2  0  0  0
 34 36  1  0  0  0
 34 59  1  0  0  0
 34113  1  0  0  0
 35 44  2  0  0  0
 35 45  1  0  0  0
 35 68  1  0  0  0
 36 56  1  0  0  0
 36114  1  0  0  0
 37 39  1  0  0  0
 37 47  1  0  0  0
 37 66  1  0  0  0
 37115  1  0  0  0
 38 43  2  0  0  0
 38 46  1  0  0  0
 38 47  1  0  0  0
 39 64  1  0  0  0
 39 67  2  0  0  0
 40 52  1  0  0  0
 40 53  2  0  0  0
 40 58  1  0  0  0
 41116  1  0  0  0
 41117  1  0  0  0
 41118  1  0  0  0
 41 48  1  0  0  0
 42 43  1  0  0  0
 42 66  1  0  0  0
 42119  1  0  0  0
 42120  1  0  0  0
 43 44  1  0  0  0
 44121  1  0  0  0
 45 46  2  0  0  0
 45122  1  0  0  0
 46123  1  0  0  0
 47124  1  0  0  0
 47125  1  0  0  0
 48 56  1  0  0  0
 48 65  1  0  0  0
 48126  1  0  0  0
 49 50  1  0  0  0
 49 53  1  0  0  0
 49 64  1  0  0  0
 49127  1  0  0  0
 50 51  1  0  0  0
 50128  1  0  0  0
 50129  1  0  0  0
 51 52  1  0  0  0
 51130  1  0  0  0
 51131  1  0  0  0
 52132  1  0  0  0
 52133  1  0  0  0
 53 54  1  0  0  0
 54 55  2  0  0  0
 54134  1  0  0  0
 55 57  1  0  0  0
 55135  1  0  0  0
 56 69  2  0  0  0
 57 58  2  0  0  0
 57136  1  0  0  0
 58137  1  0  0  0
 59 60  1  0  0  0
 59 61  1  0  0  0
 59 62  1  0  0  0
 60138  1  0  0  0
 60139  1  0  0  0
 60140  1  0  0  0
 61141  1  0  0  0
 61142  1  0  0  0
 61143  1  0  0  0
 62144  1  0  0  0
 62145  1  0  0  0
 62146  1  0  0  0
 63 65  1  0  0  0
 63147  1  0  0  0
 63148  1  0  0  0
 63149  1  0  0  0
 64150  1  0  0  0
 65151  1  0  0  0
 68 86  1  0  0  0
 71 72  2  0  0  0
 71 74  1  0  0  0
 71152  1  0  0  0
 72 75  1  0  0  0
 72153  1  0  0  0
 73 74  2  0  0  0
 73 76  1  0  0  0
 73154  1  0  0  0
 74 77  1  0  0  0
 75 76  2  0  0  0
 75 88  1  0  0  0
 76 92  1  0  0  0
 77 89  1  0  0  0
 77 90  2  0  0  0
 78 81  1  0  0  0
 78 88  1  0  0  0
 78 91  2  0  0  0
 79 89  1  0  0  0
 79155  1  0  0  0
 79156  1  0  0  0
 79157  1  0  0  0
 80 89  1  0  0  0
 80158  1  0  0  0
 80159  1  0  0  0
 80160  1  0  0  0
 81 82  1  0  0  0
 81161  1  0  0  0
 81162  1  0  0  0
 82 84  1  0  0  0
 82163  1  0  0  0
 82164  1  0  0  0
 83 85  1  0  0  0
 83 86  1  0  0  0
 83165  1  0  0  0
 83166  1  0  0  0
 84 87  1  0  0  0
 84167  1  0  0  0
 84168  1  0  0  0
 85 88  1  0  0  0
 85169  1  0  0  0
 85170  1  0  0  0
 86171  1  0  0  0
 86172  1  0  0  0
 87173  1  0  0  0
M  ISO  4   1 100  68 101  86 101  87 100
M  END
> <chiral flag>
0

> <version>
0

> <s_m_source_file>
/data/baiqing/PycharmProjects/Reinvent-master-3.2/result/LINK_invent/BTK/process_docking_weight1_custom_sum_contain_oxygen_bond_distance_aromatic_linkinvent_7_9_3/rearranged_h_0004.sdf

> <i_m_source_file_index>
90

> <r_mmod_Potential_Energy-OPLS-2005>
76.5533218383789

> <r_mmod_Stretch_Energy-OPLS-2005>
68.1139755249023

> <r_mmod_Bend_Energy-OPLS-2005>
131.769760131836

> <r_mmod_Torsional_Energy-OPLS-2005>
318.04296875

> <r_mmod_Improper_Torsional_Energy-OPLS-2005>
6.9372673034668

> <r_mmod_Van_der_Waal_Energy-OPLS-2005>
156.533462524414

> <r_mmod_Electrostatic_Energy-OPLS-2005>
-376.615386962891

> <r_mmod_Solvation_Energy-OPLS-2005>
-258.702789306641

> <b_mmod_Minimization_Converged-OPLS-2005>
0

> <r_mmod_RMS_Derivative-OPLS-2005>
4.49399089813232

$$$$
90
                    3D
 Structure written by MMmdl.
169177  0  0  1  0            999 V2000
  -30.5262  -14.9948   20.3900 C   0  0  0  0  0  0
  -30.4375  -12.6135   19.5052 C   0  0  0  0  0  0
  -29.5204  -12.5276   18.2621 C   0  0  0  0  0  0
  -28.0585  -12.3019   18.6859 C   0  0  0  0  0  0
  -27.6270  -13.2494   19.8349 C   0  0  2  0  0  0
  -28.6671  -13.3057   20.9739 C   0  0  0  0  0  0
  -25.2460  -13.8216   20.5707 C   0  0  0  0  0  0
  -24.1775  -13.0441   20.9234 C   0  0  0  0  0  0
  -24.6384  -11.6925   20.8750 C   0  0  0  0  0  0
  -23.9065  -10.4295   21.0402 C   0  0  0  0  0  0
  -24.3615   -9.4213   21.9181 C   0  0  0  0  0  0
  -23.6290   -8.2248   22.0752 C   0  0  0  0  0  0
  -22.4275   -8.0280   21.3539 C   0  0  0  0  0  0
  -21.9910   -9.0253   20.4642 C   0  0  0  0  0  0
  -22.7236  -10.2135   20.3052 C   0  0  0  0  0  0
  -21.6855   -6.0728   22.5271 C   0  0  0  0  0  0
  -21.4017   -6.5633   23.8205 C   0  0  0  0  0  0
  -21.3658   -5.6789   24.9169 C   0  0  0  0  0  0
  -21.6048   -4.3051   24.7223 C   0  0  0  0  0  0
  -21.8820   -3.8141   23.4344 C   0  0  0  0  0  0
  -21.9198   -4.6956   22.3398 C   0  0  0  0  0  0
  -22.7799  -13.5222   21.1879 C   0  0  0  0  0  0
  -22.1668   -4.2142   21.0977 F   0  0  0  0  0  0
  -21.5626   -3.4536   25.7738 F   0  0  0  0  0  0
  -29.9399  -13.7247   20.3721 N   0  0  0  0  0  0
  -26.2876  -12.9446   20.3230 N   0  0  0  0  0  0
  -25.9318  -11.6576   20.5735 N   0  0  0  0  0  0
  -22.0447  -12.8203   22.0427 N   0  0  0  0  0  0
  -25.4133  -15.1940   20.4107 N   0  0  0  0  0  0
  -31.7332  -15.0327   20.1225 O   0  0  0  0  0  0
  -21.6644   -6.8872   21.4231 O   0  0  0  0  0  0
  -22.3488  -14.5524   20.6723 O   0  0  0  0  0  0
  -24.6491  -31.8400   23.1862 C   0  0  0  0  0  0
  -25.9247  -32.4675   23.8255 C   0  0  1  0  0  0
  -27.2139  -27.0969   20.1539 C   0  0  0  0  0  0
  -25.5981  -33.8479   24.2170 N   0  0  0  0  0  0
  -23.4547  -30.4593   21.5326 C   0  0  2  0  0  0
  -24.9039  -28.8797   20.1121 C   0  0  0  0  0  0
  -22.7601  -29.4529   22.4856 C   0  0  0  0  0  0
  -18.0306  -28.1377   22.8466 C   0  0  0  0  0  0
  -24.1492  -36.7239   23.2640 C   0  0  0  0  0  0
  -26.0136  -30.7020   21.3904 C   0  0  0  0  0  0
  -26.0845  -29.3100   20.7305 C   0  0  0  0  0  0
  -27.2407  -28.4360   20.7315 C   0  0  0  0  0  0
  -26.0045  -26.7780   19.4966 C   0  0  0  0  0  0
  -24.8778  -27.6281   19.4803 C   0  0  0  0  0  0
  -23.6851  -29.7879   20.1528 C   0  0  0  0  0  0
  -25.4126  -36.3015   24.0313 C   0  0  1  0  0  0
  -20.5928  -28.3725   23.1219 C   0  0  2  0  0  0
  -20.6797  -26.9424   22.5406 C   0  0  0  0  0  0
  -19.5773  -26.6374   21.5213 C   0  0  0  0  0  0
  -18.1944  -26.7913   22.1611 C   0  0  0  0  0  0
  -19.1565  -28.8869   23.2824 C   0  0  0  0  0  0
  -18.9486  -30.1457   23.8860 C   0  0  0  0  0  0
  -17.6487  -30.6576   24.0556 C   0  0  0  0  0  0
  -25.9090  -34.9398   23.5049 C   0  0  0  0  0  0
  -16.5375  -29.9070   23.6332 C   0  0  0  0  0  0
  -16.7295  -28.6489   23.0350 C   0  0  0  0  0  0
  -26.4558  -31.6547   25.0705 C   0  0  0  0  0  0
  -25.3720  -31.3742   26.1381 C   0  0  0  0  0  0
  -27.0438  -30.2942   24.6302 C   0  0  0  0  0  0
  -27.6080  -32.4327   25.7486 C   0  0  0  0  0  0
  -27.5577  -37.1781   24.8463 C   0  0  0  0  0  0
  -21.4290  -29.3051   22.3598 N   0  0  0  0  0  0
  -26.4280  -37.3741   23.9416 N   0  0  0  0  0  0
  -24.7257  -31.0227   22.0912 N   0  0  0  0  0  0
  -23.4219  -28.8080   23.3030 O   0  0  0  0  0  0
  -28.2520  -26.0828   20.2199 O   0  0  0  0  0  0
  -26.5682  -34.8911   22.4628 O   0  0  0  0  0  0
  -23.5604  -32.1290   23.7071 O   0  0  0  0  0  0
  -31.3589  -19.3958   19.0832 C   0  0  0  0  0  0
  -31.0962  -18.0603   19.4615 C   0  0  0  0  0  0
  -30.5048  -20.4754   19.4033 C   0  0  0  0  0  0
  -29.0901  -18.8734   20.5634 C   0  0  0  0  0  0
  -29.9606  -17.6977   20.2173 C   0  0  0  0  0  0
  -29.3097  -20.3135   20.1376 C   0  0  0  0  0  0
  -27.1115  -21.5089   20.4302 C   0  0  0  0  0  0
  -27.9331  -18.5255   21.4836 C   0  0  0  0  0  0
  -22.1654  -20.2118   16.5136 C   0  0  0  0  0  0
  -26.3415  -20.5990   19.4584 C   0  0  0  0  0  0
  -23.0645  -21.1384   17.3394 C   0  0  0  0  0  0
  -25.1114  -21.3126   18.8580 C   0  0  0  0  0  0
  -24.2702  -20.4042   17.9467 C   0  0  0  0  0  0
  -28.9286  -23.1573   20.3560 C   0  0  0  0  0  0
  -27.9363  -24.5419   20.1150 C   0  0  0  0  0  0
  -29.7464  -16.1920   20.5403 N   0  0  0  0  0  0
  -28.4557  -21.6161   20.3265 N   0  0  0  0  0  0
  -26.4700  -22.1166   21.2928 O   0  0  0  0  0  0
  -31.4698  -12.7705   19.1889 H   0  0  0  0  0  0
  -30.4367  -11.6687   20.0512 H   0  0  0  0  0  0
  -29.8468  -11.7209   17.6044 H   0  0  0  0  0  0
  -29.5977  -13.4478   17.6807 H   0  0  0  0  0  0
  -27.9731  -11.2652   19.0142 H   0  0  0  0  0  0
  -27.3903  -12.4058   17.8306 H   0  0  0  0  0  0
  -27.5829  -14.2438   19.3903 H   0  0  0  0  0  0
  -28.7617  -12.3388   21.4707 H   0  0  0  0  0  0
  -28.3573  -14.0180   21.7398 H   0  0  0  0  0  0
  -25.2752   -9.5698   22.4765 H   0  0  0  0  0  0
  -23.9995   -7.4645   22.7478 H   0  0  0  0  0  0
  -21.0841   -8.8767   19.8952 H   0  0  0  0  0  0
  -22.3678  -10.9674   19.6168 H   0  0  0  0  0  0
  -21.2006   -7.6142   23.9704 H   0  0  0  0  0  0
  -21.1479   -6.0521   25.9074 H   0  0  0  0  0  0
  -22.0600   -2.7603   23.2848 H   0  0  0  0  0  0
  -22.4081  -11.9873   22.4814 H   0  0  0  0  0  0
  -21.1062  -13.1216   22.2627 H   0  0  0  0  0  0
  -24.6344  -15.8368   20.5031 H   0  0  0  0  0  0
  -26.2392  -15.6244   20.0167 H   0  0  0  0  0  0
  -26.7305  -32.5284   23.0979 H   0  0  0  0  0  0
  -25.0130  -33.9584   25.0314 H   0  0  0  0  0  0
  -22.7587  -31.2859   21.3752 H   0  0  0  0  0  0
  -23.3778  -35.9546   23.3267 H   0  0  0  0  0  0
  -24.3582  -36.8910   22.2062 H   0  0  0  0  0  0
  -23.7229  -37.6410   23.6709 H   0  0  0  0  0  0
  -26.1713  -31.4553   20.6176 H   0  0  0  0  0  0
  -26.8826  -30.7520   22.0352 H   0  0  0  0  0  0
  -28.1399  -28.7605   21.2369 H   0  0  0  0  0  0
  -25.8905  -25.8236   19.0063 H   0  0  0  0  0  0
  -23.9745  -27.2930   18.9889 H   0  0  0  0  0  0
  -23.8302  -30.5612   19.3967 H   0  0  0  0  0  0
  -22.7985  -29.2346   19.8392 H   0  0  0  0  0  0
  -25.1312  -36.1826   25.0807 H   0  0  0  0  0  0
  -20.9997  -28.3332   24.1353 H   0  0  0  0  0  0
  -20.5708  -26.2346   23.3638 H   0  0  0  0  0  0
  -21.6659  -26.7438   22.1204 H   0  0  0  0  0  0
  -19.6946  -25.6287   21.1247 H   0  0  0  0  0  0
  -19.6696  -27.3181   20.6741 H   0  0  0  0  0  0
  -17.4227  -26.6674   21.3994 H   0  0  0  0  0  0
  -18.0310  -26.0042   22.8995 H   0  0  0  0  0  0
  -19.7972  -30.7258   24.2226 H   0  0  0  0  0  0
  -17.5050  -31.6257   24.5161 H   0  0  0  0  0  0
  -15.5373  -30.2965   23.7675 H   0  0  0  0  0  0
  -15.8693  -28.0806   22.7075 H   0  0  0  0  0  0
  -24.5934  -30.7053   25.7701 H   0  0  0  0  0  0
  -24.8872  -32.2918   26.4722 H   0  0  0  0  0  0
  -25.7985  -30.8981   27.0215 H   0  0  0  0  0  0
  -26.3059  -29.6645   24.1320 H   0  0  0  0  0  0
  -27.4050  -29.7265   25.4885 H   0  0  0  0  0  0
  -27.8964  -30.4175   23.9620 H   0  0  0  0  0  0
  -27.2675  -33.3679   26.1939 H   0  0  0  0  0  0
  -28.3943  -32.6799   25.0340 H   0  0  0  0  0  0
  -28.0671  -31.8523   26.5498 H   0  0  0  0  0  0
  -28.2576  -38.0101   24.7554 H   0  0  0  0  0  0
  -28.1091  -36.2640   24.6226 H   0  0  0  0  0  0
  -27.2303  -37.1339   25.8866 H   0  0  0  0  0  0
  -20.9517  -29.8755   21.6760 H   0  0  0  0  0  0
  -26.0136  -38.2797   24.1456 H   0  0  0  0  0  0
  -32.2491  -19.5995   18.5030 H   0  0  0  0  0  0
  -31.8023  -17.3077   19.1417 H   0  0  0  0  0  0
  -30.7829  -21.4520   19.0351 H   0  0  0  0  0  0
  -27.1114  -18.0821   20.9235 H   0  0  0  0  0  0
  -27.5726  -19.3853   22.0437 H   0  0  0  0  0  0
  -28.2504  -17.7928   22.2252 H   0  0  0  0  0  0
  -21.3243  -20.7639   16.0921 H   0  0  0  0  0  0
  -21.7572  -19.4087   17.1282 H   0  0  0  0  0  0
  -22.7107  -19.7561   15.6862 H   0  0  0  0  0  0
  -26.0003  -19.7195   19.9986 H   0  0  0  0  0  0
  -26.9991  -20.2572   18.6582 H   0  0  0  0  0  0
  -22.4678  -21.5917   18.1324 H   0  0  0  0  0  0
  -23.4129  -21.9593   16.7108 H   0  0  0  0  0  0
  -25.4398  -22.1887   18.2971 H   0  0  0  0  0  0
  -24.4750  -21.6864   19.6628 H   0  0  0  0  0  0
  -24.8939  -20.0076   17.1445 H   0  0  0  0  0  0
  -23.9205  -19.5436   18.5197 H   0  0  0  0  0  0
  -29.3981  -23.2830   21.3309 H   0  0  0  0  0  0
  -29.7442  -23.2533   19.6426 H   0  0  0  0  0  0
  -27.0855  -24.4363   20.7858 H   0  0  0  0  0  0
  -27.5322  -24.4056   19.1122 H   0  0  0  0  0  0
  -28.8105  -15.9816   20.8516 H   0  0  0  0  0  0
  1 25  1  0  0  0
  1 30  2  0  0  0
  1 86  1  0  0  0
  2  3  1  0  0  0
  2 25  1  0  0  0
  2 89  1  0  0  0
  2 90  1  0  0  0
  3  4  1  0  0  0
  3 91  1  0  0  0
  3 92  1  0  0  0
  4  5  1  0  0  0
  4 93  1  0  0  0
  4 94  1  0  0  0
  5  6  1  0  0  0
  5 26  1  0  0  0
  5 95  1  0  0  0
  6 25  1  0  0  0
  6 96  1  0  0  0
  6 97  1  0  0  0
  7  8  2  0  0  0
  7 26  1  0  0  0
  7 29  1  0  0  0
  8  9  1  0  0  0
  8 22  1  0  0  0
  9 10  1  0  0  0
  9 27  2  0  0  0
 10 11  2  0  0  0
 10 15  1  0  0  0
 11 12  1  0  0  0
 11 98  1  0  0  0
 12 13  2  0  0  0
 12 99  1  0  0  0
 13 14  1  0  0  0
 13 31  1  0  0  0
 14 15  2  0  0  0
 14100  1  0  0  0
 15101  1  0  0  0
 16 17  2  0  0  0
 16 21  1  0  0  0
 16 31  1  0  0  0
 17 18  1  0  0  0
 17102  1  0  0  0
 18 19  2  0  0  0
 18103  1  0  0  0
 19 20  1  0  0  0
 19 24  1  0  0  0
 20 21  2  0  0  0
 20104  1  0  0  0
 21 23  1  0  0  0
 22 28  1  0  0  0
 22 32  2  0  0  0
 26 27  1  0  0  0
 28105  1  0  0  0
 28106  1  0  0  0
 29107  1  0  0  0
 29108  1  0  0  0
 33 34  1  0  0  0
 33 66  1  0  0  0
 33 70  2  0  0  0
 34 36  1  0  0  0
 34 59  1  0  0  0
 34109  1  0  0  0
 35 44  2  0  0  0
 35 45  1  0  0  0
 35 68  1  0  0  0
 36 56  1  0  0  0
 36110  1  0  0  0
 37 39  1  0  0  0
 37 47  1  0  0  0
 37 66  1  0  0  0
 37111  1  0  0  0
 38 43  2  0  0  0
 38 46  1  0  0  0
 38 47  1  0  0  0
 39 64  1  0  0  0
 39 67  2  0  0  0
 40 52  1  0  0  0
 40 53  2  0  0  0
 40 58  1  0  0  0
 41112  1  0  0  0
 41113  1  0  0  0
 41114  1  0  0  0
 41 48  1  0  0  0
 42 43  1  0  0  0
 42 66  1  0  0  0
 42115  1  0  0  0
 42116  1  0  0  0
 43 44  1  0  0  0
 44117  1  0  0  0
 45 46  2  0  0  0
 45118  1  0  0  0
 46119  1  0  0  0
 47120  1  0  0  0
 47121  1  0  0  0
 48 56  1  0  0  0
 48 65  1  0  0  0
 48122  1  0  0  0
 49 50  1  0  0  0
 49 53  1  0  0  0
 49 64  1  0  0  0
 49123  1  0  0  0
 50 51  1  0  0  0
 50124  1  0  0  0
 50125  1  0  0  0
 51 52  1  0  0  0
 51126  1  0  0  0
 51127  1  0  0  0
 52128  1  0  0  0
 52129  1  0  0  0
 53 54  1  0  0  0
 54 55  2  0  0  0
 54130  1  0  0  0
 55 57  1  0  0  0
 55131  1  0  0  0
 56 69  2  0  0  0
 57 58  2  0  0  0
 57132  1  0  0  0
 58133  1  0  0  0
 59 60  1  0  0  0
 59 61  1  0  0  0
 59 62  1  0  0  0
 60134  1  0  0  0
 60135  1  0  0  0
 60136  1  0  0  0
 61137  1  0  0  0
 61138  1  0  0  0
 61139  1  0  0  0
 62140  1  0  0  0
 62141  1  0  0  0
 62142  1  0  0  0
 63 65  1  0  0  0
 63143  1  0  0  0
 63144  1  0  0  0
 63145  1  0  0  0
 64146  1  0  0  0
 65147  1  0  0  0
 68 85  1  0  0  0
 71 72  2  0  0  0
 71 73  1  0  0  0
 71148  1  0  0  0
 72 75  1  0  0  0
 72149  1  0  0  0
 73 76  2  0  0  0
 73150  1  0  0  0
 74 75  2  0  0  0
 74 76  1  0  0  0
 74 78  1  0  0  0
 75 86  1  0  0  0
 76 87  1  0  0  0
 77 80  1  0  0  0
 77 87  1  0  0  0
 77 88  2  0  0  0
 78151  1  0  0  0
 78152  1  0  0  0
 78153  1  0  0  0
 79 81  1  0  0  0
 79154  1  0  0  0
 79155  1  0  0  0
 79156  1  0  0  0
 80 82  1  0  0  0
 80157  1  0  0  0
 80158  1  0  0  0
 81 83  1  0  0  0
 81159  1  0  0  0
 81160  1  0  0  0
 82 83  1  0  0  0
 82161  1  0  0  0
 82162  1  0  0  0
 83163  1  0  0  0
 83164  1  0  0  0
 84 85  1  0  0  0
 84 87  1  0  0  0
 84165  1  0  0  0
 84166  1  0  0  0
 85167  1  0  0  0
 85168  1  0  0  0
 86169  1  0  0  0
M  ISO  4   1 100  68 101  85 101  86 100
M  END
> <chiral flag>
0

> <version>
0

> <s_m_source_file>
/data/baiqing/PycharmProjects/Reinvent-master-3.2/result/LINK_invent/BTK/process_docking_weight1_custom_sum_contain_oxygen_bond_distance_aromatic_linkinvent_7_9_3/rearranged_h_0004.sdf

> <i_m_source_file_index>
91

> <r_mmod_Potential_Energy-OPLS-2005>
664.9453125

> <r_mmod_Stretch_Energy-OPLS-2005>
332.065155029297

> <r_mmod_Bend_Energy-OPLS-2005>
268.470764160156

> <r_mmod_Torsional_Energy-OPLS-2005>
284.513366699219

> <r_mmod_Improper_Torsional_Energy-OPLS-2005>
3.98396396636963

> <r_mmod_Van_der_Waal_Energy-OPLS-2005>
136.619720458984

> <r_mmod_Electrostatic_Energy-OPLS-2005>
-375.635833740234

> <r_mmod_Solvation_Energy-OPLS-2005>
-213.027587890625

> <b_mmod_Minimization_Converged-OPLS-2005>
0

> <r_mmod_RMS_Derivative-OPLS-2005>
1.57120931148529

$$$$
91
                    3D
 Structure written by MMmdl.
153161  0  0  1  0            999 V2000
  -30.6366  -14.6051   20.5080 C   0  0  0  0  0  0
  -30.4380  -12.3691   19.4414 C   0  0  0  0  0  0
  -29.5089  -12.5121   18.2159 C   0  0  0  0  0  0
  -28.0277  -12.3671   18.6250 C   0  0  0  0  0  0
  -27.6602  -13.2213   19.8693 C   0  0  2  0  0  0
  -28.7057  -13.0417   20.9932 C   0  0  0  0  0  0
  -25.2580  -13.8198   20.5676 C   0  0  0  0  0  0
  -24.1828  -13.0457   20.9111 C   0  0  0  0  0  0
  -24.6409  -11.6935   20.8676 C   0  0  0  0  0  0
  -23.9068  -10.4318   21.0372 C   0  0  0  0  0  0
  -24.3622   -9.4250   21.9161 C   0  0  0  0  0  0
  -23.6309   -8.2277   22.0744 C   0  0  0  0  0  0
  -22.4288   -8.0296   21.3536 C   0  0  0  0  0  0
  -21.9908   -9.0267   20.4644 C   0  0  0  0  0  0
  -22.7228  -10.2149   20.3040 C   0  0  0  0  0  0
  -21.6866   -6.0749   22.5277 C   0  0  0  0  0  0
  -21.4022   -6.5655   23.8209 C   0  0  0  0  0  0
  -21.3652   -5.6799   24.9167 C   0  0  0  0  0  0
  -21.6040   -4.3058   24.7215 C   0  0  0  0  0  0
  -21.8829   -3.8154   23.4334 C   0  0  0  0  0  0
  -21.9205   -4.6976   22.3395 C   0  0  0  0  0  0
  -22.7858  -13.5244   21.1817 C   0  0  0  0  0  0
  -22.1679   -4.2166   21.0969 F   0  0  0  0  0  0
  -21.5618   -3.4533   25.7728 F   0  0  0  0  0  0
  -30.0258  -13.3807   20.4339 N   0  0  0  0  0  0
  -26.3041  -12.9403   20.3359 N   0  0  0  0  0  0
  -25.9347  -11.6542   20.5734 N   0  0  0  0  0  0
  -22.0496  -12.8228   22.0375 N   0  0  0  0  0  0
  -25.4267  -15.1943   20.4222 N   0  0  0  0  0  0
  -31.7897  -14.7739   20.1020 O   0  0  0  0  0  0
  -21.6655   -6.8891   21.4238 O   0  0  0  0  0  0
  -22.3538  -14.5555   20.6699 O   0  0  0  0  0  0
  -24.6273  -31.8613   23.2028 C   0  0  0  0  0  0
  -25.9118  -32.4781   23.8367 C   0  0  1  0  0  0
  -27.2146  -27.3147   20.1159 C   0  0  0  0  0  0
  -25.5930  -33.8578   24.2302 N   0  0  0  0  0  0
  -23.4187  -30.4883   21.5459 C   0  0  2  0  0  0
  -24.8627  -28.9456   20.1094 C   0  0  0  0  0  0
  -22.7472  -29.4650   22.4928 C   0  0  0  0  0  0
  -18.0298  -28.1381   22.8500 C   0  0  0  0  0  0
  -24.1481  -36.7278   23.2637 C   0  0  0  0  0  0
  -25.9630  -30.7920   21.3723 C   0  0  0  0  0  0
  -26.0353  -29.4198   20.7127 C   0  0  0  0  0  0
  -27.2148  -28.6176   20.7045 C   0  0  0  0  0  0
  -26.0173  -26.8991   19.4859 C   0  0  0  0  0  0
  -24.8569  -27.6915   19.4863 C   0  0  0  0  0  0
  -23.6320  -29.8260   20.1602 C   0  0  0  0  0  0
  -25.4098  -36.3076   24.0344 C   0  0  1  0  0  0
  -20.5907  -28.3690   23.1277 C   0  0  2  0  0  0
  -20.6785  -26.9413   22.5407 C   0  0  0  0  0  0
  -19.5753  -26.6385   21.5217 C   0  0  0  0  0  0
  -18.1938  -26.7923   22.1633 C   0  0  0  0  0  0
  -19.1555  -28.8847   23.2887 C   0  0  0  0  0  0
  -18.9469  -30.1449   23.8898 C   0  0  0  0  0  0
  -17.6467  -30.6584   24.0563 C   0  0  0  0  0  0
  -25.9053  -34.9448   23.5128 C   0  0  0  0  0  0
  -16.5359  -29.9078   23.6326 C   0  0  0  0  0  0
  -16.7281  -28.6493   23.0359 C   0  0  0  0  0  0
  -26.4486  -31.6577   25.0730 C   0  0  0  0  0  0
  -25.3706  -31.3730   26.1449 C   0  0  0  0  0  0
  -27.0319  -30.3001   24.6162 C   0  0  0  0  0  0
  -27.6063  -32.4281   25.7487 C   0  0  0  0  0  0
  -27.5578  -37.1793   24.8466 C   0  0  0  0  0  0
  -21.4192  -29.3041   22.3660 N   0  0  0  0  0  0
  -26.4276  -37.3771   23.9421 N   0  0  0  0  0  0
  -24.6892  -31.0640   22.0965 N   0  0  0  0  0  0
  -23.4208  -28.8194   23.3000 O   0  0  0  0  0  0
  -28.3219  -26.4510   20.1737 O   0  0  0  0  0  0
  -26.5609  -34.8914   22.4688 O   0  0  0  0  0  0
  -23.5434  -32.1402   23.7356 O   0  0  0  0  0  0
  -30.9023  -19.2362   20.0370 C   0  0  0  0  0  0
  -30.9698  -17.8170   20.1733 C   0  0  0  0  0  0
  -28.6882  -19.2437   20.9838 C   0  0  0  0  0  0
  -29.7665  -19.9925   20.4393 C   0  0  0  0  0  0
  -29.8969  -17.0791   20.7360 C   0  0  0  0  0  0
  -28.7577  -17.8270   21.1366 C   0  0  0  0  0  0
  -28.8057  -22.3951   20.3287 C   0  0  0  0  0  0
  -29.1818  -23.9293   20.4106 C   0  0  0  0  0  0
  -28.0616  -24.9954   20.0387 C   0  0  0  0  0  0
  -27.6750  -17.1497   21.7032 N   0  0  0  0  0  0
  -29.8014  -21.4551   20.3570 N   0  0  0  0  0  0
  -29.8428  -15.6345   20.9187 N   0  0  0  0  0  0
  -27.6185  -22.0763   20.2247 O   0  0  0  0  0  0
  -31.4808  -12.4842   19.1411 H   0  0  0  0  0  0
  -30.3597  -11.3672   19.8648 H   0  0  0  0  0  0
  -29.7638  -11.7664   17.4614 H   0  0  0  0  0  0
  -29.6658  -13.4851   17.7463 H   0  0  0  0  0  0
  -27.8451  -11.3122   18.8324 H   0  0  0  0  0  0
  -27.3788  -12.6267   17.7874 H   0  0  0  0  0  0
  -27.6896  -14.2642   19.5513 H   0  0  0  0  0  0
  -28.7079  -12.0116   21.3532 H   0  0  0  0  0  0
  -28.4597  -13.6558   21.8602 H   0  0  0  0  0  0
  -25.2775   -9.5744   22.4717 H   0  0  0  0  0  0
  -24.0032   -7.4682   22.7475 H   0  0  0  0  0  0
  -21.0819   -8.8781   19.8969 H   0  0  0  0  0  0
  -22.3679  -10.9676   19.6140 H   0  0  0  0  0  0
  -21.2023   -7.6175   23.9721 H   0  0  0  0  0  0
  -21.1450   -6.0523   25.9070 H   0  0  0  0  0  0
  -22.0612   -2.7620   23.2824 H   0  0  0  0  0  0
  -22.4098  -11.9899   22.4774 H   0  0  0  0  0  0
  -21.1118  -13.1277   22.2580 H   0  0  0  0  0  0
  -24.6642  -15.8411   20.5899 H   0  0  0  0  0  0
  -26.3306  -15.6600   20.3977 H   0  0  0  0  0  0
  -26.7193  -32.5446   23.1128 H   0  0  0  0  0  0
  -25.0088  -33.9717   25.0452 H   0  0  0  0  0  0
  -22.7143  -31.3105   21.4056 H   0  0  0  0  0  0
  -23.3758  -35.9600   23.3282 H   0  0  0  0  0  0
  -24.3598  -36.8902   22.2063 H   0  0  0  0  0  0
  -23.7216  -37.6473   23.6651 H   0  0  0  0  0  0
  -26.0968  -31.5554   20.6039 H   0  0  0  0  0  0
  -26.8437  -30.8397   22.0008 H   0  0  0  0  0  0
  -28.1140  -28.9758   21.1855 H   0  0  0  0  0  0
  -25.9391  -25.9417   18.9950 H   0  0  0  0  0  0
  -23.9578  -27.3229   19.0095 H   0  0  0  0  0  0
  -23.7481  -30.6030   19.4037 H   0  0  0  0  0  0
  -22.7499  -29.2560   19.8610 H   0  0  0  0  0  0
  -25.1279  -36.1931   25.0839 H   0  0  0  0  0  0
  -21.0022  -28.3263   24.1384 H   0  0  0  0  0  0
  -20.5697  -26.2302   23.3611 H   0  0  0  0  0  0
  -21.6651  -26.7439   22.1186 H   0  0  0  0  0  0
  -19.6909  -25.6293   21.1242 H   0  0  0  0  0  0
  -19.6678  -27.3205   20.6754 H   0  0  0  0  0  0
  -17.4209  -26.6687   21.4029 H   0  0  0  0  0  0
  -18.0326  -26.0060   22.9025 H   0  0  0  0  0  0
  -19.7944  -30.7272   24.2263 H   0  0  0  0  0  0
  -17.5020  -31.6263   24.5164 H   0  0  0  0  0  0
  -15.5358  -30.2981   23.7636 H   0  0  0  0  0  0
  -15.8693  -28.0808   22.7068 H   0  0  0  0  0  0
  -24.5880  -30.7083   25.7781 H   0  0  0  0  0  0
  -24.8889  -32.2906   26.4843 H   0  0  0  0  0  0
  -25.8017  -30.8928   27.0243 H   0  0  0  0  0  0
  -26.2905  -29.6762   24.1162 H   0  0  0  0  0  0
  -27.4022  -29.7237   25.4650 H   0  0  0  0  0  0
  -27.8768  -30.4309   23.9394 H   0  0  0  0  0  0
  -27.2721  -33.3605   26.2044 H   0  0  0  0  0  0
  -28.3880  -32.6791   25.0307 H   0  0  0  0  0  0
  -28.0710  -31.8397   26.5407 H   0  0  0  0  0  0
  -28.2584  -38.0103   24.7533 H   0  0  0  0  0  0
  -28.1091  -36.2643   24.6258 H   0  0  0  0  0  0
  -27.2312  -37.1387   25.8872 H   0  0  0  0  0  0
  -20.9373  -29.8764   21.6877 H   0  0  0  0  0  0
  -26.0165  -38.2850   24.1421 H   0  0  0  0  0  0
  -31.7552  -19.7457   19.6108 H   0  0  0  0  0  0
  -31.8637  -17.3092   19.8421 H   0  0  0  0  0  0
  -27.8055  -19.7635   21.3230 H   0  0  0  0  0  0
  -30.0519  -24.0953   19.7763 H   0  0  0  0  0  0
  -29.5082  -24.1134   21.4341 H   0  0  0  0  0  0
  -27.1868  -24.7564   20.6463 H   0  0  0  0  0  0
  -27.7784  -24.8001   19.0046 H   0  0  0  0  0  0
  -26.9060  -17.7450   21.9905 H   0  0  0  0  0  0
  -27.9102  -16.5185   22.4614 H   0  0  0  0  0  0
  -30.7316  -21.8505   20.3266 H   0  0  0  0  0  0
  -28.9431  -15.3343   21.2636 H   0  0  0  0  0  0
  1 25  1  0  0  0
  1 30  2  0  0  0
  1 82  1  0  0  0
  2  3  1  0  0  0
  2 25  1  0  0  0
  2 84  1  0  0  0
  2 85  1  0  0  0
  3  4  1  0  0  0
  3 86  1  0  0  0
  3 87  1  0  0  0
  4  5  1  0  0  0
  4 88  1  0  0  0
  4 89  1  0  0  0
  5  6  1  0  0  0
  5 26  1  0  0  0
  5 90  1  0  0  0
  6 25  1  0  0  0
  6 91  1  0  0  0
  6 92  1  0  0  0
  7  8  2  0  0  0
  7 26  1  0  0  0
  7 29  1  0  0  0
  8  9  1  0  0  0
  8 22  1  0  0  0
  9 10  1  0  0  0
  9 27  2  0  0  0
 10 11  2  0  0  0
 10 15  1  0  0  0
 11 12  1  0  0  0
 11 93  1  0  0  0
 12 13  2  0  0  0
 12 94  1  0  0  0
 13 14  1  0  0  0
 13 31  1  0  0  0
 14 15  2  0  0  0
 14 95  1  0  0  0
 15 96  1  0  0  0
 16 17  2  0  0  0
 16 21  1  0  0  0
 16 31  1  0  0  0
 17 18  1  0  0  0
 17 97  1  0  0  0
 18 19  2  0  0  0
 18 98  1  0  0  0
 19 20  1  0  0  0
 19 24  1  0  0  0
 20 21  2  0  0  0
 20 99  1  0  0  0
 21 23  1  0  0  0
 22 28  1  0  0  0
 22 32  2  0  0  0
 26 27  1  0  0  0
 28100  1  0  0  0
 28101  1  0  0  0
 29102  1  0  0  0
 29103  1  0  0  0
 33 34  1  0  0  0
 33 66  1  0  0  0
 33 70  2  0  0  0
 34 36  1  0  0  0
 34 59  1  0  0  0
 34104  1  0  0  0
 35 44  2  0  0  0
 35 45  1  0  0  0
 35 68  1  0  0  0
 36 56  1  0  0  0
 36105  1  0  0  0
 37 39  1  0  0  0
 37 47  1  0  0  0
 37 66  1  0  0  0
 37106  1  0  0  0
 38 43  2  0  0  0
 38 46  1  0  0  0
 38 47  1  0  0  0
 39 64  1  0  0  0
 39 67  2  0  0  0
 40 52  1  0  0  0
 40 53  2  0  0  0
 40 58  1  0  0  0
 41107  1  0  0  0
 41108  1  0  0  0
 41109  1  0  0  0
 41 48  1  0  0  0
 42 43  1  0  0  0
 42 66  1  0  0  0
 42110  1  0  0  0
 42111  1  0  0  0
 43 44  1  0  0  0
 44112  1  0  0  0
 45 46  2  0  0  0
 45113  1  0  0  0
 46114  1  0  0  0
 47115  1  0  0  0
 47116  1  0  0  0
 48 56  1  0  0  0
 48 65  1  0  0  0
 48117  1  0  0  0
 49 50  1  0  0  0
 49 53  1  0  0  0
 49 64  1  0  0  0
 49118  1  0  0  0
 50 51  1  0  0  0
 50119  1  0  0  0
 50120  1  0  0  0
 51 52  1  0  0  0
 51121  1  0  0  0
 51122  1  0  0  0
 52123  1  0  0  0
 52124  1  0  0  0
 53 54  1  0  0  0
 54 55  2  0  0  0
 54125  1  0  0  0
 55 57  1  0  0  0
 55126  1  0  0  0
 56 69  2  0  0  0
 57 58  2  0  0  0
 57127  1  0  0  0
 58128  1  0  0  0
 59 60  1  0  0  0
 59 61  1  0  0  0
 59 62  1  0  0  0
 60129  1  0  0  0
 60130  1  0  0  0
 60131  1  0  0  0
 61132  1  0  0  0
 61133  1  0  0  0
 61134  1  0  0  0
 62135  1  0  0  0
 62136  1  0  0  0
 62137  1  0  0  0
 63 65  1  0  0  0
 63138  1  0  0  0
 63139  1  0  0  0
 63140  1  0  0  0
 64141  1  0  0  0
 65142  1  0  0  0
 68 79  1  0  0  0
 71 72  2  0  0  0
 71 74  1  0  0  0
 71143  1  0  0  0
 72 75  1  0  0  0
 72144  1  0  0  0
 73 74  2  0  0  0
 73 76  1  0  0  0
 73145  1  0  0  0
 74 81  1  0  0  0
 75 76  2  0  0  0
 75 82  1  0  0  0
 76 80  1  0  0  0
 77 78  1  0  0  0
 77 81  1  0  0  0
 77 83  2  0  0  0
 78 79  1  0  0  0
 78146  1  0  0  0
 78147  1  0  0  0
 79148  1  0  0  0
 79149  1  0  0  0
 80150  1  0  0  0
 80151  1  0  0  0
 81152  1  0  0  0
 82153  1  0  0  0
M  ISO  4   1 100  68 101  79 101  82 100
M  END
> <chiral flag>
0

> <version>
0

> <s_m_source_file>
/data/baiqing/PycharmProjects/Reinvent-master-3.2/result/LINK_invent/BTK/process_docking_weight1_custom_sum_contain_oxygen_bond_distance_aromatic_linkinvent_7_9_3/rearranged_h_0004.sdf

> <i_m_source_file_index>
92

> <r_mmod_Potential_Energy-OPLS-2005>
-98.22021484375

> <r_mmod_Stretch_Energy-OPLS-2005>
74.9961166381836

> <r_mmod_Bend_Energy-OPLS-2005>
137.536575317383

> <r_mmod_Torsional_Energy-OPLS-2005>
232.070297241211

> <r_mmod_Improper_Torsional_Energy-OPLS-2005>
9.82467174530029

> <r_mmod_Van_der_Waal_Energy-OPLS-2005>
151.554443359375

> <r_mmod_Electrostatic_Energy-OPLS-2005>
-517.974914550781

> <r_mmod_Solvation_Energy-OPLS-2005>
-230.675491333008

> <b_mmod_Minimization_Converged-OPLS-2005>
0

> <r_mmod_RMS_Derivative-OPLS-2005>
2.41657280921936

$$$$
92
                    3D
 Structure written by MMmdl.
153161  0  0  1  0            999 V2000
  -30.5098  -15.0336   20.4757 C   0  0  0  0  0  0
  -30.4513  -12.6605   19.5081 C   0  0  0  0  0  0
  -29.5318  -12.5663   18.2647 C   0  0  0  0  0  0
  -28.0637  -12.3315   18.6691 C   0  0  0  0  0  0
  -27.6327  -13.2456   19.8427 C   0  0  2  0  0  0
  -28.6717  -13.2261   20.9760 C   0  0  0  0  0  0
  -25.2489  -13.8198   20.5710 C   0  0  0  0  0  0
  -24.1794  -13.0434   20.9217 C   0  0  0  0  0  0
  -24.6396  -11.6917   20.8730 C   0  0  0  0  0  0
  -23.9074  -10.4300   21.0403 C   0  0  0  0  0  0
  -24.3629   -9.4219   21.9181 C   0  0  0  0  0  0
  -23.6309   -8.2253   22.0754 C   0  0  0  0  0  0
  -22.4286   -8.0289   21.3550 C   0  0  0  0  0  0
  -21.9920   -9.0260   20.4646 C   0  0  0  0  0  0
  -22.7246  -10.2139   20.3054 C   0  0  0  0  0  0
  -21.6857   -6.0745   22.5287 C   0  0  0  0  0  0
  -21.4014   -6.5644   23.8223 C   0  0  0  0  0  0
  -21.3661   -5.6790   24.9180 C   0  0  0  0  0  0
  -21.6044   -4.3055   24.7225 C   0  0  0  0  0  0
  -21.8820   -3.8151   23.4345 C   0  0  0  0  0  0
  -21.9197   -4.6972   22.3403 C   0  0  0  0  0  0
  -22.7820  -13.5218   21.1876 C   0  0  0  0  0  0
  -22.1666   -4.2161   21.0980 F   0  0  0  0  0  0
  -21.5628   -3.4536   25.7735 F   0  0  0  0  0  0
  -29.9334  -13.7446   20.4079 N   0  0  0  0  0  0
  -26.2896  -12.9414   20.3216 N   0  0  0  0  0  0
  -25.9323  -11.6548   20.5693 N   0  0  0  0  0  0
  -22.0464  -12.8221   22.0432 N   0  0  0  0  0  0
  -25.4178  -15.1928   20.4174 N   0  0  0  0  0  0
  -31.6861  -15.0869   20.0930 O   0  0  0  0  0  0
  -21.6645   -6.8890   21.4249 O   0  0  0  0  0  0
  -22.3508  -14.5519   20.6714 O   0  0  0  0  0  0
  -24.6488  -31.8383   23.1837 C   0  0  0  0  0  0
  -25.9236  -32.4660   23.8243 C   0  0  1  0  0  0
  -27.2229  -27.0878   20.1515 C   0  0  0  0  0  0
  -25.5962  -33.8472   24.2156 N   0  0  0  0  0  0
  -23.4548  -30.4570   21.5300 C   0  0  2  0  0  0
  -24.9055  -28.8731   20.1123 C   0  0  0  0  0  0
  -22.7584  -29.4521   22.4831 C   0  0  0  0  0  0
  -18.0311  -28.1392   22.8489 C   0  0  0  0  0  0
  -24.1493  -36.7243   23.2643 C   0  0  0  0  0  0
  -26.0148  -30.6963   21.3893 C   0  0  0  0  0  0
  -26.0863  -29.3027   20.7308 C   0  0  0  0  0  0
  -27.2450  -28.4286   20.7305 C   0  0  0  0  0  0
  -26.0115  -26.7714   19.4971 C   0  0  0  0  0  0
  -24.8833  -27.6212   19.4808 C   0  0  0  0  0  0
  -23.6853  -29.7829   20.1515 C   0  0  0  0  0  0
  -25.4128  -36.3008   24.0307 C   0  0  1  0  0  0
  -20.5926  -28.3729   23.1224 C   0  0  2  0  0  0
  -20.6794  -26.9422   22.5409 C   0  0  0  0  0  0
  -19.5767  -26.6379   21.5217 C   0  0  0  0  0  0
  -18.1950  -26.7931   22.1633 C   0  0  0  0  0  0
  -19.1568  -28.8877   23.2849 C   0  0  0  0  0  0
  -18.9487  -30.1473   23.8877 C   0  0  0  0  0  0
  -17.6484  -30.6591   24.0565 C   0  0  0  0  0  0
  -25.9083  -34.9387   23.5041 C   0  0  0  0  0  0
  -16.5374  -29.9089   23.6340 C   0  0  0  0  0  0
  -16.7294  -28.6503   23.0365 C   0  0  0  0  0  0
  -26.4543  -31.6550   25.0704 C   0  0  0  0  0  0
  -25.3721  -31.3758   26.1394 C   0  0  0  0  0  0
  -27.0416  -30.2935   24.6329 C   0  0  0  0  0  0
  -27.6052  -32.4334   25.7504 C   0  0  0  0  0  0
  -27.5573  -37.1778   24.8462 C   0  0  0  0  0  0
  -21.4267  -29.3057   22.3591 N   0  0  0  0  0  0
  -26.4283  -37.3729   23.9404 N   0  0  0  0  0  0
  -24.7264  -31.0196   22.0893 N   0  0  0  0  0  0
  -23.4205  -28.8060   23.2992 O   0  0  0  0  0  0
  -28.2671  -26.0744   20.2083 O   0  0  0  0  0  0
  -26.5671  -34.8891   22.4622 O   0  0  0  0  0  0
  -23.5597  -32.1273   23.7030 O   0  0  0  0  0  0
  -30.3710  -19.7657   19.4493 C   0  0  0  0  0  0
  -29.7897  -17.7286   20.4237 C   0  0  0  0  0  0
  -30.6936  -18.4046   19.5314 C   0  0  0  0  0  0
  -28.9335  -18.8130   20.7915 C   0  0  0  0  0  0
  -29.1494  -16.0907   22.1988 C   0  0  0  0  0  0
  -28.9882  -23.1404   20.2446 C   0  0  0  0  0  0
  -28.4523  -21.5145   20.2768 C   0  0  0  0  0  0
  -27.9732  -24.5228   20.1086 C   0  0  0  0  0  0
  -29.2569  -20.1163   20.2240 N   0  0  0  0  0  0
  -29.7822  -16.2274   20.8786 N   0  0  0  0  0  0
  -31.7199  -17.8128   18.8575 O   0  0  0  0  0  0
  -27.8299  -18.7537   21.5852 O   0  0  0  0  0  0
  -31.4761  -12.8492   19.1850 H   0  0  0  0  0  0
  -30.4938  -11.7056   20.0345 H   0  0  0  0  0  0
  -29.8716  -11.7683   17.6037 H   0  0  0  0  0  0
  -29.6052  -13.4915   17.6913 H   0  0  0  0  0  0
  -27.9629  -11.2854   18.9610 H   0  0  0  0  0  0
  -27.4047  -12.4743   17.8120 H   0  0  0  0  0  0
  -27.6075  -14.2610   19.4456 H   0  0  0  0  0  0
  -28.7997  -12.2122   21.3583 H   0  0  0  0  0  0
  -28.3033  -13.7825   21.8286 H   0  0  0  0  0  0
  -25.2774   -9.5697   22.4754 H   0  0  0  0  0  0
  -24.0022   -7.4640   22.7469 H   0  0  0  0  0  0
  -21.0856   -8.8775   19.8949 H   0  0  0  0  0  0
  -22.3704  -10.9679   19.6167 H   0  0  0  0  0  0
  -21.2004   -7.6153   23.9733 H   0  0  0  0  0  0
  -21.1480   -6.0516   25.9085 H   0  0  0  0  0  0
  -22.0597   -2.7616   23.2836 H   0  0  0  0  0  0
  -22.4090  -11.9899   22.4833 H   0  0  0  0  0  0
  -21.1079  -13.1244   22.2627 H   0  0  0  0  0  0
  -24.6464  -15.8423   20.5259 H   0  0  0  0  0  0
  -26.2587  -15.6304   20.0631 H   0  0  0  0  0  0
  -26.7302  -32.5243   23.0967 H   0  0  0  0  0  0
  -25.0083  -33.9580   25.0288 H   0  0  0  0  0  0
  -22.7602  -31.2849   21.3720 H   0  0  0  0  0  0
  -23.3753  -35.9576   23.3283 H   0  0  0  0  0  0
  -24.3579  -36.8903   22.2062 H   0  0  0  0  0  0
  -23.7253  -37.6434   23.6703 H   0  0  0  0  0  0
  -26.1774  -31.4480   20.6157 H   0  0  0  0  0  0
  -26.8823  -30.7469   22.0357 H   0  0  0  0  0  0
  -28.1445  -28.7553   21.2336 H   0  0  0  0  0  0
  -25.8984  -25.8186   19.0044 H   0  0  0  0  0  0
  -23.9821  -27.2858   18.9861 H   0  0  0  0  0  0
  -23.8291  -30.5563   19.3962 H   0  0  0  0  0  0
  -22.7973  -29.2311   19.8376 H   0  0  0  0  0  0
  -25.1324  -36.1827   25.0799 H   0  0  0  0  0  0
  -21.0030  -28.3326   24.1337 H   0  0  0  0  0  0
  -20.5673  -26.2340   23.3634 H   0  0  0  0  0  0
  -21.6664  -26.7412   22.1215 H   0  0  0  0  0  0
  -19.6918  -25.6284   21.1258 H   0  0  0  0  0  0
  -19.6710  -27.3181   20.6739 H   0  0  0  0  0  0
  -17.4213  -26.6670   21.4039 H   0  0  0  0  0  0
  -18.0357  -26.0077   22.9035 H   0  0  0  0  0  0
  -19.7961  -30.7296   24.2236 H   0  0  0  0  0  0
  -17.5039  -31.6271   24.5169 H   0  0  0  0  0  0
  -15.5373  -30.2984   23.7679 H   0  0  0  0  0  0
  -15.8693  -28.0812   22.7095 H   0  0  0  0  0  0
  -24.5905  -30.7096   25.7720 H   0  0  0  0  0  0
  -24.8908  -32.2948   26.4748 H   0  0  0  0  0  0
  -25.8000  -30.8981   27.0217 H   0  0  0  0  0  0
  -26.3048  -29.6640   24.1323 H   0  0  0  0  0  0
  -27.3988  -29.7256   25.4932 H   0  0  0  0  0  0
  -27.8974  -30.4143   23.9683 H   0  0  0  0  0  0
  -27.2623  -33.3656   26.2012 H   0  0  0  0  0  0
  -28.3913  -32.6867   25.0376 H   0  0  0  0  0  0
  -28.0669  -31.8510   26.5490 H   0  0  0  0  0  0
  -28.2575  -38.0087   24.7509 H   0  0  0  0  0  0
  -28.1084  -36.2614   24.6293 H   0  0  0  0  0  0
  -27.2286  -37.1428   25.8862 H   0  0  0  0  0  0
  -20.9473  -29.8790   21.6789 H   0  0  0  0  0  0
  -26.0137  -38.2790   24.1416 H   0  0  0  0  0  0
  -30.8379  -20.5445   18.8612 H   0  0  0  0  0  0
  -28.0725  -15.9501   22.1019 H   0  0  0  0  0  0
  -29.3174  -16.9749   22.8136 H   0  0  0  0  0  0
  -29.5640  -15.2730   22.7929 H   0  0  0  0  0  0
  -29.7162  -23.2125   19.4363 H   0  0  0  0  0  0
  -29.5735  -23.2777   21.1535 H   0  0  0  0  0  0
  -27.7440  -21.4426   19.4508 H   0  0  0  0  0  0
  -27.8192  -21.4412   21.1610 H   0  0  0  0  0  0
  -27.1736  -24.3589   20.8308 H   0  0  0  0  0  0
  -27.4991  -24.3911   19.1368 H   0  0  0  0  0  0
  -32.2051  -18.4116   18.2981 H   0  0  0  0  0  0
  -27.7318  -17.8492   21.8614 H   0  0  0  0  0  0
  1 25  1  0  0  0
  1 30  2  0  0  0
  1 80  1  0  0  0
  2  3  1  0  0  0
  2 25  1  0  0  0
  2 83  1  0  0  0
  2 84  1  0  0  0
  3  4  1  0  0  0
  3 85  1  0  0  0
  3 86  1  0  0  0
  4  5  1  0  0  0
  4 87  1  0  0  0
  4 88  1  0  0  0
  5  6  1  0  0  0
  5 26  1  0  0  0
  5 89  1  0  0  0
  6 25  1  0  0  0
  6 90  1  0  0  0
  6 91  1  0  0  0
  7  8  2  0  0  0
  7 26  1  0  0  0
  7 29  1  0  0  0
  8  9  1  0  0  0
  8 22  1  0  0  0
  9 10  1  0  0  0
  9 27  2  0  0  0
 10 11  2  0  0  0
 10 15  1  0  0  0
 11 12  1  0  0  0
 11 92  1  0  0  0
 12 13  2  0  0  0
 12 93  1  0  0  0
 13 14  1  0  0  0
 13 31  1  0  0  0
 14 15  2  0  0  0
 14 94  1  0  0  0
 15 95  1  0  0  0
 16 17  2  0  0  0
 16 21  1  0  0  0
 16 31  1  0  0  0
 17 18  1  0  0  0
 17 96  1  0  0  0
 18 19  2  0  0  0
 18 97  1  0  0  0
 19 20  1  0  0  0
 19 24  1  0  0  0
 20 21  2  0  0  0
 20 98  1  0  0  0
 21 23  1  0  0  0
 22 28  1  0  0  0
 22 32  2  0  0  0
 26 27  1  0  0  0
 28 99  1  0  0  0
 28100  1  0  0  0
 29101  1  0  0  0
 29102  1  0  0  0
 33 34  1  0  0  0
 33 66  1  0  0  0
 33 70  2  0  0  0
 34 36  1  0  0  0
 34 59  1  0  0  0
 34103  1  0  0  0
 35 44  2  0  0  0
 35 45  1  0  0  0
 35 68  1  0  0  0
 36 56  1  0  0  0
 36104  1  0  0  0
 37 39  1  0  0  0
 37 47  1  0  0  0
 37 66  1  0  0  0
 37105  1  0  0  0
 38 43  2  0  0  0
 38 46  1  0  0  0
 38 47  1  0  0  0
 39 64  1  0  0  0
 39 67  2  0  0  0
 40 52  1  0  0  0
 40 53  2  0  0  0
 40 58  1  0  0  0
 41106  1  0  0  0
 41107  1  0  0  0
 41108  1  0  0  0
 41 48  1  0  0  0
 42 43  1  0  0  0
 42 66  1  0  0  0
 42109  1  0  0  0
 42110  1  0  0  0
 43 44  1  0  0  0
 44111  1  0  0  0
 45 46  2  0  0  0
 45112  1  0  0  0
 46113  1  0  0  0
 47114  1  0  0  0
 47115  1  0  0  0
 48 56  1  0  0  0
 48 65  1  0  0  0
 48116  1  0  0  0
 49 50  1  0  0  0
 49 53  1  0  0  0
 49 64  1  0  0  0
 49117  1  0  0  0
 50 51  1  0  0  0
 50118  1  0  0  0
 50119  1  0  0  0
 51 52  1  0  0  0
 51120  1  0  0  0
 51121  1  0  0  0
 52122  1  0  0  0
 52123  1  0  0  0
 53 54  1  0  0  0
 54 55  2  0  0  0
 54124  1  0  0  0
 55 57  1  0  0  0
 55125  1  0  0  0
 56 69  2  0  0  0
 57 58  2  0  0  0
 57126  1  0  0  0
 58127  1  0  0  0
 59 60  1  0  0  0
 59 61  1  0  0  0
 59 62  1  0  0  0
 60128  1  0  0  0
 60129  1  0  0  0
 60130  1  0  0  0
 61131  1  0  0  0
 61132  1  0  0  0
 61133  1  0  0  0
 62134  1  0  0  0
 62135  1  0  0  0
 62136  1  0  0  0
 63 65  1  0  0  0
 63137  1  0  0  0
 63138  1  0  0  0
 63139  1  0  0  0
 64140  1  0  0  0
 65141  1  0  0  0
 68 78  1  0  0  0
 71 73  2  0  0  0
 71 79  1  0  0  0
 71142  1  0  0  0
 72 73  1  0  0  0
 72 74  2  0  0  0
 72 80  1  0  0  0
 73 81  1  0  0  0
 74 79  1  0  0  0
 74 82  1  0  0  0
 75 80  1  0  0  0
 75143  1  0  0  0
 75144  1  0  0  0
 75145  1  0  0  0
 76 77  1  0  0  0
 76 78  1  0  0  0
 76146  1  0  0  0
 76147  1  0  0  0
 77 79  1  0  0  0
 77148  1  0  0  0
 77149  1  0  0  0
 78150  1  0  0  0
 78151  1  0  0  0
 81152  1  0  0  0
 82153  1  0  0  0
M  ISO  4   1 100  68 101  78 101  80 100
M  END
> <chiral flag>
0

> <version>
0

> <s_m_source_file>
/data/baiqing/PycharmProjects/Reinvent-master-3.2/result/LINK_invent/BTK/process_docking_weight1_custom_sum_contain_oxygen_bond_distance_aromatic_linkinvent_7_9_3/rearranged_h_0004.sdf

> <i_m_source_file_index>
93

> <r_mmod_Potential_Energy-OPLS-2005>
688.494445800781

> <r_mmod_Stretch_Energy-OPLS-2005>
329.322021484375

> <r_mmod_Bend_Energy-OPLS-2005>
319.969207763672

> <r_mmod_Torsional_Energy-OPLS-2005>
283.635375976562

> <r_mmod_Improper_Torsional_Energy-OPLS-2005>
4.03417491912842

> <r_mmod_Van_der_Waal_Energy-OPLS-2005>
121.621948242188

> <r_mmod_Electrostatic_Energy-OPLS-2005>
-365.804290771484

> <r_mmod_Solvation_Energy-OPLS-2005>
-241.335144042969

> <b_mmod_Minimization_Converged-OPLS-2005>
0

> <r_mmod_RMS_Derivative-OPLS-2005>
1.16292059421539

$$$$
93
                    3D
 Structure written by MMmdl.
176184  0  0  1  0            999 V2000
  -30.0358  -15.4357   20.7196 C   0  0  0  0  0  0
  -30.3342  -13.0117   19.6796 C   0  0  0  0  0  0
  -29.5184  -12.6859   18.3980 C   0  0  0  0  0  0
  -28.0867  -12.2835   18.7708 C   0  0  0  0  0  0
  -27.5400  -13.2492   19.8432 C   0  0  2  0  0  0
  -28.4575  -13.4134   21.0561 C   0  0  0  0  0  0
  -25.2052  -13.8280   20.5605 C   0  0  0  0  0  0
  -24.1299  -13.0304   20.9241 C   0  0  0  0  0  0
  -24.5958  -11.6945   20.8717 C   0  0  0  0  0  0
  -23.8755  -10.4236   21.0417 C   0  0  0  0  0  0
  -24.3447   -9.4216   21.9166 C   0  0  0  0  0  0
  -23.6176   -8.2209   22.0743 C   0  0  0  0  0  0
  -22.4160   -8.0221   21.3544 C   0  0  0  0  0  0
  -21.9719   -9.0142   20.4659 C   0  0  0  0  0  0
  -22.6980  -10.2068   20.3044 C   0  0  0  0  0  0
  -21.6820   -6.0668   22.5270 C   0  0  0  0  0  0
  -21.4027   -6.5604   23.8204 C   0  0  0  0  0  0
  -21.3652   -5.6769   24.9160 C   0  0  0  0  0  0
  -21.6062   -4.3036   24.7231 C   0  0  0  0  0  0
  -21.8837   -3.8101   23.4356 C   0  0  0  0  0  0
  -21.9188   -4.6914   22.3386 C   0  0  0  0  0  0
  -22.7494  -13.5369   21.1925 C   0  0  0  0  0  0
  -22.1641   -4.2097   21.0977 F   0  0  0  0  0  0
  -21.5610   -3.4510   25.7739 F   0  0  0  0  0  0
  -29.6259  -14.0748   20.5248 N   0  0  0  0  0  0
  -26.2112  -12.9239   20.2905 N   0  0  0  0  0  0
  -25.8824  -11.6439   20.5554 N   0  0  0  0  0  0
  -22.0116  -12.8225   22.0593 N   0  0  0  0  0  0
  -25.3903  -15.1836   20.4273 N   0  0  0  0  0  0
  -31.2612  -15.4848   20.4523 O   0  0  0  0  0  0
  -21.6605   -6.8752   21.4203 O   0  0  0  0  0  0
  -22.3195  -14.5570   20.6845 O   0  0  0  0  0  0
  -24.8482  -32.0372   23.1027 C   0  0  0  0  0  0
  -26.1506  -32.5018   23.8471 C   0  0  1  0  0  0
  -26.9001  -27.3417   19.9381 C   0  0  0  0  0  0
  -25.9451  -33.8931   24.3233 N   0  0  0  0  0  0
  -23.5604  -30.3753   21.6359 C   0  0  2  0  0  0
  -25.0352  -29.2889   19.8241 C   0  0  0  0  0  0
  -23.0651  -29.1144   22.5688 C   0  0  0  0  0  0
  -18.0200  -28.1342   22.4160 C   0  0  0  0  0  0
  -24.1864  -36.6901   23.2640 C   0  0  0  0  0  0
  -26.0830  -30.6549   21.5890 C   0  0  0  0  0  0
  -26.0908  -29.4489   20.7069 C   0  0  0  0  0  0
  -27.0882  -28.4618   20.7749 C   0  0  0  0  0  0
  -26.2894  -27.5501   18.7227 C   0  0  0  0  0  0
  -25.1455  -28.3669   18.7786 C   0  0  0  0  0  0
  -23.8728  -30.1830   20.0722 C   0  0  0  0  0  0
  -25.4608  -36.3045   24.0485 C   0  0  1  0  0  0
  -20.5401  -27.9134   23.3145 C   0  0  2  0  0  0
  -20.4323  -26.4793   22.8861 C   0  0  0  0  0  0
  -19.5443  -26.1853   21.6874 C   0  0  0  0  0  0
  -18.2356  -26.9351   21.5324 C   0  0  0  0  0  0
  -19.0412  -28.5250   23.2872 C   0  0  0  0  0  0
  -18.3789  -29.0941   24.3930 C   0  0  0  0  0  0
  -17.2809  -29.9796   24.3628 C   0  0  0  0  0  0
  -26.0049  -34.9621   23.5258 C   0  0  0  0  0  0
  -16.4328  -29.8356   23.2845 C   0  0  0  0  0  0
  -16.7425  -28.7780   22.4101 C   0  0  0  0  0  0
  -26.5437  -31.6301   25.1237 C   0  0  0  0  0  0
  -25.4712  -31.4392   26.1926 C   0  0  0  0  0  0
  -27.0462  -30.2247   24.7538 C   0  0  0  0  0  0
  -27.6153  -32.3105   25.9094 C   0  0  0  0  0  0
  -27.5923  -37.2069   24.8461 C   0  0  0  0  0  0
  -21.7375  -28.6450   22.6602 N   0  0  0  0  0  0
  -26.4555  -37.3935   23.9493 N   0  0  0  0  0  0
  -24.8051  -30.9998   22.2168 N   0  0  0  0  0  0
  -23.9288  -28.6407   23.2795 O   0  0  0  0  0  0
  -26.1750  -26.3145   20.4788 O   0  0  0  0  0  0
  -26.4864  -34.8885   22.3929 O   0  0  0  0  0  0
  -23.8872  -32.7400   23.3597 O   0  0  0  0  0  0
  -22.6310  -30.5523   24.8716 C   0  0  0  0  0  0
  -20.7680  -29.8559   25.5018 C   0  0  0  0  0  0
  -21.9069  -31.4071   23.9017 C   0  0  0  0  0  0
  -20.1631  -30.8437   24.4746 C   0  0  0  0  0  0
  -22.1094  -29.2892   25.2988 C   0  0  0  0  0  0
  -20.7864  -30.9518   23.1629 C   0  0  0  0  0  0
  -24.2896  -25.3355   24.1408 C   0  0  0  0  0  0
  -22.9161  -27.7036   25.5303 C   0  0  0  0  0  0
  -24.4080  -23.7496   23.2754 C   0  0  0  0  0  0
  -25.7457  -22.4451   23.0471 C   0  0  0  0  0  0
  -26.0294  -20.7117   22.3309 C   0  0  0  0  0  0
  -27.4896  -19.5398   21.9754 C   0  0  0  0  0  0
  -21.8910  -27.9883   19.8917 C   0  0  0  0  0  0
  -23.2006  -27.0018   20.6034 C   0  0  0  0  0  0
  -27.8591  -17.7523   21.3793 C   0  0  0  0  0  0
  -20.7446  -29.3001   20.4825 C   0  0  0  0  0  0
  -24.5886  -26.1208   20.1175 C   0  0  0  0  0  0
  -23.1785  -26.2608   24.6173 N   0  0  0  0  0  0
  -29.2730  -16.7337   21.1196 N   0  0  0  0  0  0
  -25.4069  -25.7668   24.3840 O   0  0  0  0  0  0
  -20.5571  -30.5614   21.6400 O   0  0  0  0  0  0
  -31.3156  -13.3522   19.3734 H   0  0  0  0  0  0
  -30.5191  -12.1199   20.2761 H   0  0  0  0  0  0
  -30.0112  -11.9196   17.8041 H   0  0  0  0  0  0
  -29.4837  -13.5856   17.7847 H   0  0  0  0  0  0
  -28.1151  -11.2693   19.1694 H   0  0  0  0  0  0
  -27.4459  -12.2535   17.8878 H   0  0  0  0  0  0
  -27.4574  -14.2121   19.3357 H   0  0  0  0  0  0
  -28.6724  -12.4584   21.5400 H   0  0  0  0  0  0
  -27.9709  -14.0374   21.8069 H   0  0  0  0  0  0
  -25.2572   -9.5781   22.4723 H   0  0  0  0  0  0
  -23.9963   -7.4627   22.7438 H   0  0  0  0  0  0
  -21.0653   -8.8619   19.8917 H   0  0  0  0  0  0
  -22.3399  -10.9588   19.6161 H   0  0  0  0  0  0
  -21.2050   -7.6129   23.9703 H   0  0  0  0  0  0
  -21.1422   -6.0482   25.9069 H   0  0  0  0  0  0
  -22.0616   -2.7567   23.2864 H   0  0  0  0  0  0
  -22.3741  -11.9888   22.4862 H   0  0  0  0  0  0
  -21.0801  -13.1280   22.2904 H   0  0  0  0  0  0
  -24.6713  -15.8852   20.5597 H   0  0  0  0  0  0
  -26.2746  -15.5769   20.1100 H   0  0  0  0  0  0
  -26.9861  -32.5191   23.1310 H   0  0  0  0  0  0
  -25.7282  -34.0323   25.3012 H   0  0  0  0  0  0
  -22.8358  -31.1701   21.6321 H   0  0  0  0  0  0
  -23.4649  -35.8728   23.2710 H   0  0  0  0  0  0
  -24.3959  -36.9091   22.2170 H   0  0  0  0  0  0
  -23.6817  -37.5594   23.6840 H   0  0  0  0  0  0
  -26.4940  -31.4871   21.0061 H   0  0  0  0  0  0
  -26.7852  -30.3894   22.3554 H   0  0  0  0  0  0
  -27.7447  -28.4134   21.6274 H   0  0  0  0  0  0
  -26.3948  -26.8292   17.9187 H   0  0  0  0  0  0
  -24.3630  -28.2469   18.0471 H   0  0  0  0  0  0
  -24.2637  -31.1484   19.7450 H   0  0  0  0  0  0
  -23.1099  -30.1939   19.2914 H   0  0  0  0  0  0
  -25.1696  -36.2051   25.1009 H   0  0  0  0  0  0
  -20.7058  -27.7444   24.3632 H   0  0  0  0  0  0
  -19.9848  -25.9617   23.7518 H   0  0  0  0  0  0
  -21.3668  -25.9584   22.8144 H   0  0  0  0  0  0
  -19.2234  -25.1580   21.8182 H   0  0  0  0  0  0
  -20.1188  -26.1496   20.7624 H   0  0  0  0  0  0
  -18.2940  -27.2705   20.4919 H   0  0  0  0  0  0
  -17.3863  -26.2611   21.6044 H   0  0  0  0  0  0
  -18.7428  -28.7388   25.3376 H   0  0  0  0  0  0
  -16.8646  -30.3592   25.2831 H   0  0  0  0  0  0
  -15.4536  -30.3005   23.2725 H   0  0  0  0  0  0
  -15.9872  -28.4713   21.6988 H   0  0  0  0  0  0
  -24.8534  -31.0629   25.4362 H   0  0  0  0  0  0
  -25.0109  -32.3233   26.6745 H   0  0  0  0  0  0
  -25.4166  -30.5386   26.8071 H   0  0  0  0  0  0
  -26.3149  -29.5694   24.2712 H   0  0  0  0  0  0
  -27.3262  -29.6914   25.6626 H   0  0  0  0  0  0
  -27.9277  -30.3261   24.1324 H   0  0  0  0  0  0
  -27.2527  -33.2362   26.3615 H   0  0  0  0  0  0
  -28.4471  -32.4973   25.2463 H   0  0  0  0  0  0
  -27.8858  -31.6385   26.7312 H   0  0  0  0  0  0
  -28.2238  -38.0949   24.8300 H   0  0  0  0  0  0
  -28.2223  -36.3641   24.5611 H   0  0  0  0  0  0
  -27.2709  -37.0639   25.8780 H   0  0  0  0  0  0
  -21.2232  -29.3404   22.1275 H   0  0  0  0  0  0
  -26.0378  -38.2875   24.1882 H   0  0  0  0  0  0
  -22.9672  -31.1276   25.7242 H   0  0  0  0  0  0
  -20.2867  -29.4790   26.4101 H   0  0  0  0  0  0
  -21.7933  -32.4411   24.3008 H   0  0  0  0  0  0
  -19.2490  -31.4830   24.5327 H   0  0  0  0  0  0
  -22.2850  -27.3178   26.3290 H   0  0  0  0  0  0
  -23.8438  -27.9395   26.0680 H   0  0  0  0  0  0
  -24.2155  -24.0722   22.2508 H   0  0  0  0  0  0
  -23.5037  -23.1989   23.5314 H   0  0  0  0  0  0
  -26.0783  -22.3262   24.0764 H   0  0  0  0  0  0
  -26.5347  -23.0423   22.5939 H   0  0  0  0  0  0
  -25.4234  -20.1210   23.0258 H   0  0  0  0  0  0
  -25.4351  -20.6976   21.3981 H   0  0  0  0  0  0
  -28.0218  -19.5661   22.9218 H   0  0  0  0  0  0
  -28.0938  -20.1724   21.3155 H   0  0  0  0  0  0
  -21.2344  -27.2417   19.4229 H   0  0  0  0  0  0
  -22.3335  -28.3204   18.9583 H   0  0  0  0  0  0
  -22.7652  -26.3924   21.3810 H   0  0  0  0  0  0
  -23.9164  -27.5922   21.1036 H   0  0  0  0  0  0
  -27.3569  -17.7109   20.4135 H   0  0  0  0  0  0
  -27.2372  -17.1273   22.0176 H   0  0  0  0  0  0
  -21.7237  -29.5631   20.5759 H   0  0  0  0  0  0
  -20.1042  -28.5545   20.9191 H   0  0  0  0  0  0
  -24.4519  -26.0394   19.0303 H   0  0  0  0  0  0
  -24.3862  -25.1041   20.4486 H   0  0  0  0  0  0
  -22.2853  -25.8265   24.4514 H   0  0  0  0  0  0
  -30.0495  -17.3719   21.1953 H   0  0  0  0  0  0
  1 25  1  0  0  0
  1 30  2  0  0  0
  1 89  1  0  0  0
  2  3  1  0  0  0
  2 25  1  0  0  0
  2 92  1  0  0  0
  2 93  1  0  0  0
  3  4  1  0  0  0
  3 94  1  0  0  0
  3 95  1  0  0  0
  4  5  1  0  0  0
  4 96  1  0  0  0
  4 97  1  0  0  0
  5  6  1  0  0  0
  5 26  1  0  0  0
  5 98  1  0  0  0
  6 25  1  0  0  0
  6 99  1  0  0  0
  6100  1  0  0  0
  7  8  2  0  0  0
  7 26  1  0  0  0
  7 29  1  0  0  0
  8  9  1  0  0  0
  8 22  1  0  0  0
  9 10  1  0  0  0
  9 27  2  0  0  0
 10 11  2  0  0  0
 10 15  1  0  0  0
 11 12  1  0  0  0
 11101  1  0  0  0
 12 13  2  0  0  0
 12102  1  0  0  0
 13 14  1  0  0  0
 13 31  1  0  0  0
 14 15  2  0  0  0
 14103  1  0  0  0
 15104  1  0  0  0
 16 17  2  0  0  0
 16 21  1  0  0  0
 16 31  1  0  0  0
 17 18  1  0  0  0
 17105  1  0  0  0
 18 19  2  0  0  0
 18106  1  0  0  0
 19 20  1  0  0  0
 19 24  1  0  0  0
 20 21  2  0  0  0
 20107  1  0  0  0
 21 23  1  0  0  0
 22 28  1  0  0  0
 22 32  2  0  0  0
 26 27  1  0  0  0
 28108  1  0  0  0
 28109  1  0  0  0
 29110  1  0  0  0
 29111  1  0  0  0
 33 34  1  0  0  0
 33 66  1  0  0  0
 33 70  2  0  0  0
 34 36  1  0  0  0
 34 59  1  0  0  0
 34112  1  0  0  0
 35 44  2  0  0  0
 35 45  1  0  0  0
 35 68  1  0  0  0
 36 56  1  0  0  0
 36113  1  0  0  0
 37 39  1  0  0  0
 37 47  1  0  0  0
 37 66  1  0  0  0
 37114  1  0  0  0
 38 43  2  0  0  0
 38 46  1  0  0  0
 38 47  1  0  0  0
 39 64  1  0  0  0
 39 67  2  0  0  0
 40 52  1  0  0  0
 40 53  2  0  0  0
 40 58  1  0  0  0
 41115  1  0  0  0
 41116  1  0  0  0
 41117  1  0  0  0
 41 48  1  0  0  0
 42 43  1  0  0  0
 42 66  1  0  0  0
 42118  1  0  0  0
 42119  1  0  0  0
 43 44  1  0  0  0
 44120  1  0  0  0
 45 46  2  0  0  0
 45121  1  0  0  0
 46122  1  0  0  0
 47123  1  0  0  0
 47124  1  0  0  0
 48 56  1  0  0  0
 48 65  1  0  0  0
 48125  1  0  0  0
 49 50  1  0  0  0
 49 53  1  0  0  0
 49 64  1  0  0  0
 49126  1  0  0  0
 50 51  1  0  0  0
 50127  1  0  0  0
 50128  1  0  0  0
 51 52  1  0  0  0
 51129  1  0  0  0
 51130  1  0  0  0
 52131  1  0  0  0
 52132  1  0  0  0
 53 54  1  0  0  0
 54 55  2  0  0  0
 54133  1  0  0  0
 55 57  1  0  0  0
 55134  1  0  0  0
 56 69  2  0  0  0
 57 58  2  0  0  0
 57135  1  0  0  0
 58136  1  0  0  0
 59 60  1  0  0  0
 59 61  1  0  0  0
 59 62  1  0  0  0
 60137  1  0  0  0
 60138  1  0  0  0
 60139  1  0  0  0
 61140  1  0  0  0
 61141  1  0  0  0
 61142  1  0  0  0
 62143  1  0  0  0
 62144  1  0  0  0
 62145  1  0  0  0
 63 65  1  0  0  0
 63146  1  0  0  0
 63147  1  0  0  0
 63148  1  0  0  0
 64149  1  0  0  0
 65150  1  0  0  0
 68 87  1  0  0  0
 71 73  2  0  0  0
 71 75  1  0  0  0
 71151  1  0  0  0
 72 74  1  0  0  0
 72 75  2  0  0  0
 72152  1  0  0  0
 73 76  1  0  0  0
 73153  1  0  0  0
 74 76  2  0  0  0
 74154  1  0  0  0
 75 78  1  0  0  0
 76 91  1  0  0  0
 77 79  1  0  0  0
 77 88  1  0  0  0
 77 90  2  0  0  0
 78 88  1  0  0  0
 78155  1  0  0  0
 78156  1  0  0  0
 79 80  1  0  0  0
 79157  1  0  0  0
 79158  1  0  0  0
 80 81  1  0  0  0
 80159  1  0  0  0
 80160  1  0  0  0
 81 82  1  0  0  0
 81161  1  0  0  0
 81162  1  0  0  0
 82 85  1  0  0  0
 82163  1  0  0  0
 82164  1  0  0  0
 83 84  1  0  0  0
 83 86  1  0  0  0
 83165  1  0  0  0
 83166  1  0  0  0
 84 87  1  0  0  0
 84167  1  0  0  0
 84168  1  0  0  0
 85 89  1  0  0  0
 85169  1  0  0  0
 85170  1  0  0  0
 86 91  1  0  0  0
 86171  1  0  0  0
 86172  1  0  0  0
 87173  1  0  0  0
 87174  1  0  0  0
 88175  1  0  0  0
 89176  1  0  0  0
M  ISO  4   1 100  68 101  87 101  89 100
M  END
> <chiral flag>
0

> <version>
0

> <s_m_source_file>
/data/baiqing/PycharmProjects/Reinvent-master-3.2/result/LINK_invent/BTK/process_docking_weight1_custom_sum_contain_oxygen_bond_distance_aromatic_linkinvent_7_9_3/rearranged_h_0004.sdf

> <i_m_source_file_index>
94

> <r_mmod_Potential_Energy-OPLS-2005>
7324.05029296875

> <r_mmod_Stretch_Energy-OPLS-2005>
2007.35095214844

> <r_mmod_Bend_Energy-OPLS-2005>
1975.30151367188

> <r_mmod_Torsional_Energy-OPLS-2005>
995.700744628906

> <r_mmod_Improper_Torsional_Energy-OPLS-2005>
46.0060958862305

> <r_mmod_Van_der_Waal_Energy-OPLS-2005>
967.873352050781

> <r_mmod_Electrostatic_Energy-OPLS-2005>
-436.346649169922

> <r_mmod_Solvation_Energy-OPLS-2005>
-241.406814575195

> <b_mmod_Minimization_Converged-OPLS-2005>
0

> <r_mmod_RMS_Derivative-OPLS-2005>
36.7251129150391

$$$$
94
                    3D
 Structure written by MMmdl.
158167  0  0  1  0            999 V2000
  -30.5388  -15.0959   20.3832 C   0  0  0  0  0  0
  -30.4288  -12.7014   19.4910 C   0  0  0  0  0  0
  -29.5142  -12.5258   18.2594 C   0  0  0  0  0  0
  -28.0629  -12.2730   18.7039 C   0  0  0  0  0  0
  -27.6110  -13.2514   19.8189 C   0  0  2  0  0  0
  -28.6567  -13.3755   20.9477 C   0  0  0  0  0  0
  -25.2348  -13.8193   20.5677 C   0  0  0  0  0  0
  -24.1711  -13.0418   20.9264 C   0  0  0  0  0  0
  -24.6353  -11.6907   20.8792 C   0  0  0  0  0  0
  -23.9055  -10.4275   21.0419 C   0  0  0  0  0  0
  -24.3615   -9.4192   21.9187 C   0  0  0  0  0  0
  -23.6295   -8.2228   22.0754 C   0  0  0  0  0  0
  -22.4270   -8.0275   21.3552 C   0  0  0  0  0  0
  -21.9903   -9.0243   20.4649 C   0  0  0  0  0  0
  -22.7230  -10.2122   20.3060 C   0  0  0  0  0  0
  -21.6847   -6.0734   22.5273 C   0  0  0  0  0  0
  -21.4021   -6.5634   23.8214 C   0  0  0  0  0  0
  -21.3656   -5.6786   24.9175 C   0  0  0  0  0  0
  -21.6038   -4.3050   24.7221 C   0  0  0  0  0  0
  -21.8814   -3.8140   23.4339 C   0  0  0  0  0  0
  -21.9203   -4.6964   22.3398 C   0  0  0  0  0  0
  -22.7728  -13.5199   21.1892 C   0  0  0  0  0  0
  -22.1663   -4.2147   21.0980 F   0  0  0  0  0  0
  -21.5629   -3.4534   25.7733 F   0  0  0  0  0  0
  -29.8961  -13.8428   20.3087 N   0  0  0  0  0  0
  -26.2787  -12.9450   20.3204 N   0  0  0  0  0  0
  -25.9285  -11.6583   20.5755 N   0  0  0  0  0  0
  -22.0370  -12.8228   22.0464 N   0  0  0  0  0  0
  -25.3862  -15.1908   20.3972 N   0  0  0  0  0  0
  -31.7649  -15.0306   20.2219 O   0  0  0  0  0  0
  -21.6640   -6.8873   21.4233 O   0  0  0  0  0  0
  -22.3419  -14.5489   20.6701 O   0  0  0  0  0  0
  -24.6492  -31.8361   23.1778 C   0  0  0  0  0  0
  -25.9242  -32.4650   23.8180 C   0  0  1  0  0  0
  -27.2168  -27.0530   20.1730 C   0  0  0  0  0  0
  -25.5965  -33.8453   24.2120 N   0  0  0  0  0  0
  -23.4567  -30.4507   21.5249 C   0  0  2  0  0  0
  -24.9043  -28.8510   20.1194 C   0  0  0  0  0  0
  -22.7592  -29.4508   22.4812 C   0  0  0  0  0  0
  -18.0319  -28.1404   22.8467 C   0  0  0  0  0  0
  -24.1487  -36.7237   23.2638 C   0  0  0  0  0  0
  -26.0160  -30.6861   21.3820 C   0  0  0  0  0  0
  -26.0859  -29.2836   20.7347 C   0  0  0  0  0  0
  -27.2443  -28.4051   20.7322 C   0  0  0  0  0  0
  -26.0044  -26.7302   19.5303 C   0  0  0  0  0  0
  -24.8801  -27.5902   19.5001 C   0  0  0  0  0  0
  -23.6866  -29.7666   20.1499 C   0  0  0  0  0  0
  -25.4117  -36.2998   24.0304 C   0  0  1  0  0  0
  -20.5929  -28.3726   23.1215 C   0  0  2  0  0  0
  -20.6799  -26.9426   22.5398 C   0  0  0  0  0  0
  -19.5777  -26.6386   21.5204 C   0  0  0  0  0  0
  -18.1956  -26.7939   22.1616 C   0  0  0  0  0  0
  -19.1576  -28.8887   23.2832 C   0  0  0  0  0  0
  -18.9489  -30.1478   23.8864 C   0  0  0  0  0  0
  -17.6489  -30.6596   24.0562 C   0  0  0  0  0  0
  -25.9073  -34.9389   23.5026 C   0  0  0  0  0  0
  -16.5378  -29.9088   23.6349 C   0  0  0  0  0  0
  -16.7302  -28.6508   23.0360 C   0  0  0  0  0  0
  -26.4542  -31.6549   25.0657 C   0  0  0  0  0  0
  -25.3721  -31.3781   26.1358 C   0  0  0  0  0  0
  -27.0415  -30.2935   24.6285 C   0  0  0  0  0  0
  -27.6046  -32.4338   25.7466 C   0  0  0  0  0  0
  -27.5574  -37.1751   24.8458 C   0  0  0  0  0  0
  -21.4274  -29.3043   22.3578 N   0  0  0  0  0  0
  -26.4266  -37.3733   23.9430 N   0  0  0  0  0  0
  -24.7288  -31.0138   22.0840 N   0  0  0  0  0  0
  -23.4204  -28.8075   23.3013 O   0  0  0  0  0  0
  -28.2910  -26.0699   20.1077 O   0  0  0  0  0  0
  -26.5656  -34.8919   22.4608 O   0  0  0  0  0  0
  -23.5600  -32.1262   23.6962 O   0  0  0  0  0  0
  -26.7213  -18.4659   23.4413 C   0  0  0  0  0  0
  -26.9357  -19.8430   23.3472 C   0  0  0  0  0  0
  -27.2691  -17.6081   22.4777 C   0  0  0  0  0  0
  -27.7060  -20.3595   22.2954 C   0  0  0  0  0  0
  -28.0428  -18.0751   21.3858 C   0  0  0  0  0  0
  -28.2715  -19.5349   21.2854 C   0  0  0  0  0  0
  -29.2854  -21.6643   20.0975 C   0  0  0  0  0  0
  -28.4876  -16.8761   20.4300 C   0  0  0  0  0  0
  -30.0255  -19.1477   19.6315 C   0  0  0  0  0  0
  -30.6262  -17.7940   20.3955 C   0  0  0  0  0  0
  -28.1849  -22.9568   20.1049 C   0  0  0  0  0  0
  -28.3323  -24.5864   20.6917 C   0  0  0  0  0  0
  -29.1365  -20.2165   20.3181 N   0  0  0  0  0  0
  -29.9113  -16.4237   20.4012 N   0  0  0  0  0  0
  -30.4207  -22.0478   19.7990 O   0  0  0  0  0  0
  -31.4512  -12.8749   19.1518 H   0  0  0  0  0  0
  -30.4722  -11.7843   20.0809 H   0  0  0  0  0  0
  -29.8678  -11.6992   17.6409 H   0  0  0  0  0  0
  -29.5584  -13.4198   17.6356 H   0  0  0  0  0  0
  -28.0126  -11.2496   19.0797 H   0  0  0  0  0  0
  -27.3861  -12.3109   17.8499 H   0  0  0  0  0  0
  -27.5415  -14.2202   19.3275 H   0  0  0  0  0  0
  -28.8019  -12.4199   21.4536 H   0  0  0  0  0  0
  -28.3302  -14.0800   21.7130 H   0  0  0  0  0  0
  -25.2755   -9.5682   22.4760 H   0  0  0  0  0  0
  -23.9997   -7.4626   22.7474 H   0  0  0  0  0  0
  -21.0830   -8.8761   19.8964 H   0  0  0  0  0  0
  -22.3676  -10.9663   19.6172 H   0  0  0  0  0  0
  -21.2011   -7.6139   23.9723 H   0  0  0  0  0  0
  -21.1479   -6.0508   25.9078 H   0  0  0  0  0  0
  -22.0600   -2.7598   23.2838 H   0  0  0  0  0  0
  -22.3996  -11.9922   22.4904 H   0  0  0  0  0  0
  -21.0973  -13.1230   22.2634 H   0  0  0  0  0  0
  -24.6012  -15.8256   20.4976 H   0  0  0  0  0  0
  -26.2023  -15.6316   19.9996 H   0  0  0  0  0  0
  -26.7308  -32.5234   23.0900 H   0  0  0  0  0  0
  -25.0140  -33.9535   25.0293 H   0  0  0  0  0  0
  -22.7630  -31.2791   21.3593 H   0  0  0  0  0  0
  -23.3758  -35.9556   23.3247 H   0  0  0  0  0  0
  -24.3582  -36.8931   22.2066 H   0  0  0  0  0  0
  -23.7239  -37.6416   23.6710 H   0  0  0  0  0  0
  -26.1702  -31.4322   20.6008 H   0  0  0  0  0  0
  -26.8869  -30.7471   22.0228 H   0  0  0  0  0  0
  -28.1577  -28.7443   21.1995 H   0  0  0  0  0  0
  -25.9206  -25.7683   19.0445 H   0  0  0  0  0  0
  -23.9809  -27.2552   18.9997 H   0  0  0  0  0  0
  -23.8285  -30.5323   19.3854 H   0  0  0  0  0  0
  -22.7994  -29.2101   19.8416 H   0  0  0  0  0  0
  -25.1315  -36.1785   25.0788 H   0  0  0  0  0  0
  -21.0019  -28.3319   24.1337 H   0  0  0  0  0  0
  -20.5692  -26.2343   23.3616 H   0  0  0  0  0  0
  -21.6664  -26.7440   22.1201 H   0  0  0  0  0  0
  -19.6944  -25.6290   21.1253 H   0  0  0  0  0  0
  -19.6717  -27.3182   20.6714 H   0  0  0  0  0  0
  -17.4227  -26.6673   21.4019 H   0  0  0  0  0  0
  -18.0362  -26.0093   22.9023 H   0  0  0  0  0  0
  -19.7965  -30.7300   24.2205 H   0  0  0  0  0  0
  -17.5046  -31.6270   24.5173 H   0  0  0  0  0  0
  -15.5375  -30.2987   23.7688 H   0  0  0  0  0  0
  -15.8693  -28.0819   22.7093 H   0  0  0  0  0  0
  -24.5870  -30.7166   25.7684 H   0  0  0  0  0  0
  -24.8951  -32.2989   26.4720 H   0  0  0  0  0  0
  -25.7990  -30.8985   27.0176 H   0  0  0  0  0  0
  -26.3040  -29.6634   24.1299 H   0  0  0  0  0  0
  -27.4031  -29.7265   25.4872 H   0  0  0  0  0  0
  -27.8948  -30.4166   23.9614 H   0  0  0  0  0  0
  -27.2605  -33.3655   26.1975 H   0  0  0  0  0  0
  -28.3897  -32.6876   25.0332 H   0  0  0  0  0  0
  -28.0670  -31.8515   26.5449 H   0  0  0  0  0  0
  -28.2542  -38.0093   24.7551 H   0  0  0  0  0  0
  -28.1113  -36.2622   24.6210 H   0  0  0  0  0  0
  -27.2300  -37.1319   25.8860 H   0  0  0  0  0  0
  -20.9482  -29.8718   21.6722 H   0  0  0  0  0  0
  -26.0111  -38.2782   24.1483 H   0  0  0  0  0  0
  -26.1459  -18.0646   24.2653 H   0  0  0  0  0  0
  -26.5266  -20.5022   24.1006 H   0  0  0  0  0  0
  -27.0720  -16.5501   22.5979 H   0  0  0  0  0  0
  -27.8843  -21.4227   22.3272 H   0  0  0  0  0  0
  -28.1800  -17.1122   19.4107 H   0  0  0  0  0  0
  -27.8923  -16.0057   20.6785 H   0  0  0  0  0  0
  -29.5217  -18.8515   18.7116 H   0  0  0  0  0  0
  -30.9098  -19.6728   19.2708 H   0  0  0  0  0  0
  -31.5936  -17.6046   19.9305 H   0  0  0  0  0  0
  -30.8685  -18.0511   21.4265 H   0  0  0  0  0  0
  -27.2640  -22.5635   20.5348 H   0  0  0  0  0  0
  -27.9219  -23.0609   19.0528 H   0  0  0  0  0  0
  -29.3124  -24.5746   21.1688 H   0  0  0  0  0  0
  -27.6498  -24.6357   21.5410 H   0  0  0  0  0  0
  1 25  1  0  0  0
  1 30  2  0  0  0
  1 84  1  0  0  0
  2  3  1  0  0  0
  2 25  1  0  0  0
  2 86  1  0  0  0
  2 87  1  0  0  0
  3  4  1  0  0  0
  3 88  1  0  0  0
  3 89  1  0  0  0
  4  5  1  0  0  0
  4 90  1  0  0  0
  4 91  1  0  0  0
  5  6  1  0  0  0
  5 26  1  0  0  0
  5 92  1  0  0  0
  6 25  1  0  0  0
  6 93  1  0  0  0
  6 94  1  0  0  0
  7  8  2  0  0  0
  7 26  1  0  0  0
  7 29  1  0  0  0
  8  9  1  0  0  0
  8 22  1  0  0  0
  9 10  1  0  0  0
  9 27  2  0  0  0
 10 11  2  0  0  0
 10 15  1  0  0  0
 11 12  1  0  0  0
 11 95  1  0  0  0
 12 13  2  0  0  0
 12 96  1  0  0  0
 13 14  1  0  0  0
 13 31  1  0  0  0
 14 15  2  0  0  0
 14 97  1  0  0  0
 15 98  1  0  0  0
 16 17  2  0  0  0
 16 21  1  0  0  0
 16 31  1  0  0  0
 17 18  1  0  0  0
 17 99  1  0  0  0
 18 19  2  0  0  0
 18100  1  0  0  0
 19 20  1  0  0  0
 19 24  1  0  0  0
 20 21  2  0  0  0
 20101  1  0  0  0
 21 23  1  0  0  0
 22 28  1  0  0  0
 22 32  2  0  0  0
 26 27  1  0  0  0
 28102  1  0  0  0
 28103  1  0  0  0
 29104  1  0  0  0
 29105  1  0  0  0
 33 34  1  0  0  0
 33 66  1  0  0  0
 33 70  2  0  0  0
 34 36  1  0  0  0
 34 59  1  0  0  0
 34106  1  0  0  0
 35 44  2  0  0  0
 35 45  1  0  0  0
 35 68  1  0  0  0
 36 56  1  0  0  0
 36107  1  0  0  0
 37 39  1  0  0  0
 37 47  1  0  0  0
 37 66  1  0  0  0
 37108  1  0  0  0
 38 43  2  0  0  0
 38 46  1  0  0  0
 38 47  1  0  0  0
 39 64  1  0  0  0
 39 67  2  0  0  0
 40 52  1  0  0  0
 40 53  2  0  0  0
 40 58  1  0  0  0
 41109  1  0  0  0
 41110  1  0  0  0
 41111  1  0  0  0
 41 48  1  0  0  0
 42 43  1  0  0  0
 42 66  1  0  0  0
 42112  1  0  0  0
 42113  1  0  0  0
 43 44  1  0  0  0
 44114  1  0  0  0
 45 46  2  0  0  0
 45115  1  0  0  0
 46116  1  0  0  0
 47117  1  0  0  0
 47118  1  0  0  0
 48 56  1  0  0  0
 48 65  1  0  0  0
 48119  1  0  0  0
 49 50  1  0  0  0
 49 53  1  0  0  0
 49 64  1  0  0  0
 49120  1  0  0  0
 50 51  1  0  0  0
 50121  1  0  0  0
 50122  1  0  0  0
 51 52  1  0  0  0
 51123  1  0  0  0
 51124  1  0  0  0
 52125  1  0  0  0
 52126  1  0  0  0
 53 54  1  0  0  0
 54 55  2  0  0  0
 54127  1  0  0  0
 55 57  1  0  0  0
 55128  1  0  0  0
 56 69  2  0  0  0
 57 58  2  0  0  0
 57129  1  0  0  0
 58130  1  0  0  0
 59 60  1  0  0  0
 59 61  1  0  0  0
 59 62  1  0  0  0
 60131  1  0  0  0
 60132  1  0  0  0
 60133  1  0  0  0
 61134  1  0  0  0
 61135  1  0  0  0
 61136  1  0  0  0
 62137  1  0  0  0
 62138  1  0  0  0
 62139  1  0  0  0
 63 65  1  0  0  0
 63140  1  0  0  0
 63141  1  0  0  0
 63142  1  0  0  0
 64143  1  0  0  0
 65144  1  0  0  0
 68 82  1  0  0  0
 71 72  2  0  0  0
 71 73  1  0  0  0
 71145  1  0  0  0
 72 74  1  0  0  0
 72146  1  0  0  0
 73 75  2  0  0  0
 73147  1  0  0  0
 74 76  2  0  0  0
 74148  1  0  0  0
 75 76  1  0  0  0
 75 78  1  0  0  0
 76 83  1  0  0  0
 77 81  1  0  0  0
 77 83  1  0  0  0
 77 85  2  0  0  0
 78 84  1  0  0  0
 78149  1  0  0  0
 78150  1  0  0  0
 79 80  1  0  0  0
 79 83  1  0  0  0
 79151  1  0  0  0
 79152  1  0  0  0
 80 84  1  0  0  0
 80153  1  0  0  0
 80154  1  0  0  0
 81 82  1  0  0  0
 81155  1  0  0  0
 81156  1  0  0  0
 82157  1  0  0  0
 82158  1  0  0  0
M  ISO  4   1 100  68 101  82 101  84 100
M  END
> <chiral flag>
0

> <version>
0

> <s_m_source_file>
/data/baiqing/PycharmProjects/Reinvent-master-3.2/result/LINK_invent/BTK/process_docking_weight1_custom_sum_contain_oxygen_bond_distance_aromatic_linkinvent_7_9_3/rearranged_h_0004.sdf

> <i_m_source_file_index>
95

> <r_mmod_Potential_Energy-OPLS-2005>
1072.12670898438

> <r_mmod_Stretch_Energy-OPLS-2005>
370.967895507812

> <r_mmod_Bend_Energy-OPLS-2005>
433.917846679688

> <r_mmod_Torsional_Energy-OPLS-2005>
348.400665283203

> <r_mmod_Improper_Torsional_Energy-OPLS-2005>
6.14717769622803

> <r_mmod_Van_der_Waal_Energy-OPLS-2005>
147.422180175781

> <r_mmod_Electrostatic_Energy-OPLS-2005>
-296.543853759766

> <r_mmod_Solvation_Energy-OPLS-2005>
-221.291091918945

> <b_mmod_Minimization_Converged-OPLS-2005>
0

> <r_mmod_RMS_Derivative-OPLS-2005>
2.64679265022278

$$$$
95
                    3D
 Structure written by MMmdl.
172180  0  0  1  0            999 V2000
  -30.6505  -14.4534   20.5755 C   0  0  0  0  0  0
  -30.4339  -12.2959   19.4115 C   0  0  0  0  0  0
  -29.4992  -12.5042   18.1998 C   0  0  0  0  0  0
  -28.0171  -12.3645   18.6060 C   0  0  0  0  0  0
  -27.6640  -13.1921   19.8728 C   0  0  2  0  0  0
  -28.6991  -12.9230   20.9884 C   0  0  0  0  0  0
  -25.2624  -13.8135   20.5653 C   0  0  0  0  0  0
  -24.1843  -13.0427   20.9166 C   0  0  0  0  0  0
  -24.6365  -11.6886   20.8701 C   0  0  0  0  0  0
  -23.9029  -10.4288   21.0373 C   0  0  0  0  0  0
  -24.3593   -9.4214   21.9154 C   0  0  0  0  0  0
  -23.6289   -8.2242   22.0722 C   0  0  0  0  0  0
  -22.4266   -8.0267   21.3529 C   0  0  0  0  0  0
  -21.9895   -9.0223   20.4620 C   0  0  0  0  0  0
  -22.7199  -10.2126   20.3021 C   0  0  0  0  0  0
  -21.6849   -6.0731   22.5293 C   0  0  0  0  0  0
  -21.4010   -6.5629   23.8218 C   0  0  0  0  0  0
  -21.3658   -5.6774   24.9175 C   0  0  0  0  0  0
  -21.6045   -4.3046   24.7228 C   0  0  0  0  0  0
  -21.8824   -3.8138   23.4339 C   0  0  0  0  0  0
  -21.9186   -4.6955   22.3400 C   0  0  0  0  0  0
  -22.7876  -13.5238   21.1819 C   0  0  0  0  0  0
  -22.1650   -4.2145   21.0982 F   0  0  0  0  0  0
  -21.5631   -3.4523   25.7743 F   0  0  0  0  0  0
  -30.0349  -13.2478   20.4558 N   0  0  0  0  0  0
  -26.3021  -12.9261   20.3299 N   0  0  0  0  0  0
  -25.9285  -11.6438   20.5718 N   0  0  0  0  0  0
  -22.0494  -12.8273   22.0392 N   0  0  0  0  0  0
  -25.4362  -15.1854   20.4097 N   0  0  0  0  0  0
  -31.7717  -14.6933   20.1156 O   0  0  0  0  0  0
  -21.6625   -6.8865   21.4249 O   0  0  0  0  0  0
  -22.3570  -14.5529   20.6644 O   0  0  0  0  0  0
  -24.6127  -31.8682   23.2092 C   0  0  0  0  0  0
  -25.9027  -32.4833   23.8390 C   0  0  1  0  0  0
  -27.2397  -27.4629   20.0878 C   0  0  0  0  0  0
  -25.5901  -33.8632   24.2324 N   0  0  0  0  0  0
  -23.3995  -30.4898   21.5502 C   0  0  2  0  0  0
  -24.8474  -28.9544   20.1186 C   0  0  0  0  0  0
  -22.7408  -29.4646   22.4999 C   0  0  0  0  0  0
  -18.0292  -28.1371   22.8524 C   0  0  0  0  0  0
  -24.1494  -36.7321   23.2637 C   0  0  0  0  0  0
  -25.9252  -30.8419   21.3589 C   0  0  0  0  0  0
  -26.0037  -29.4760   20.7121 C   0  0  0  0  0  0
  -27.2050  -28.7363   20.6960 C   0  0  0  0  0  0
  -26.0707  -26.9424   19.4973 C   0  0  0  0  0  0
  -24.8737  -27.6851   19.5115 C   0  0  0  0  0  0
  -23.6075  -29.8182   20.1659 C   0  0  0  0  0  0
  -25.4126  -36.3127   24.0330 C   0  0  1  0  0  0
  -20.5880  -28.3644   23.1366 C   0  0  2  0  0  0
  -20.6772  -26.9375   22.5469 C   0  0  0  0  0  0
  -19.5762  -26.6383   21.5247 C   0  0  0  0  0  0
  -18.1937  -26.7930   22.1625 C   0  0  0  0  0  0
  -19.1535  -28.8820   23.2957 C   0  0  0  0  0  0
  -18.9471  -30.1432   23.8957 C   0  0  0  0  0  0
  -17.6464  -30.6571   24.0612 C   0  0  0  0  0  0
  -25.9037  -34.9481   23.5121 C   0  0  0  0  0  0
  -16.5359  -29.9088   23.6340 C   0  0  0  0  0  0
  -16.7283  -28.6513   23.0347 C   0  0  0  0  0  0
  -26.4466  -31.6601   25.0703 C   0  0  0  0  0  0
  -25.3753  -31.3695   26.1471 C   0  0  0  0  0  0
  -27.0258  -30.3038   24.6037 C   0  0  0  0  0  0
  -27.6042  -32.4316   25.7460 C   0  0  0  0  0  0
  -27.5591  -37.1819   24.8459 C   0  0  0  0  0  0
  -21.4133  -29.3023   22.3771 N   0  0  0  0  0  0
  -26.4300  -37.3816   23.9404 N   0  0  0  0  0  0
  -24.6639  -31.0804   22.0983 N   0  0  0  0  0  0
  -23.4191  -28.8178   23.3015 O   0  0  0  0  0  0
  -28.4126  -26.7558   20.0279 O   0  0  0  0  0  0
  -26.5590  -34.8923   22.4675 O   0  0  0  0  0  0
  -23.5323  -32.1390   23.7514 O   0  0  0  0  0  0
  -29.5119  -19.0322   21.8719 C   0  0  0  0  0  0
  -29.6184  -17.6344   22.0221 C   0  0  0  0  0  0
  -29.8211  -18.7931   19.4740 C   0  0  0  0  0  0
  -29.6206  -19.6258   20.5965 C   0  0  0  0  0  0
  -29.8465  -16.7993   20.9069 C   0  0  0  0  0  0
  -29.9049  -17.3909   19.6109 C   0  0  0  0  0  0
  -29.6410  -21.1251   20.4465 C   0  0  0  0  0  0
  -21.7223  -22.5425   24.0983 C   0  0  0  0  0  0
  -22.5328  -21.9228   22.9517 C   0  0  0  0  0  0
  -24.0431  -21.9916   23.2120 C   0  0  0  0  0  0
  -24.8794  -21.4223   22.0538 C   0  0  0  0  0  0
  -26.3608  -21.8167   22.1742 C   0  0  0  0  0  0
  -28.4018  -24.3303   20.4200 C   0  0  0  0  0  0
  -27.2180  -21.3709   20.9669 C   0  0  0  0  0  0
  -28.8667  -23.2449   21.4146 C   0  0  0  0  0  0
  -28.5591  -25.7419   21.0175 C   0  0  0  0  0  0
  -29.8855  -15.3957   21.1565 N   0  0  0  0  0  0
  -28.6196  -21.8543   20.9712 N   0  0  0  0  0  0
  -30.6399  -21.6440   19.9376 O   0  0  0  0  0  0
  -29.9977  -16.4596   18.1543 Cl  0  0  0  0  0  0
  -31.4731  -12.4253   19.1075 H   0  0  0  0  0  0
  -30.3619  -11.2754   19.7880 H   0  0  0  0  0  0
  -29.7455  -11.7896   17.4121 H   0  0  0  0  0  0
  -29.6690  -13.4927   17.7710 H   0  0  0  0  0  0
  -27.8234  -11.3062   18.7923 H   0  0  0  0  0  0
  -27.3652  -12.6437   17.7778 H   0  0  0  0  0  0
  -27.7182  -14.2461   19.5958 H   0  0  0  0  0  0
  -28.6722  -11.8713   21.2754 H   0  0  0  0  0  0
  -28.4543  -13.4690   21.8997 H   0  0  0  0  0  0
  -25.2715   -9.5736   22.4750 H   0  0  0  0  0  0
  -23.9992   -7.4648   22.7458 H   0  0  0  0  0  0
  -21.0818   -8.8737   19.8943 H   0  0  0  0  0  0
  -22.3607  -10.9668   19.6156 H   0  0  0  0  0  0
  -21.1999   -7.6133   23.9742 H   0  0  0  0  0  0
  -21.1476   -6.0484   25.9089 H   0  0  0  0  0  0
  -22.0611   -2.7604   23.2833 H   0  0  0  0  0  0
  -22.4063  -11.9949   22.4856 H   0  0  0  0  0  0
  -21.1106  -13.1355   22.2524 H   0  0  0  0  0  0
  -24.6684  -15.8380   20.5287 H   0  0  0  0  0  0
  -26.2860  -15.6331   20.0922 H   0  0  0  0  0  0
  -26.7108  -32.5542   23.1165 H   0  0  0  0  0  0
  -25.0083  -33.9818   25.0495 H   0  0  0  0  0  0
  -22.6862  -31.3059   21.4114 H   0  0  0  0  0  0
  -23.3749  -35.9654   23.3305 H   0  0  0  0  0  0
  -24.3584  -36.8925   22.2046 H   0  0  0  0  0  0
  -23.7234  -37.6529   23.6635 H   0  0  0  0  0  0
  -26.0352  -31.6100   20.5917 H   0  0  0  0  0  0
  -26.8161  -30.8968   21.9725 H   0  0  0  0  0  0
  -28.1047  -29.1415   21.1378 H   0  0  0  0  0  0
  -26.0916  -25.9759   19.0140 H   0  0  0  0  0  0
  -23.9836  -27.2808   19.0501 H   0  0  0  0  0  0
  -23.7156  -30.5912   19.4027 H   0  0  0  0  0  0
  -22.7315  -29.2354   19.8728 H   0  0  0  0  0  0
  -25.1309  -36.1996   25.0819 H   0  0  0  0  0  0
  -20.9999  -28.3225   24.1477 H   0  0  0  0  0  0
  -20.5627  -26.2251   23.3663 H   0  0  0  0  0  0
  -21.6658  -26.7373   22.1298 H   0  0  0  0  0  0
  -19.6902  -25.6306   21.1243 H   0  0  0  0  0  0
  -19.6708  -27.3217   20.6800 H   0  0  0  0  0  0
  -17.4227  -26.6739   21.4002 H   0  0  0  0  0  0
  -18.0302  -26.0037   22.8979 H   0  0  0  0  0  0
  -19.7952  -30.7249   24.2322 H   0  0  0  0  0  0
  -17.5016  -31.6244   24.5247 H   0  0  0  0  0  0
  -15.5359  -30.2989   23.7633 H   0  0  0  0  0  0
  -15.8691  -28.0860   22.7002 H   0  0  0  0  0  0
  -24.5939  -30.7022   25.7824 H   0  0  0  0  0  0
  -24.8935  -32.2838   26.4930 H   0  0  0  0  0  0
  -25.8143  -30.8872   27.0212 H   0  0  0  0  0  0
  -26.2756  -29.6833   24.1118 H   0  0  0  0  0  0
  -27.4057  -29.7251   25.4467 H   0  0  0  0  0  0
  -27.8591  -30.4354   23.9135 H   0  0  0  0  0  0
  -27.2661  -33.3603   26.2070 H   0  0  0  0  0  0
  -28.3828  -32.6902   25.0272 H   0  0  0  0  0  0
  -28.0728  -31.8422   26.5347 H   0  0  0  0  0  0
  -28.2630  -38.0104   24.7522 H   0  0  0  0  0  0
  -28.1075  -36.2636   24.6282 H   0  0  0  0  0  0
  -27.2302  -37.1470   25.8863 H   0  0  0  0  0  0
  -20.9254  -29.8775   21.7045 H   0  0  0  0  0  0
  -26.0190  -38.2889   24.1414 H   0  0  0  0  0  0
  -29.3768  -19.6548   22.7473 H   0  0  0  0  0  0
  -29.5385  -17.2076   23.0113 H   0  0  0  0  0  0
  -29.9040  -19.2322   18.4904 H   0  0  0  0  0  0
  -20.6560  -22.5376   23.8710 H   0  0  0  0  0  0
  -22.0143  -23.5782   24.2790 H   0  0  0  0  0  0
  -21.8647  -21.9931   25.0286 H   0  0  0  0  0  0
  -22.3013  -22.4532   22.0269 H   0  0  0  0  0  0
  -22.2230  -20.8876   22.8028 H   0  0  0  0  0  0
  -24.2917  -21.4660   24.1356 H   0  0  0  0  0  0
  -24.3120  -23.0362   23.3722 H   0  0  0  0  0  0
  -24.4875  -21.8064   21.1106 H   0  0  0  0  0  0
  -24.7736  -20.3377   22.0099 H   0  0  0  0  0  0
  -26.7817  -21.4118   23.0958 H   0  0  0  0  0  0
  -26.3739  -22.9025   22.2632 H   0  0  0  0  0  0
  -27.3602  -24.1704   20.1386 H   0  0  0  0  0  0
  -28.9913  -24.2559   19.5044 H   0  0  0  0  0  0
  -26.7524  -21.7332   20.0480 H   0  0  0  0  0  0
  -27.1645  -20.2847   20.8967 H   0  0  0  0  0  0
  -28.4251  -23.4166   22.3943 H   0  0  0  0  0  0
  -29.9320  -23.3914   21.6049 H   0  0  0  0  0  0
  -29.5606  -25.8508   21.4343 H   0  0  0  0  0  0
  -27.8702  -25.8840   21.8544 H   0  0  0  0  0  0
  -29.1137  -15.0325   21.6940 H   0  0  0  0  0  0
  1 25  1  0  0  0
  1 30  2  0  0  0
  1 87  1  0  0  0
  2  3  1  0  0  0
  2 25  1  0  0  0
  2 91  1  0  0  0
  2 92  1  0  0  0
  3  4  1  0  0  0
  3 93  1  0  0  0
  3 94  1  0  0  0
  4  5  1  0  0  0
  4 95  1  0  0  0
  4 96  1  0  0  0
  5  6  1  0  0  0
  5 26  1  0  0  0
  5 97  1  0  0  0
  6 25  1  0  0  0
  6 98  1  0  0  0
  6 99  1  0  0  0
  7  8  2  0  0  0
  7 26  1  0  0  0
  7 29  1  0  0  0
  8  9  1  0  0  0
  8 22  1  0  0  0
  9 10  1  0  0  0
  9 27  2  0  0  0
 10 11  2  0  0  0
 10 15  1  0  0  0
 11 12  1  0  0  0
 11100  1  0  0  0
 12 13  2  0  0  0
 12101  1  0  0  0
 13 14  1  0  0  0
 13 31  1  0  0  0
 14 15  2  0  0  0
 14102  1  0  0  0
 15103  1  0  0  0
 16 17  2  0  0  0
 16 21  1  0  0  0
 16 31  1  0  0  0
 17 18  1  0  0  0
 17104  1  0  0  0
 18 19  2  0  0  0
 18105  1  0  0  0
 19 20  1  0  0  0
 19 24  1  0  0  0
 20 21  2  0  0  0
 20106  1  0  0  0
 21 23  1  0  0  0
 22 28  1  0  0  0
 22 32  2  0  0  0
 26 27  1  0  0  0
 28107  1  0  0  0
 28108  1  0  0  0
 29109  1  0  0  0
 29110  1  0  0  0
 33 34  1  0  0  0
 33 66  1  0  0  0
 33 70  2  0  0  0
 34 36  1  0  0  0
 34 59  1  0  0  0
 34111  1  0  0  0
 35 44  2  0  0  0
 35 45  1  0  0  0
 35 68  1  0  0  0
 36 56  1  0  0  0
 36112  1  0  0  0
 37 39  1  0  0  0
 37 47  1  0  0  0
 37 66  1  0  0  0
 37113  1  0  0  0
 38 43  2  0  0  0
 38 46  1  0  0  0
 38 47  1  0  0  0
 39 64  1  0  0  0
 39 67  2  0  0  0
 40 52  1  0  0  0
 40 53  2  0  0  0
 40 58  1  0  0  0
 41114  1  0  0  0
 41115  1  0  0  0
 41116  1  0  0  0
 41 48  1  0  0  0
 42 43  1  0  0  0
 42 66  1  0  0  0
 42117  1  0  0  0
 42118  1  0  0  0
 43 44  1  0  0  0
 44119  1  0  0  0
 45 46  2  0  0  0
 45120  1  0  0  0
 46121  1  0  0  0
 47122  1  0  0  0
 47123  1  0  0  0
 48 56  1  0  0  0
 48 65  1  0  0  0
 48124  1  0  0  0
 49 50  1  0  0  0
 49 53  1  0  0  0
 49 64  1  0  0  0
 49125  1  0  0  0
 50 51  1  0  0  0
 50126  1  0  0  0
 50127  1  0  0  0
 51 52  1  0  0  0
 51128  1  0  0  0
 51129  1  0  0  0
 52130  1  0  0  0
 52131  1  0  0  0
 53 54  1  0  0  0
 54 55  2  0  0  0
 54132  1  0  0  0
 55 57  1  0  0  0
 55133  1  0  0  0
 56 69  2  0  0  0
 57 58  2  0  0  0
 57134  1  0  0  0
 58135  1  0  0  0
 59 60  1  0  0  0
 59 61  1  0  0  0
 59 62  1  0  0  0
 60136  1  0  0  0
 60137  1  0  0  0
 60138  1  0  0  0
 61139  1  0  0  0
 61140  1  0  0  0
 61141  1  0  0  0
 62142  1  0  0  0
 62143  1  0  0  0
 62144  1  0  0  0
 63 65  1  0  0  0
 63145  1  0  0  0
 63146  1  0  0  0
 63147  1  0  0  0
 64148  1  0  0  0
 65149  1  0  0  0
 68 86  1  0  0  0
 71 72  2  0  0  0
 71 74  1  0  0  0
 71150  1  0  0  0
 72 75  1  0  0  0
 72151  1  0  0  0
 73 74  2  0  0  0
 73 76  1  0  0  0
 73152  1  0  0  0
 74 77  1  0  0  0
 75 76  2  0  0  0
 75 87  1  0  0  0
 76 90  1  0  0  0
 77 88  1  0  0  0
 77 89  2  0  0  0
 78 79  1  0  0  0
 78153  1  0  0  0
 78154  1  0  0  0
 78155  1  0  0  0
 79 80  1  0  0  0
 79156  1  0  0  0
 79157  1  0  0  0
 80 81  1  0  0  0
 80158  1  0  0  0
 80159  1  0  0  0
 81 82  1  0  0  0
 81160  1  0  0  0
 81161  1  0  0  0
 82 84  1  0  0  0
 82162  1  0  0  0
 82163  1  0  0  0
 83 85  1  0  0  0
 83 86  1  0  0  0
 83164  1  0  0  0
 83165  1  0  0  0
 84 88  1  0  0  0
 84166  1  0  0  0
 84167  1  0  0  0
 85 88  1  0  0  0
 85168  1  0  0  0
 85169  1  0  0  0
 86170  1  0  0  0
 86171  1  0  0  0
 87172  1  0  0  0
M  ISO  4   1 100  68 101  86 101  87 100
M  END
> <chiral flag>
0

> <version>
0

> <s_m_source_file>
/data/baiqing/PycharmProjects/Reinvent-master-3.2/result/LINK_invent/BTK/process_docking_weight1_custom_sum_contain_oxygen_bond_distance_aromatic_linkinvent_7_9_3/rearranged_h_0004.sdf

> <i_m_source_file_index>
96

> <r_mmod_Potential_Energy-OPLS-2005>
52.8210983276367

> <r_mmod_Stretch_Energy-OPLS-2005>
38.3668479919434

> <r_mmod_Bend_Energy-OPLS-2005>
101.743827819824

> <r_mmod_Torsional_Energy-OPLS-2005>
335.009735107422

> <r_mmod_Improper_Torsional_Energy-OPLS-2005>
5.0639705657959

> <r_mmod_Van_der_Waal_Energy-OPLS-2005>
148.918334960938

> <r_mmod_Electrostatic_Energy-OPLS-2005>
-365.897674560547

> <r_mmod_Solvation_Energy-OPLS-2005>
-220.85498046875

> <b_mmod_Minimization_Converged-OPLS-2005>
0

> <r_mmod_RMS_Derivative-OPLS-2005>
3.00914192199707

$$$$
96
                    3D
 Structure written by MMmdl.
188196  0  0  1  0            999 V2000
  -30.8772  -14.1578   20.8233 C   0  0  0  0  0  0
  -30.3946  -12.2803   19.3252 C   0  0  0  0  0  0
  -29.4544  -12.5668   18.1509 C   0  0  0  0  0  0
  -27.9912  -12.3838   18.5845 C   0  0  0  0  0  0
  -27.6579  -13.2035   19.8580 C   0  0  2  0  0  0
  -28.6947  -12.9523   20.9720 C   0  0  0  0  0  0
  -25.2580  -13.8162   20.5641 C   0  0  0  0  0  0
  -24.1829  -13.0411   20.9148 C   0  0  0  0  0  0
  -24.6379  -11.6898   20.8704 C   0  0  0  0  0  0
  -23.9042  -10.4284   21.0400 C   0  0  0  0  0  0
  -24.3598   -9.4209   21.9194 C   0  0  0  0  0  0
  -23.6274   -8.2236   22.0761 C   0  0  0  0  0  0
  -22.4267   -8.0264   21.3530 C   0  0  0  0  0  0
  -21.9903   -9.0224   20.4630 C   0  0  0  0  0  0
  -22.7229  -10.2110   20.3038 C   0  0  0  0  0  0
  -21.6846   -6.0728   22.5279 C   0  0  0  0  0  0
  -21.4024   -6.5635   23.8215 C   0  0  0  0  0  0
  -21.3654   -5.6788   24.9170 C   0  0  0  0  0  0
  -21.6043   -4.3051   24.7230 C   0  0  0  0  0  0
  -21.8814   -3.8142   23.4356 C   0  0  0  0  0  0
  -21.9189   -4.6957   22.3408 C   0  0  0  0  0  0
  -22.7862  -13.5219   21.1828 C   0  0  0  0  0  0
  -22.1658   -4.2147   21.0982 F   0  0  0  0  0  0
  -21.5618   -3.4532   25.7745 F   0  0  0  0  0  0
  -30.0476  -13.1714   20.4329 N   0  0  0  0  0  0
  -26.3001  -12.9327   20.3271 N   0  0  0  0  0  0
  -25.9298  -11.6482   20.5670 N   0  0  0  0  0  0
  -22.0474  -12.8185   22.0369 N   0  0  0  0  0  0
  -25.4278  -15.1872   20.4084 N   0  0  0  0  0  0
  -31.7206  -14.6988   20.1002 O   0  0  0  0  0  0
  -21.6629   -6.8866   21.4238 O   0  0  0  0  0  0
  -22.3544  -14.5513   20.6682 O   0  0  0  0  0  0
  -24.6112  -31.8679   23.2120 C   0  0  0  0  0  0
  -25.9006  -32.4858   23.8403 C   0  0  1  0  0  0
  -27.2408  -27.4834   20.0998 C   0  0  0  0  0  0
  -25.5820  -33.8638   24.2326 N   0  0  0  0  0  0
  -23.4028  -30.5014   21.5375 C   0  0  2  0  0  0
  -24.8524  -28.9707   20.1084 C   0  0  0  0  0  0
  -22.7401  -29.4774   22.4798 C   0  0  0  0  0  0
  -18.0244  -28.1469   22.8419 C   0  0  0  0  0  0
  -24.1462  -36.7383   23.2659 C   0  0  0  0  0  0
  -25.9203  -30.8608   21.3460 C   0  0  0  0  0  0
  -26.0058  -29.4954   20.7018 C   0  0  0  0  0  0
  -27.2075  -28.7605   20.6897 C   0  0  0  0  0  0
  -26.0809  -26.9712   19.4799 C   0  0  0  0  0  0
  -24.8827  -27.7071   19.4918 C   0  0  0  0  0  0
  -23.6144  -29.8328   20.1525 C   0  0  0  0  0  0
  -25.4090  -36.3151   24.0344 C   0  0  1  0  0  0
  -20.5831  -28.3840   23.0833 C   0  0  2  0  0  0
  -20.6796  -26.9601   22.4913 C   0  0  0  0  0  0
  -19.5640  -26.6584   21.4918 C   0  0  0  0  0  0
  -18.1907  -26.8012   22.1553 C   0  0  0  0  0  0
  -19.1510  -28.8958   23.2707 C   0  0  0  0  0  0
  -18.9494  -30.1527   23.8828 C   0  0  0  0  0  0
  -17.6496  -30.6624   24.0665 C   0  0  0  0  0  0
  -25.9005  -34.9505   23.5157 C   0  0  0  0  0  0
  -16.5364  -29.9135   23.6457 C   0  0  0  0  0  0
  -16.7237  -28.6591   23.0370 C   0  0  0  0  0  0
  -26.4505  -31.6594   25.0661 C   0  0  0  0  0  0
  -25.3864  -31.3614   26.1475 C   0  0  0  0  0  0
  -27.0335  -30.3100   24.5881 C   0  0  0  0  0  0
  -27.6155  -32.4212   25.7378 C   0  0  0  0  0  0
  -27.5573  -37.1847   24.8448 C   0  0  0  0  0  0
  -21.4141  -29.3228   22.3377 N   0  0  0  0  0  0
  -26.4272  -37.3834   23.9418 N   0  0  0  0  0  0
  -24.6630  -31.0894   22.0934 N   0  0  0  0  0  0
  -23.4183  -28.8251   23.2763 O   0  0  0  0  0  0
  -28.3960  -26.7446   20.1387 O   0  0  0  0  0  0
  -26.5612  -34.8935   22.4746 O   0  0  0  0  0  0
  -23.5301  -32.1375   23.7542 O   0  0  0  0  0  0
  -21.0880  -27.6804   26.4439 C   0  0  0  0  0  0
  -22.2796  -28.4138   26.6158 C   0  0  0  0  0  0
  -21.1427  -26.3595   25.9585 C   0  0  0  0  0  0
  -23.5242  -27.8131   26.3387 C   0  0  0  0  0  0
  -22.3847  -25.7652   25.6616 C   0  0  0  0  0  0
  -23.5820  -26.4896   25.8553 C   0  0  0  0  0  0
  -27.8653  -26.3204   23.2047 C   0  0  0  0  0  0
  -24.9242  -25.8541   25.5309 C   0  0  0  0  0  0
  -28.7482  -25.4825   22.2569 C   0  0  0  0  0  0
  -28.8133  -17.5715   25.8624 C   0  0  0  0  0  0
  -28.5325  -19.0076   26.3324 C   0  0  0  0  0  0
  -30.1022  -17.4762   25.0259 C   0  0  0  0  0  0
  -27.8994  -19.8661   25.2189 C   0  0  0  0  0  0
  -30.3232  -16.1074   24.3696 C   0  0  0  0  0  0
  -27.7523  -21.3375   25.6199 C   0  0  0  0  0  0
  -31.6620  -16.0730   23.6096 C   0  0  0  0  0  0
  -26.9695  -22.1748   24.5951 C   0  0  0  0  0  0
  -25.5755  -26.4309   24.2547 C   0  0  0  0  0  0
  -32.0113  -14.7182   22.9820 C   0  0  0  0  0  0
  -28.2664  -25.4737   20.7870 C   0  0  0  0  0  0
  -27.2457  -23.6679   24.7667 C   0  0  0  0  0  0
  -30.9254  -14.2089   22.1581 N   0  0  0  0  0  0
  -26.8096  -25.7504   23.8342 N   0  0  0  0  0  0
  -28.1488  -27.5078   23.3699 O   0  0  0  0  0  0
  -26.6264  -24.3651   23.6895 O   0  0  0  0  0  0
  -31.4361  -12.3909   19.0161 H   0  0  0  0  0  0
  -30.2857  -11.2464   19.6539 H   0  0  0  0  0  0
  -29.6871  -11.9139   17.3087 H   0  0  0  0  0  0
  -29.6079  -13.5901   17.8013 H   0  0  0  0  0  0
  -27.8149  -11.3219   18.7601 H   0  0  0  0  0  0
  -27.3251  -12.6704   17.7696 H   0  0  0  0  0  0
  -27.7120  -14.2580   19.5817 H   0  0  0  0  0  0
  -28.6217  -11.9289   21.3417 H   0  0  0  0  0  0
  -28.4657  -13.6069   21.8152 H   0  0  0  0  0  0
  -25.2728   -9.5695   22.4786 H   0  0  0  0  0  0
  -23.9966   -7.4645   22.7500 H   0  0  0  0  0  0
  -21.0835   -8.8725   19.8941 H   0  0  0  0  0  0
  -22.3671  -10.9636   19.6135 H   0  0  0  0  0  0
  -21.2026   -7.6144   23.9717 H   0  0  0  0  0  0
  -21.1483   -6.0520   25.9072 H   0  0  0  0  0  0
  -22.0600   -2.7606   23.2851 H   0  0  0  0  0  0
  -22.4022  -11.9810   22.4748 H   0  0  0  0  0  0
  -21.1085  -13.1224   22.2539 H   0  0  0  0  0  0
  -24.6613  -15.8437   20.5191 H   0  0  0  0  0  0
  -26.2886  -15.6333   20.1159 H   0  0  0  0  0  0
  -26.7057  -32.5650   23.1167 H   0  0  0  0  0  0
  -24.9778  -33.9751   25.0328 H   0  0  0  0  0  0
  -22.6945  -31.3200   21.3948 H   0  0  0  0  0  0
  -23.3715  -35.9722   23.3300 H   0  0  0  0  0  0
  -24.3537  -36.9054   22.2075 H   0  0  0  0  0  0
  -23.7189  -37.6571   23.6693 H   0  0  0  0  0  0
  -26.0031  -31.6230   20.5690 H   0  0  0  0  0  0
  -26.8193  -30.9386   21.9447 H   0  0  0  0  0  0
  -28.0967  -29.1548   21.1650 H   0  0  0  0  0  0
  -26.1076  -26.0091   18.9895 H   0  0  0  0  0  0
  -24.0001  -27.3078   19.0135 H   0  0  0  0  0  0
  -23.7305  -30.6077   19.3942 H   0  0  0  0  0  0
  -22.7417  -29.2518   19.8493 H   0  0  0  0  0  0
  -25.1249  -36.2060   25.0830 H   0  0  0  0  0  0
  -21.0131  -28.3622   24.0749 H   0  0  0  0  0  0
  -20.5972  -26.2350   23.2985 H   0  0  0  0  0  0
  -21.6576  -26.7812   22.0434 H   0  0  0  0  0  0
  -19.6826  -25.6556   21.0827 H   0  0  0  0  0  0
  -19.6422  -27.3510   20.6515 H   0  0  0  0  0  0
  -17.4056  -26.6674   21.4079 H   0  0  0  0  0  0
  -18.0533  -26.0161   22.9003 H   0  0  0  0  0  0
  -19.8003  -30.7340   24.2136 H   0  0  0  0  0  0
  -17.5076  -31.6248   24.5392 H   0  0  0  0  0  0
  -15.5381  -30.3021   23.7920 H   0  0  0  0  0  0
  -15.8626  -28.0942   22.7080 H   0  0  0  0  0  0
  -24.6069  -30.6929   25.7820 H   0  0  0  0  0  0
  -24.9023  -32.2728   26.4980 H   0  0  0  0  0  0
  -25.8305  -30.8752   27.0182 H   0  0  0  0  0  0
  -26.2835  -29.6925   24.0935 H   0  0  0  0  0  0
  -27.4234  -29.7225   25.4209 H   0  0  0  0  0  0
  -27.8618  -30.4490   23.8913 H   0  0  0  0  0  0
  -27.2925  -33.3593   26.1889 H   0  0  0  0  0  0
  -28.3981  -32.6594   25.0165 H   0  0  0  0  0  0
  -28.0749  -31.8264   26.5285 H   0  0  0  0  0  0
  -28.2549  -38.0188   24.7559 H   0  0  0  0  0  0
  -28.1098  -36.2718   24.6177 H   0  0  0  0  0  0
  -27.2286  -37.1386   25.8843 H   0  0  0  0  0  0
  -20.9388  -29.9051   21.6626 H   0  0  0  0  0  0
  -26.0185  -38.2928   24.1400 H   0  0  0  0  0  0
  -20.1310  -28.1526   26.6201 H   0  0  0  0  0  0
  -22.2397  -29.4450   26.9396 H   0  0  0  0  0  0
  -20.2277  -25.8126   25.7749 H   0  0  0  0  0  0
  -24.4351  -28.3813   26.4689 H   0  0  0  0  0  0
  -22.4086  -24.7576   25.2704 H   0  0  0  0  0  0
  -24.7616  -24.7827   25.4227 H   0  0  0  0  0  0
  -25.5861  -25.9854   26.3878 H   0  0  0  0  0  0
  -28.8054  -24.4528   22.6069 H   0  0  0  0  0  0
  -29.7682  -25.8597   22.3060 H   0  0  0  0  0  0
  -27.9508  -17.2147   25.2958 H   0  0  0  0  0  0
  -28.9079  -16.9129   26.7285 H   0  0  0  0  0  0
  -29.4560  -19.4577   26.7036 H   0  0  0  0  0  0
  -27.8572  -18.9900   27.1902 H   0  0  0  0  0  0
  -30.9534  -17.6947   25.6718 H   0  0  0  0  0  0
  -30.1092  -18.2453   24.2515 H   0  0  0  0  0  0
  -26.9216  -19.4557   24.9621 H   0  0  0  0  0  0
  -28.4975  -19.8113   24.3068 H   0  0  0  0  0  0
  -29.4963  -15.8925   23.6898 H   0  0  0  0  0  0
  -30.3097  -15.3269   25.1302 H   0  0  0  0  0  0
  -28.7547  -21.7538   25.7389 H   0  0  0  0  0  0
  -27.2665  -21.4110   26.5941 H   0  0  0  0  0  0
  -32.4712  -16.3482   24.2878 H   0  0  0  0  0  0
  -31.6482  -16.8306   22.8280 H   0  0  0  0  0  0
  -25.8968  -21.9889   24.6865 H   0  0  0  0  0  0
  -27.2439  -21.8825   23.5811 H   0  0  0  0  0  0
  -25.7591  -27.4946   24.3998 H   0  0  0  0  0  0
  -24.8697  -26.3564   23.4286 H   0  0  0  0  0  0
  -32.2069  -13.9820   23.7639 H   0  0  0  0  0  0
  -32.9365  -14.7895   22.4070 H   0  0  0  0  0  0
  -27.2541  -25.0738   20.7483 H   0  0  0  0  0  0
  -28.8687  -24.7678   20.2146 H   0  0  0  0  0  0
  -28.3215  -23.8494   24.7686 H   0  0  0  0  0  0
  -26.8822  -24.0044   25.7384 H   0  0  0  0  0  0
  -30.2512  -13.6217   22.6259 H   0  0  0  0  0  0
  1 25  1  0  0  0
  1 30  2  0  0  0
  1 92  1  0  0  0
  2  3  1  0  0  0
  2 25  1  0  0  0
  2 96  1  0  0  0
  2 97  1  0  0  0
  3  4  1  0  0  0
  3 98  1  0  0  0
  3 99  1  0  0  0
  4  5  1  0  0  0
  4100  1  0  0  0
  4101  1  0  0  0
  5  6  1  0  0  0
  5 26  1  0  0  0
  5102  1  0  0  0
  6 25  1  0  0  0
  6103  1  0  0  0
  6104  1  0  0  0
  7  8  2  0  0  0
  7 26  1  0  0  0
  7 29  1  0  0  0
  8  9  1  0  0  0
  8 22  1  0  0  0
  9 10  1  0  0  0
  9 27  2  0  0  0
 10 11  2  0  0  0
 10 15  1  0  0  0
 11 12  1  0  0  0
 11105  1  0  0  0
 12 13  2  0  0  0
 12106  1  0  0  0
 13 14  1  0  0  0
 13 31  1  0  0  0
 14 15  2  0  0  0
 14107  1  0  0  0
 15108  1  0  0  0
 16 17  2  0  0  0
 16 21  1  0  0  0
 16 31  1  0  0  0
 17 18  1  0  0  0
 17109  1  0  0  0
 18 19  2  0  0  0
 18110  1  0  0  0
 19 20  1  0  0  0
 19 24  1  0  0  0
 20 21  2  0  0  0
 20111  1  0  0  0
 21 23  1  0  0  0
 22 28  1  0  0  0
 22 32  2  0  0  0
 26 27  1  0  0  0
 28112  1  0  0  0
 28113  1  0  0  0
 29114  1  0  0  0
 29115  1  0  0  0
 33 34  1  0  0  0
 33 66  1  0  0  0
 33 70  2  0  0  0
 34 36  1  0  0  0
 34 59  1  0  0  0
 34116  1  0  0  0
 35 44  2  0  0  0
 35 45  1  0  0  0
 35 68  1  0  0  0
 36 56  1  0  0  0
 36117  1  0  0  0
 37 39  1  0  0  0
 37 47  1  0  0  0
 37 66  1  0  0  0
 37118  1  0  0  0
 38 43  2  0  0  0
 38 46  1  0  0  0
 38 47  1  0  0  0
 39 64  1  0  0  0
 39 67  2  0  0  0
 40 52  1  0  0  0
 40 53  2  0  0  0
 40 58  1  0  0  0
 41119  1  0  0  0
 41120  1  0  0  0
 41121  1  0  0  0
 41 48  1  0  0  0
 42 43  1  0  0  0
 42 66  1  0  0  0
 42122  1  0  0  0
 42123  1  0  0  0
 43 44  1  0  0  0
 44124  1  0  0  0
 45 46  2  0  0  0
 45125  1  0  0  0
 46126  1  0  0  0
 47127  1  0  0  0
 47128  1  0  0  0
 48 56  1  0  0  0
 48 65  1  0  0  0
 48129  1  0  0  0
 49 50  1  0  0  0
 49 53  1  0  0  0
 49 64  1  0  0  0
 49130  1  0  0  0
 50 51  1  0  0  0
 50131  1  0  0  0
 50132  1  0  0  0
 51 52  1  0  0  0
 51133  1  0  0  0
 51134  1  0  0  0
 52135  1  0  0  0
 52136  1  0  0  0
 53 54  1  0  0  0
 54 55  2  0  0  0
 54137  1  0  0  0
 55 57  1  0  0  0
 55138  1  0  0  0
 56 69  2  0  0  0
 57 58  2  0  0  0
 57139  1  0  0  0
 58140  1  0  0  0
 59 60  1  0  0  0
 59 61  1  0  0  0
 59 62  1  0  0  0
 60141  1  0  0  0
 60142  1  0  0  0
 60143  1  0  0  0
 61144  1  0  0  0
 61145  1  0  0  0
 61146  1  0  0  0
 62147  1  0  0  0
 62148  1  0  0  0
 62149  1  0  0  0
 63 65  1  0  0  0
 63150  1  0  0  0
 63151  1  0  0  0
 63152  1  0  0  0
 64153  1  0  0  0
 65154  1  0  0  0
 68 90  1  0  0  0
 71 72  2  0  0  0
 71 73  1  0  0  0
 71155  1  0  0  0
 72 74  1  0  0  0
 72156  1  0  0  0
 73 75  2  0  0  0
 73157  1  0  0  0
 74 76  2  0  0  0
 74158  1  0  0  0
 75 76  1  0  0  0
 75159  1  0  0  0
 76 78  1  0  0  0
 77 79  1  0  0  0
 77 93  1  0  0  0
 77 94  2  0  0  0
 78 88  1  0  0  0
 78160  1  0  0  0
 78161  1  0  0  0
 79 90  1  0  0  0
 79162  1  0  0  0
 79163  1  0  0  0
 80 81  1  0  0  0
 80 82  1  0  0  0
 80164  1  0  0  0
 80165  1  0  0  0
 81 83  1  0  0  0
 81166  1  0  0  0
 81167  1  0  0  0
 82 84  1  0  0  0
 82168  1  0  0  0
 82169  1  0  0  0
 83 85  1  0  0  0
 83170  1  0  0  0
 83171  1  0  0  0
 84 86  1  0  0  0
 84172  1  0  0  0
 84173  1  0  0  0
 85 87  1  0  0  0
 85174  1  0  0  0
 85175  1  0  0  0
 86 89  1  0  0  0
 86176  1  0  0  0
 86177  1  0  0  0
 87 91  1  0  0  0
 87178  1  0  0  0
 87179  1  0  0  0
 88 93  1  0  0  0
 88180  1  0  0  0
 88181  1  0  0  0
 89 92  1  0  0  0
 89182  1  0  0  0
 89183  1  0  0  0
 90184  1  0  0  0
 90185  1  0  0  0
 91 95  1  0  0  0
 91186  1  0  0  0
 91187  1  0  0  0
 92188  1  0  0  0
 93 95  1  0  0  0
M  ISO  4   1 100  68 101  90 101  92 100
M  END
> <chiral flag>
0

> <version>
0

> <s_m_source_file>
/data/baiqing/PycharmProjects/Reinvent-master-3.2/result/LINK_invent/BTK/process_docking_weight1_custom_sum_contain_oxygen_bond_distance_aromatic_linkinvent_7_9_3/rearranged_h_0004.sdf

> <i_m_source_file_index>
97

> <r_mmod_Potential_Energy-OPLS-2005>
-61.2064895629883

> <r_mmod_Stretch_Energy-OPLS-2005>
31.9753265380859

> <r_mmod_Bend_Energy-OPLS-2005>
96.712028503418

> <r_mmod_Torsional_Energy-OPLS-2005>
240.289993286133

> <r_mmod_Improper_Torsional_Energy-OPLS-2005>
10.7975330352783

> <r_mmod_Van_der_Waal_Energy-OPLS-2005>
119.524238586426

> <r_mmod_Electrostatic_Energy-OPLS-2005>
-376.339691162109

> <r_mmod_Solvation_Energy-OPLS-2005>
-201.99560546875

> <b_mmod_Minimization_Converged-OPLS-2005>
0

> <r_mmod_RMS_Derivative-OPLS-2005>
4.98952436447144

$$$$
97
                    3D
 Structure written by MMmdl.
165172  0  0  1  0            999 V2000
  -30.6860  -14.4064   20.4981 C   0  0  0  0  0  0
  -30.4090  -12.2292   19.4280 C   0  0  0  0  0  0
  -29.4933  -12.4715   18.2098 C   0  0  0  0  0  0
  -28.0113  -12.3466   18.6141 C   0  0  0  0  0  0
  -27.6559  -13.1872   19.8696 C   0  0  2  0  0  0
  -28.6960  -12.9566   20.9945 C   0  0  0  0  0  0
  -25.2573  -13.8138   20.5682 C   0  0  0  0  0  0
  -24.1819  -13.0413   20.9213 C   0  0  0  0  0  0
  -24.6361  -11.6885   20.8738 C   0  0  0  0  0  0
  -23.9012  -10.4293   21.0416 C   0  0  0  0  0  0
  -24.3593   -9.4215   21.9194 C   0  0  0  0  0  0
  -23.6302   -8.2216   22.0751 C   0  0  0  0  0  0
  -22.4260   -8.0279   21.3533 C   0  0  0  0  0  0
  -21.9896   -9.0234   20.4618 C   0  0  0  0  0  0
  -22.7201  -10.2137   20.3052 C   0  0  0  0  0  0
  -21.6837   -6.0737   22.5299 C   0  0  0  0  0  0
  -21.3999   -6.5650   23.8226 C   0  0  0  0  0  0
  -21.3652   -5.6805   24.9188 C   0  0  0  0  0  0
  -21.6033   -4.3065   24.7231 C   0  0  0  0  0  0
  -21.8816   -3.8159   23.4356 C   0  0  0  0  0  0
  -21.9184   -4.6972   22.3408 C   0  0  0  0  0  0
  -22.7841  -13.5241   21.1864 C   0  0  0  0  0  0
  -22.1661   -4.2166   21.0975 F   0  0  0  0  0  0
  -21.5623   -3.4537   25.7729 F   0  0  0  0  0  0
  -30.0377  -13.2184   20.4474 N   0  0  0  0  0  0
  -26.2959  -12.9255   20.3343 N   0  0  0  0  0  0
  -25.9261  -11.6418   20.5756 N   0  0  0  0  0  0
  -22.0459  -12.8235   22.0427 N   0  0  0  0  0  0
  -25.4243  -15.1861   20.4079 N   0  0  0  0  0  0
  -31.8476  -14.5813   20.1230 O   0  0  0  0  0  0
  -21.6614   -6.8881   21.4263 O   0  0  0  0  0  0
  -22.3522  -14.5534   20.6732 O   0  0  0  0  0  0
  -24.6105  -31.8725   23.2143 C   0  0  0  0  0  0
  -25.9015  -32.4849   23.8425 C   0  0  1  0  0  0
  -27.2406  -27.4708   20.0780 C   0  0  0  0  0  0
  -25.5895  -33.8641   24.2353 N   0  0  0  0  0  0
  -23.3962  -30.4975   21.5552 C   0  0  2  0  0  0
  -24.8412  -28.9643   20.1186 C   0  0  0  0  0  0
  -22.7388  -29.4673   22.5009 C   0  0  0  0  0  0
  -18.0265  -28.1384   22.8496 C   0  0  0  0  0  0
  -24.1487  -36.7325   23.2642 C   0  0  0  0  0  0
  -25.9218  -30.8448   21.3659 C   0  0  0  0  0  0
  -25.9973  -29.4810   20.7138 C   0  0  0  0  0  0
  -27.1942  -28.7367   20.6987 C   0  0  0  0  0  0
  -26.0594  -26.9548   19.4901 C   0  0  0  0  0  0
  -24.8633  -27.6963   19.5116 C   0  0  0  0  0  0
  -23.6035  -29.8310   20.1680 C   0  0  0  0  0  0
  -25.4112  -36.3121   24.0339 C   0  0  1  0  0  0
  -20.5855  -28.3661   23.1335 C   0  0  2  0  0  0
  -20.6759  -26.9402   22.5425 C   0  0  0  0  0  0
  -19.5737  -26.6389   21.5221 C   0  0  0  0  0  0
  -18.1914  -26.7930   22.1625 C   0  0  0  0  0  0
  -19.1513  -28.8836   23.2916 C   0  0  0  0  0  0
  -18.9445  -30.1448   23.8923 C   0  0  0  0  0  0
  -17.6448  -30.6592   24.0570 C   0  0  0  0  0  0
  -25.9028  -34.9481   23.5151 C   0  0  0  0  0  0
  -16.5343  -29.9097   23.6322 C   0  0  0  0  0  0
  -16.7258  -28.6514   23.0343 C   0  0  0  0  0  0
  -26.4460  -31.6625   25.0742 C   0  0  0  0  0  0
  -25.3738  -31.3713   26.1499 C   0  0  0  0  0  0
  -27.0290  -30.3071   24.6101 C   0  0  0  0  0  0
  -27.6046  -32.4337   25.7497 C   0  0  0  0  0  0
  -27.5577  -37.1825   24.8468 C   0  0  0  0  0  0
  -21.4119  -29.3039   22.3751 N   0  0  0  0  0  0
  -26.4299  -37.3804   23.9394 N   0  0  0  0  0  0
  -24.6612  -31.0842   22.1050 N   0  0  0  0  0  0
  -23.4174  -28.8216   23.3039 O   0  0  0  0  0  0
  -28.4464  -26.8068   20.0720 O   0  0  0  0  0  0
  -26.5584  -34.8933   22.4698 O   0  0  0  0  0  0
  -23.5309  -32.1454   23.7562 O   0  0  0  0  0  0
  -29.9916  -25.0900   19.3995 C   0  0  0  0  0  0
  -28.5596  -25.6187   19.2976 C   0  0  0  0  0  0
  -28.4241  -20.4258   17.6337 C   0  0  0  0  0  0
  -29.7432  -20.7777   18.3486 C   0  0  0  0  0  0
  -27.6087  -19.3040   18.3020 C   0  0  0  0  0  0
  -30.5220  -21.8686   17.5939 C   0  0  0  0  0  0
  -28.3624  -17.9625   18.3214 C   0  0  0  0  0  0
  -31.6441  -22.5269   18.4245 C   0  0  0  0  0  0
  -28.7637  -17.5017   19.7339 C   0  0  0  0  0  0
  -31.8525  -24.0281   18.1241 C   0  0  0  0  0  0
  -30.0111  -16.6043   19.7326 C   0  0  0  0  0  0
  -30.6043  -24.7780   18.2521 N   0  0  0  0  0  0
  -29.8531  -15.4439   20.6026 N   0  0  0  0  0  0
  -30.5260  -24.9400   20.5009 O   0  0  0  0  0  0
  -31.4592  -12.3015   19.1357 H   0  0  0  0  0  0
  -30.2728  -11.2180   19.8182 H   0  0  0  0  0  0
  -29.7250  -11.7605   17.4146 H   0  0  0  0  0  0
  -29.6752  -13.4647   17.7985 H   0  0  0  0  0  0
  -27.8174  -11.2925   18.8158 H   0  0  0  0  0  0
  -27.3650  -12.6206   17.7800 H   0  0  0  0  0  0
  -27.6988  -14.2318   19.5659 H   0  0  0  0  0  0
  -28.6411  -11.9275   21.3534 H   0  0  0  0  0  0
  -28.4872  -13.5821   21.8626 H   0  0  0  0  0  0
  -25.2739   -9.5685   22.4766 H   0  0  0  0  0  0
  -23.9999   -7.4608   22.7473 H   0  0  0  0  0  0
  -21.0820   -8.8744   19.8937 H   0  0  0  0  0  0
  -22.3656  -10.9671   19.6153 H   0  0  0  0  0  0
  -21.1997   -7.6157   23.9739 H   0  0  0  0  0  0
  -21.1470   -6.0525   25.9092 H   0  0  0  0  0  0
  -22.0599   -2.7626   23.2835 H   0  0  0  0  0  0
  -22.4064  -11.9911   22.4844 H   0  0  0  0  0  0
  -21.1088  -13.1244   22.2621 H   0  0  0  0  0  0
  -24.6428  -15.8269   20.5151 H   0  0  0  0  0  0
  -26.2598  -15.6321   20.0554 H   0  0  0  0  0  0
  -26.7093  -32.5564   23.1200 H   0  0  0  0  0  0
  -25.0065  -33.9823   25.0512 H   0  0  0  0  0  0
  -22.6824  -31.3126   21.4196 H   0  0  0  0  0  0
  -23.3735  -35.9673   23.3348 H   0  0  0  0  0  0
  -24.3570  -36.8893   22.2043 H   0  0  0  0  0  0
  -23.7252  -37.6555   23.6624 H   0  0  0  0  0  0
  -26.0314  -31.6105   20.5966 H   0  0  0  0  0  0
  -26.8119  -30.8976   21.9813 H   0  0  0  0  0  0
  -28.0908  -29.1356   21.1533 H   0  0  0  0  0  0
  -26.0363  -25.9880   19.0109 H   0  0  0  0  0  0
  -23.9699  -27.2904   19.0582 H   0  0  0  0  0  0
  -23.7149  -30.6098   19.4123 H   0  0  0  0  0  0
  -22.7259  -29.2554   19.8683 H   0  0  0  0  0  0
  -25.1286  -36.2012   25.0833 H   0  0  0  0  0  0
  -20.9942  -28.3225   24.1458 H   0  0  0  0  0  0
  -20.5679  -26.2266   23.3606 H   0  0  0  0  0  0
  -21.6627  -26.7463   22.1212 H   0  0  0  0  0  0
  -19.6899  -25.6303   21.1244 H   0  0  0  0  0  0
  -19.6682  -27.3203   20.6759 H   0  0  0  0  0  0
  -17.4189  -26.6690   21.4024 H   0  0  0  0  0  0
  -18.0305  -26.0073   22.9017 H   0  0  0  0  0  0
  -19.7918  -30.7254   24.2303 H   0  0  0  0  0  0
  -17.5007  -31.6270   24.5168 H   0  0  0  0  0  0
  -15.5345  -30.3011   23.7631 H   0  0  0  0  0  0
  -15.8654  -28.0847   22.7037 H   0  0  0  0  0  0
  -24.5900  -30.7075   25.7836 H   0  0  0  0  0  0
  -24.8939  -32.2865   26.4977 H   0  0  0  0  0  0
  -25.8098  -30.8860   27.0241 H   0  0  0  0  0  0
  -26.2829  -29.6841   24.1148 H   0  0  0  0  0  0
  -27.4070  -29.7294   25.4552 H   0  0  0  0  0  0
  -27.8665  -30.4406   23.9240 H   0  0  0  0  0  0
  -27.2673  -33.3622   26.2111 H   0  0  0  0  0  0
  -28.3830  -32.6919   25.0306 H   0  0  0  0  0  0
  -28.0744  -31.8440   26.5381 H   0  0  0  0  0  0
  -28.2632  -38.0093   24.7481 H   0  0  0  0  0  0
  -28.1044  -36.2618   24.6347 H   0  0  0  0  0  0
  -27.2289  -37.1545   25.8877 H   0  0  0  0  0  0
  -20.9268  -29.8770   21.6990 H   0  0  0  0  0  0
  -26.0200  -38.2896   24.1372 H   0  0  0  0  0  0
  -27.8887  -24.8454   19.6739 H   0  0  0  0  0  0
  -28.3067  -25.8152   18.2553 H   0  0  0  0  0  0
  -28.6323  -20.1406   16.6032 H   0  0  0  0  0  0
  -27.7997  -21.3174   17.5736 H   0  0  0  0  0  0
  -30.3746  -19.8937   18.4551 H   0  0  0  0  0  0
  -29.5140  -21.1067   19.3626 H   0  0  0  0  0  0
  -26.6842  -19.1770   17.7406 H   0  0  0  0  0  0
  -27.2991  -19.5943   19.3054 H   0  0  0  0  0  0
  -29.8042  -22.6143   17.2639 H   0  0  0  0  0  0
  -30.9434  -21.4570   16.6761 H   0  0  0  0  0  0
  -29.2437  -18.0317   17.6821 H   0  0  0  0  0  0
  -27.7492  -17.1915   17.8553 H   0  0  0  0  0  0
  -32.5813  -21.9936   18.2621 H   0  0  0  0  0  0
  -31.4341  -22.4203   19.4900 H   0  0  0  0  0  0
  -27.9142  -16.9941   20.1908 H   0  0  0  0  0  0
  -28.9660  -18.3665   20.3672 H   0  0  0  0  0  0
  -32.2292  -24.1571   17.1074 H   0  0  0  0  0  0
  -32.6095  -24.4507   18.7910 H   0  0  0  0  0  0
  -30.8934  -17.1780   20.0222 H   0  0  0  0  0  0
  -30.2094  -16.2416   18.7212 H   0  0  0  0  0  0
  -30.0987  -24.9697   17.3964 H   0  0  0  0  0  0
  -28.9133  -15.2065   20.8833 H   0  0  0  0  0  0
  1 25  1  0  0  0
  1 30  2  0  0  0
  1 83  1  0  0  0
  2  3  1  0  0  0
  2 25  1  0  0  0
  2 85  1  0  0  0
  2 86  1  0  0  0
  3  4  1  0  0  0
  3 87  1  0  0  0
  3 88  1  0  0  0
  4  5  1  0  0  0
  4 89  1  0  0  0
  4 90  1  0  0  0
  5  6  1  0  0  0
  5 26  1  0  0  0
  5 91  1  0  0  0
  6 25  1  0  0  0
  6 92  1  0  0  0
  6 93  1  0  0  0
  7  8  2  0  0  0
  7 26  1  0  0  0
  7 29  1  0  0  0
  8  9  1  0  0  0
  8 22  1  0  0  0
  9 10  1  0  0  0
  9 27  2  0  0  0
 10 11  2  0  0  0
 10 15  1  0  0  0
 11 12  1  0  0  0
 11 94  1  0  0  0
 12 13  2  0  0  0
 12 95  1  0  0  0
 13 14  1  0  0  0
 13 31  1  0  0  0
 14 15  2  0  0  0
 14 96  1  0  0  0
 15 97  1  0  0  0
 16 17  2  0  0  0
 16 21  1  0  0  0
 16 31  1  0  0  0
 17 18  1  0  0  0
 17 98  1  0  0  0
 18 19  2  0  0  0
 18 99  1  0  0  0
 19 20  1  0  0  0
 19 24  1  0  0  0
 20 21  2  0  0  0
 20100  1  0  0  0
 21 23  1  0  0  0
 22 28  1  0  0  0
 22 32  2  0  0  0
 26 27  1  0  0  0
 28101  1  0  0  0
 28102  1  0  0  0
 29103  1  0  0  0
 29104  1  0  0  0
 33 34  1  0  0  0
 33 66  1  0  0  0
 33 70  2  0  0  0
 34 36  1  0  0  0
 34 59  1  0  0  0
 34105  1  0  0  0
 35 44  2  0  0  0
 35 45  1  0  0  0
 35 68  1  0  0  0
 36 56  1  0  0  0
 36106  1  0  0  0
 37 39  1  0  0  0
 37 47  1  0  0  0
 37 66  1  0  0  0
 37107  1  0  0  0
 38 43  2  0  0  0
 38 46  1  0  0  0
 38 47  1  0  0  0
 39 64  1  0  0  0
 39 67  2  0  0  0
 40 52  1  0  0  0
 40 53  2  0  0  0
 40 58  1  0  0  0
 41108  1  0  0  0
 41109  1  0  0  0
 41110  1  0  0  0
 41 48  1  0  0  0
 42 43  1  0  0  0
 42 66  1  0  0  0
 42111  1  0  0  0
 42112  1  0  0  0
 43 44  1  0  0  0
 44113  1  0  0  0
 45 46  2  0  0  0
 45114  1  0  0  0
 46115  1  0  0  0
 47116  1  0  0  0
 47117  1  0  0  0
 48 56  1  0  0  0
 48 65  1  0  0  0
 48118  1  0  0  0
 49 50  1  0  0  0
 49 53  1  0  0  0
 49 64  1  0  0  0
 49119  1  0  0  0
 50 51  1  0  0  0
 50120  1  0  0  0
 50121  1  0  0  0
 51 52  1  0  0  0
 51122  1  0  0  0
 51123  1  0  0  0
 52124  1  0  0  0
 52125  1  0  0  0
 53 54  1  0  0  0
 54 55  2  0  0  0
 54126  1  0  0  0
 55 57  1  0  0  0
 55127  1  0  0  0
 56 69  2  0  0  0
 57 58  2  0  0  0
 57128  1  0  0  0
 58129  1  0  0  0
 59 60  1  0  0  0
 59 61  1  0  0  0
 59 62  1  0  0  0
 60130  1  0  0  0
 60131  1  0  0  0
 60132  1  0  0  0
 61133  1  0  0  0
 61134  1  0  0  0
 61135  1  0  0  0
 62136  1  0  0  0
 62137  1  0  0  0
 62138  1  0  0  0
 63 65  1  0  0  0
 63139  1  0  0  0
 63140  1  0  0  0
 63141  1  0  0  0
 64142  1  0  0  0
 65143  1  0  0  0
 68 72  1  0  0  0
 71 72  1  0  0  0
 71 82  1  0  0  0
 71 84  2  0  0  0
 72144  1  0  0  0
 72145  1  0  0  0
 73 74  1  0  0  0
 73 75  1  0  0  0
 73146  1  0  0  0
 73147  1  0  0  0
 74 76  1  0  0  0
 74148  1  0  0  0
 74149  1  0  0  0
 75 77  1  0  0  0
 75150  1  0  0  0
 75151  1  0  0  0
 76 78  1  0  0  0
 76152  1  0  0  0
 76153  1  0  0  0
 77 79  1  0  0  0
 77154  1  0  0  0
 77155  1  0  0  0
 78 80  1  0  0  0
 78156  1  0  0  0
 78157  1  0  0  0
 79 81  1  0  0  0
 79158  1  0  0  0
 79159  1  0  0  0
 80 82  1  0  0  0
 80160  1  0  0  0
 80161  1  0  0  0
 81 83  1  0  0  0
 81162  1  0  0  0
 81163  1  0  0  0
 82164  1  0  0  0
 83165  1  0  0  0
M  ISO  4   1 100  68 101  72 101  83 100
M  END
> <chiral flag>
0

> <version>
0

> <s_m_source_file>
/data/baiqing/PycharmProjects/Reinvent-master-3.2/result/LINK_invent/BTK/process_docking_weight1_custom_sum_contain_oxygen_bond_distance_aromatic_linkinvent_7_9_3/rearranged_h_0004.sdf

> <i_m_source_file_index>
98

> <r_mmod_Potential_Energy-OPLS-2005>
-66.6205215454102

> <r_mmod_Stretch_Energy-OPLS-2005>
30.2361679077148

> <r_mmod_Bend_Energy-OPLS-2005>
92.1136245727539

> <r_mmod_Torsional_Energy-OPLS-2005>
255.324172973633

> <r_mmod_Improper_Torsional_Energy-OPLS-2005>
13.7988767623901

> <r_mmod_Van_der_Waal_Energy-OPLS-2005>
141.822113037109

> <r_mmod_Electrostatic_Energy-OPLS-2005>
-372.909118652344

> <r_mmod_Solvation_Energy-OPLS-2005>
-240.586563110352

> <b_mmod_Minimization_Converged-OPLS-2005>
0

> <r_mmod_RMS_Derivative-OPLS-2005>
4.37796878814697

$$$$
