0
                    3D
 Structure written by MMmdl.
173182  0  0  1  0            999 V2000
  -30.7679  -14.3834   20.6475 C   0  0  0  0  0  0
  -30.4312  -12.3127   19.3576 C   0  0  0  0  0  0
  -29.4784  -12.5492   18.1723 C   0  0  0  0  0  0
  -28.0024  -12.4123   18.5999 C   0  0  0  0  0  0
  -27.6732  -13.2050   19.8938 C   0  0  2  0  0  0
  -28.7305  -12.9287   20.9871 C   0  0  0  0  0  0
  -25.2600  -13.8069   20.5611 C   0  0  0  0  0  0
  -24.1868  -13.0368   20.9184 C   0  0  0  0  0  0
  -24.6452  -11.6841   20.8824 C   0  0  0  0  0  0
  -23.9126  -10.4236   21.0453 C   0  0  0  0  0  0
  -24.3623   -9.4109   21.9225 C   0  0  0  0  0  0
  -23.6256   -8.2171   22.0764 C   0  0  0  0  0  0
  -22.4244   -8.0276   21.3523 C   0  0  0  0  0  0
  -21.9903   -9.0292   20.4649 C   0  0  0  0  0  0
  -22.7297  -10.2139   20.3077 C   0  0  0  0  0  0
  -21.6791   -6.0788   22.5314 C   0  0  0  0  0  0
  -21.4012   -6.5697   23.8250 C   0  0  0  0  0  0
  -21.3614   -5.6826   24.9197 C   0  0  0  0  0  0
  -21.5988   -4.3097   24.7215 C   0  0  0  0  0  0
  -21.8813   -3.8189   23.4340 C   0  0  0  0  0  0
  -21.9138   -4.7014   22.3410 C   0  0  0  0  0  0
  -22.7877  -13.5182   21.1781 C   0  0  0  0  0  0
  -22.1592   -4.2210   21.0990 F   0  0  0  0  0  0
  -21.5555   -3.4590   25.7727 F   0  0  0  0  0  0
  -30.0539  -13.2489   20.4243 N   0  0  0  0  0  0
  -26.3106  -12.9270   20.3490 N   0  0  0  0  0  0
  -25.9394  -11.6433   20.5890 N   0  0  0  0  0  0
  -22.0438  -12.8299   22.0391 N   0  0  0  0  0  0
  -25.4112  -15.1757   20.3707 N   0  0  0  0  0  0
  -31.8533  -14.6035   20.1142 O   0  0  0  0  0  0
  -21.6509   -6.8951   21.4293 O   0  0  0  0  0  0
  -22.3593  -14.5436   20.6541 O   0  0  0  0  0  0
  -24.6110  -31.8750   23.2121 C   0  0  0  0  0  0
  -25.9025  -32.4844   23.8411 C   0  0  1  0  0  0
  -27.2383  -27.4831   20.0730 C   0  0  0  0  0  0
  -25.5909  -33.8637   24.2370 N   0  0  0  0  0  0
  -23.3954  -30.5001   21.5530 C   0  0  2  0  0  0
  -24.8410  -28.9727   20.1145 C   0  0  0  0  0  0
  -22.7380  -29.4749   22.5025 C   0  0  0  0  0  0
  -18.0282  -28.1392   22.8507 C   0  0  0  0  0  0
  -24.1497  -36.7257   23.2658 C   0  0  0  0  0  0
  -25.9204  -30.8557   21.3606 C   0  0  0  0  0  0
  -26.0006  -29.4951   20.7003 C   0  0  0  0  0  0
  -27.2078  -28.7613   20.6780 C   0  0  0  0  0  0
  -26.0594  -26.9605   19.5098 C   0  0  0  0  0  0
  -24.8627  -27.7007   19.5138 C   0  0  0  0  0  0
  -23.6002  -29.8345   20.1674 C   0  0  0  0  0  0
  -25.4117  -36.3107   24.0385 C   0  0  1  0  0  0
  -20.5865  -28.3689   23.1336 C   0  0  2  0  0  0
  -20.6798  -26.9440   22.5437 C   0  0  0  0  0  0
  -19.5767  -26.6400   21.5249 C   0  0  0  0  0  0
  -18.1929  -26.7947   22.1631 C   0  0  0  0  0  0
  -19.1528  -28.8858   23.2923 C   0  0  0  0  0  0
  -18.9468  -30.1458   23.8915 C   0  0  0  0  0  0
  -17.6470  -30.6608   24.0583 C   0  0  0  0  0  0
  -25.9029  -34.9480   23.5177 C   0  0  0  0  0  0
  -16.5361  -29.9112   23.6334 C   0  0  0  0  0  0
  -16.7271  -28.6540   23.0350 C   0  0  0  0  0  0
  -26.4452  -31.6598   25.0716 C   0  0  0  0  0  0
  -25.3683  -31.3712   26.1435 C   0  0  0  0  0  0
  -27.0386  -30.3086   24.6102 C   0  0  0  0  0  0
  -27.6063  -32.4306   25.7416 C   0  0  0  0  0  0
  -27.5601  -37.1798   24.8496 C   0  0  0  0  0  0
  -21.4138  -29.3052   22.3731 N   0  0  0  0  0  0
  -26.4311  -37.3776   23.9439 N   0  0  0  0  0  0
  -24.6585  -31.0886   22.1003 N   0  0  0  0  0  0
  -23.4169  -28.8335   23.3106 O   0  0  0  0  0  0
  -28.3512  -26.6800   19.9822 O   0  0  0  0  0  0
  -26.5568  -34.8934   22.4707 O   0  0  0  0  0  0
  -23.5313  -32.1513   23.7523 O   0  0  0  0  0  0
  -31.5057  -19.6231   20.4481 C   0  0  0  0  0  0
  -29.7013  -19.9582   22.0371 C   0  0  0  0  0  0
  -30.5890  -20.4786   21.0762 C   0  0  0  0  0  0
  -31.6146  -18.2738   20.8142 C   0  0  0  0  0  0
  -30.7351  -17.7323   21.7948 C   0  0  0  0  0  0
  -29.7695  -18.5845   22.4056 C   0  0  0  0  0  0
  -29.4732  -22.4663   19.9023 C   0  0  0  0  0  0
  -30.9149  -22.9013   21.8972 C   0  0  0  0  0  0
  -29.8430  -23.8554   19.3472 C   0  0  0  0  0  0
  -31.2990  -24.2767   21.3312 C   0  0  0  0  0  0
  -30.6581  -21.9528   20.7186 C   0  0  1  0  0  0
  -32.7438  -17.4838   20.1736 C   0  0  0  0  0  0
  -27.9248  -18.8245   23.9485 C   0  0  0  0  0  0
  -30.8811  -16.2792   22.2792 C   0  0  0  0  0  0
  -30.6449  -26.1439   19.8371 C   0  0  0  0  0  0
  -29.6333  -27.2287   20.2357 C   0  0  0  0  0  0
  -30.1989  -15.2487   21.4957 N   0  0  0  0  0  0
  -30.2638  -24.8218   20.4065 N   0  3  1  0  0  0
  -28.9586  -18.0346   23.3747 O   0  0  0  0  0  0
  -31.4609  -12.4474   19.0153 H   0  0  0  0  0  0
  -30.3669  -11.2856   19.7183 H   0  0  0  0  0  0
  -29.7086  -11.8634   17.3562 H   0  0  0  0  0  0
  -29.6476  -13.5531   17.7754 H   0  0  0  0  0  0
  -27.7792  -11.3545   18.7386 H   0  0  0  0  0  0
  -27.3479  -12.7477   17.7946 H   0  0  0  0  0  0
  -27.7308  -14.2667   19.6558 H   0  0  0  0  0  0
  -28.7195  -11.8761   21.2702 H   0  0  0  0  0  0
  -28.5141  -13.4731   21.9083 H   0  0  0  0  0  0
  -25.2760   -9.5501   22.4827 H   0  0  0  0  0  0
  -23.9900   -7.4521   22.7478 H   0  0  0  0  0  0
  -21.0800   -8.8889   19.8947 H   0  0  0  0  0  0
  -22.3825  -10.9707   19.6190 H   0  0  0  0  0  0
  -21.2102   -7.6221   23.9825 H   0  0  0  0  0  0
  -21.1379   -6.0521   25.9105 H   0  0  0  0  0  0
  -22.0626   -2.7666   23.2796 H   0  0  0  0  0  0
  -22.4028  -12.0072   22.4979 H   0  0  0  0  0  0
  -21.1033  -13.1355   22.2444 H   0  0  0  0  0  0
  -24.6122  -15.7965   20.4564 H   0  0  0  0  0  0
  -26.2177  -15.6206   19.9523 H   0  0  0  0  0  0
  -26.7098  -32.5578   23.1184 H   0  0  0  0  0  0
  -25.0133  -33.9774   25.0573 H   0  0  0  0  0  0
  -22.6853  -31.3179   21.4181 H   0  0  0  0  0  0
  -23.3787  -35.9557   23.3331 H   0  0  0  0  0  0
  -24.3623  -36.8814   22.2069 H   0  0  0  0  0  0
  -23.7200  -37.6462   23.6618 H   0  0  0  0  0  0
  -26.0361  -31.6358   20.6062 H   0  0  0  0  0  0
  -26.8050  -30.8982   21.9834 H   0  0  0  0  0  0
  -28.0927  -29.1913   21.1240 H   0  0  0  0  0  0
  -26.0715  -25.9816   19.0509 H   0  0  0  0  0  0
  -23.9736  -27.2917   19.0549 H   0  0  0  0  0  0
  -23.6996  -30.6123   19.4090 H   0  0  0  0  0  0
  -22.7235  -29.2538   19.8733 H   0  0  0  0  0  0
  -25.1297  -36.1973   25.0883 H   0  0  0  0  0  0
  -20.9954  -28.3262   24.1459 H   0  0  0  0  0  0
  -20.5761  -26.2308   23.3626 H   0  0  0  0  0  0
  -21.6670  -26.7548   22.1195 H   0  0  0  0  0  0
  -19.6943  -25.6317   21.1269 H   0  0  0  0  0  0
  -19.6689  -27.3226   20.6786 H   0  0  0  0  0  0
  -17.4232  -26.6727   21.4001 H   0  0  0  0  0  0
  -18.0297  -26.0080   22.9005 H   0  0  0  0  0  0
  -19.7954  -30.7278   24.2273 H   0  0  0  0  0  0
  -17.5047  -31.6281   24.5200 H   0  0  0  0  0  0
  -15.5367  -30.3031   23.7666 H   0  0  0  0  0  0
  -15.8674  -28.0875   22.7028 H   0  0  0  0  0  0
  -24.5813  -30.7139   25.7711 H   0  0  0  0  0  0
  -24.8898  -32.2880   26.4901 H   0  0  0  0  0  0
  -25.7957  -30.8808   27.0181 H   0  0  0  0  0  0
  -26.3011  -29.6702   24.1229 H   0  0  0  0  0  0
  -27.4326  -29.7460   25.4572 H   0  0  0  0  0  0
  -27.8710  -30.4526   23.9211 H   0  0  0  0  0  0
  -27.2766  -33.3628   26.2016 H   0  0  0  0  0  0
  -28.3796  -32.6816   25.0138 H   0  0  0  0  0  0
  -28.0800  -31.8396   26.5262 H   0  0  0  0  0  0
  -28.2633  -38.0085   24.7551 H   0  0  0  0  0  0
  -28.1099  -36.2625   24.6322 H   0  0  0  0  0  0
  -27.2345  -37.1431   25.8910 H   0  0  0  0  0  0
  -20.9286  -29.8687   21.6869 H   0  0  0  0  0  0
  -26.0216  -38.2874   24.1379 H   0  0  0  0  0  0
  -32.1838  -20.0283   19.7095 H   0  0  0  0  0  0
  -29.0057  -20.6421   22.5007 H   0  0  0  0  0  0
  -29.2745  -21.7856   19.0713 H   0  0  0  0  0  0
  -28.5645  -22.4983   20.5090 H   0  0  0  0  0  0
  -30.0408  -22.9818   22.5445 H   0  0  0  0  0  0
  -31.7343  -22.5325   22.5170 H   0  0  0  0  0  0
  -29.0044  -24.2613   18.7823 H   0  0  0  0  0  0
  -30.6638  -23.7377   18.6359 H   0  0  0  0  0  0
  -32.2450  -24.1876   20.7901 H   0  0  0  0  0  0
  -31.4745  -24.9761   22.1516 H   0  0  0  0  0  0
  -31.5336  -22.0500   20.0742 H   0  0  0  0  0  0
  -33.2149  -16.8216   20.8944 H   0  0  0  0  0  0
  -33.5340  -18.1353   19.8033 H   0  0  0  0  0  0
  -32.3944  -16.9075   19.3201 H   0  0  0  0  0  0
  -27.2558  -18.1550   24.4897 H   0  0  0  0  0  0
  -27.3267  -19.3465   23.2039 H   0  0  0  0  0  0
  -28.3122  -19.5554   24.6580 H   0  0  0  0  0  0
  -30.4668  -16.1929   23.2823 H   0  0  0  0  0  0
  -31.9304  -16.0191   22.4210 H   0  0  0  0  0  0
  -31.6476  -26.4399   20.1503 H   0  0  0  0  0  0
  -30.6986  -26.0842   18.7486 H   0  0  0  0  0  0
  -29.7936  -28.1256   19.6351 H   0  0  0  0  0  0
  -29.7378  -27.4964   21.2876 H   0  0  0  0  0  0
  -29.2674  -15.0032   21.7973 H   0  0  0  0  0  0
  -29.4356  -25.0053   20.9588 H   0  0  0  0  0  0
  1 25  1  0  0  0
  1 30  2  0  0  0
  1 87  1  0  0  0
  2  3  1  0  0  0
  2 25  1  0  0  0
  2 90  1  0  0  0
  2 91  1  0  0  0
  3  4  1  0  0  0
  3 92  1  0  0  0
  3 93  1  0  0  0
  4  5  1  0  0  0
  4 94  1  0  0  0
  4 95  1  0  0  0
  5  6  1  0  0  0
  5 26  1  0  0  0
  5 96  1  0  0  0
  6 25  1  0  0  0
  6 97  1  0  0  0
  6 98  1  0  0  0
  7  8  2  0  0  0
  7 26  1  0  0  0
  7 29  1  0  0  0
  8  9  1  0  0  0
  8 22  1  0  0  0
  9 10  1  0  0  0
  9 27  2  0  0  0
 10 11  2  0  0  0
 10 15  1  0  0  0
 11 12  1  0  0  0
 11 99  1  0  0  0
 12 13  2  0  0  0
 12100  1  0  0  0
 13 14  1  0  0  0
 13 31  1  0  0  0
 14 15  2  0  0  0
 14101  1  0  0  0
 15102  1  0  0  0
 16 17  2  0  0  0
 16 21  1  0  0  0
 16 31  1  0  0  0
 17 18  1  0  0  0
 17103  1  0  0  0
 18 19  2  0  0  0
 18104  1  0  0  0
 19 20  1  0  0  0
 19 24  1  0  0  0
 20 21  2  0  0  0
 20105  1  0  0  0
 21 23  1  0  0  0
 22 28  1  0  0  0
 22 32  2  0  0  0
 26 27  1  0  0  0
 28106  1  0  0  0
 28107  1  0  0  0
 29108  1  0  0  0
 29109  1  0  0  0
 33 34  1  0  0  0
 33 66  1  0  0  0
 33 70  2  0  0  0
 34 36  1  0  0  0
 34 59  1  0  0  0
 34110  1  0  0  0
 35 44  2  0  0  0
 35 45  1  0  0  0
 35 68  1  0  0  0
 36 56  1  0  0  0
 36111  1  0  0  0
 37 39  1  0  0  0
 37 47  1  0  0  0
 37 66  1  0  0  0
 37112  1  0  0  0
 38 43  2  0  0  0
 38 46  1  0  0  0
 38 47  1  0  0  0
 39 64  1  0  0  0
 39 67  2  0  0  0
 40 52  1  0  0  0
 40 53  2  0  0  0
 40 58  1  0  0  0
 41113  1  0  0  0
 41114  1  0  0  0
 41115  1  0  0  0
 41 48  1  0  0  0
 42 43  1  0  0  0
 42 66  1  0  0  0
 42116  1  0  0  0
 42117  1  0  0  0
 43 44  1  0  0  0
 44118  1  0  0  0
 45 46  2  0  0  0
 45119  1  0  0  0
 46120  1  0  0  0
 47121  1  0  0  0
 47122  1  0  0  0
 48 56  1  0  0  0
 48 65  1  0  0  0
 48123  1  0  0  0
 49 50  1  0  0  0
 49 53  1  0  0  0
 49 64  1  0  0  0
 49124  1  0  0  0
 50 51  1  0  0  0
 50125  1  0  0  0
 50126  1  0  0  0
 51 52  1  0  0  0
 51127  1  0  0  0
 51128  1  0  0  0
 52129  1  0  0  0
 52130  1  0  0  0
 53 54  1  0  0  0
 54 55  2  0  0  0
 54131  1  0  0  0
 55 57  1  0  0  0
 55132  1  0  0  0
 56 69  2  0  0  0
 57 58  2  0  0  0
 57133  1  0  0  0
 58134  1  0  0  0
 59 60  1  0  0  0
 59 61  1  0  0  0
 59 62  1  0  0  0
 60135  1  0  0  0
 60136  1  0  0  0
 60137  1  0  0  0
 61138  1  0  0  0
 61139  1  0  0  0
 61140  1  0  0  0
 62141  1  0  0  0
 62142  1  0  0  0
 62143  1  0  0  0
 63 65  1  0  0  0
 63144  1  0  0  0
 63145  1  0  0  0
 63146  1  0  0  0
 64147  1  0  0  0
 65148  1  0  0  0
 68 86  1  0  0  0
 71 73  2  0  0  0
 71 74  1  0  0  0
 71149  1  0  0  0
 72 73  1  0  0  0
 72 76  2  0  0  0
 72150  1  0  0  0
 73 81  1  0  0  0
 74 75  2  0  0  0
 74 82  1  0  0  0
 75 76  1  0  0  0
 75 84  1  0  0  0
 76 89  1  0  0  0
 77 79  1  0  0  0
 77 81  1  0  0  0
 77151  1  0  0  0
 77152  1  0  0  0
 78 80  1  0  0  0
 78 81  1  0  0  0
 78153  1  0  0  0
 78154  1  0  0  0
 79 88  1  0  0  0
 79155  1  0  0  0
 79156  1  0  0  0
 80 88  1  0  0  0
 80157  1  0  0  0
 80158  1  0  0  0
 81159  1  0  0  0
 82160  1  0  0  0
 82161  1  0  0  0
 82162  1  0  0  0
 83 89  1  0  0  0
 83163  1  0  0  0
 83164  1  0  0  0
 83165  1  0  0  0
 84 87  1  0  0  0
 84166  1  0  0  0
 84167  1  0  0  0
 85 86  1  0  0  0
 85168  1  0  0  0
 85169  1  0  0  0
 85 88  1  0  0  0
 86170  1  0  0  0
 86171  1  0  0  0
 87172  1  0  0  0
 88173  1  0  0  0
M  CHG  1  88   1
M  ISO  4   1 100  68 101  86 101  87 100
M  END
> <chiral flag>
0

> <version>
0

> <s_m_source_file>
/data/baiqing/PycharmProjects/Reinvent-master-3.2/result/LINK_invent/BTK/process_docking_weight1_custom_sum_contain_oxygen_bond_distance_aromatic_linkinvent_7_9_3/rearranged_h_0156.sdf

> <i_m_source_file_index>
1

> <r_mmod_Potential_Energy-OPLS-2005>
-142.170440673828

> <r_mmod_Stretch_Energy-OPLS-2005>
36.2361602783203

> <r_mmod_Bend_Energy-OPLS-2005>
121.692535400391

> <r_mmod_Torsional_Energy-OPLS-2005>
250.258361816406

> <r_mmod_Improper_Torsional_Energy-OPLS-2005>
3.30101609230042

> <r_mmod_Van_der_Waal_Energy-OPLS-2005>
175.540908813477

> <r_mmod_Electrostatic_Energy-OPLS-2005>
-325.793365478516

> <r_mmod_Solvation_Energy-OPLS-2005>
-412.985748291016

> <b_mmod_Minimization_Converged-OPLS-2005>
0

> <r_mmod_RMS_Derivative-OPLS-2005>
6.75717449188232

$$$$
1
                    3D
 Structure written by MMmdl.
172180  0  0  1  0            999 V2000
  -30.7903  -14.3561   20.6976 C   0  0  0  0  0  0
  -30.4162  -12.2956   19.3920 C   0  0  0  0  0  0
  -29.4806  -12.5176   18.1895 C   0  0  0  0  0  0
  -28.0065  -12.3772   18.6106 C   0  0  0  0  0  0
  -27.6659  -13.2049   19.8775 C   0  0  2  0  0  0
  -28.7056  -12.9586   20.9934 C   0  0  0  0  0  0
  -25.2606  -13.8158   20.5639 C   0  0  0  0  0  0
  -24.1853  -13.0451   20.9164 C   0  0  0  0  0  0
  -24.6383  -11.6908   20.8714 C   0  0  0  0  0  0
  -23.9041  -10.4297   21.0394 C   0  0  0  0  0  0
  -24.3589   -9.4217   21.9180 C   0  0  0  0  0  0
  -23.6271   -8.2247   22.0753 C   0  0  0  0  0  0
  -22.4265   -8.0272   21.3535 C   0  0  0  0  0  0
  -21.9891   -9.0243   20.4643 C   0  0  0  0  0  0
  -22.7205  -10.2129   20.3054 C   0  0  0  0  0  0
  -21.6852   -6.0721   22.5271 C   0  0  0  0  0  0
  -21.4010   -6.5627   23.8196 C   0  0  0  0  0  0
  -21.3659   -5.6787   24.9159 C   0  0  0  0  0  0
  -21.6050   -4.3050   24.7220 C   0  0  0  0  0  0
  -21.8819   -3.8138   23.4339 C   0  0  0  0  0  0
  -21.9194   -4.6953   22.3392 C   0  0  0  0  0  0
  -22.7881  -13.5256   21.1832 C   0  0  0  0  0  0
  -22.1666   -4.2133   21.0974 F   0  0  0  0  0  0
  -21.5631   -3.4541   25.7731 F   0  0  0  0  0  0
  -30.0491  -13.2441   20.4542 N   0  0  0  0  0  0
  -26.3043  -12.9319   20.3368 N   0  0  0  0  0  0
  -25.9310  -11.6480   20.5761 N   0  0  0  0  0  0
  -22.0519  -12.8250   22.0390 N   0  0  0  0  0  0
  -25.4362  -15.1852   20.3963 N   0  0  0  0  0  0
  -31.7938  -14.6609   20.0474 O   0  0  0  0  0  0
  -21.6639   -6.8863   21.4229 O   0  0  0  0  0  0
  -22.3570  -14.5563   20.6688 O   0  0  0  0  0  0
  -24.6173  -31.8683   23.2145 C   0  0  0  0  0  0
  -25.9065  -32.4808   23.8431 C   0  0  1  0  0  0
  -27.2182  -27.4227   20.0792 C   0  0  0  0  0  0
  -25.5903  -33.8609   24.2346 N   0  0  0  0  0  0
  -23.4026  -30.4994   21.5577 C   0  0  2  0  0  0
  -24.8438  -28.9801   20.1096 C   0  0  0  0  0  0
  -22.7418  -29.4663   22.5009 C   0  0  0  0  0  0
  -18.0267  -28.1350   22.8496 C   0  0  0  0  0  0
  -24.1468  -36.7322   23.2638 C   0  0  0  0  0  0
  -25.9374  -30.8267   21.3752 C   0  0  0  0  0  0
  -26.0086  -29.4641   20.7177 C   0  0  0  0  0  0
  -27.1952  -28.6908   20.7096 C   0  0  0  0  0  0
  -26.0368  -26.9885   19.4234 C   0  0  0  0  0  0
  -24.8540  -27.7396   19.4598 C   0  0  0  0  0  0
  -23.6066  -29.8456   20.1688 C   0  0  0  0  0  0
  -25.4089  -36.3106   24.0335 C   0  0  1  0  0  0
  -20.5860  -28.3637   23.1313 C   0  0  2  0  0  0
  -20.6751  -26.9370   22.5417 C   0  0  0  0  0  0
  -19.5727  -26.6367   21.5211 C   0  0  0  0  0  0
  -18.1905  -26.7897   22.1623 C   0  0  0  0  0  0
  -19.1521  -28.8821   23.2889 C   0  0  0  0  0  0
  -18.9455  -30.1440   23.8886 C   0  0  0  0  0  0
  -17.6456  -30.6561   24.0580 C   0  0  0  0  0  0
  -25.9034  -34.9462   23.5141 C   0  0  0  0  0  0
  -16.5346  -29.9060   23.6333 C   0  0  0  0  0  0
  -16.7257  -28.6483   23.0337 C   0  0  0  0  0  0
  -26.4473  -31.6584   25.0768 C   0  0  0  0  0  0
  -25.3726  -31.3692   26.1510 C   0  0  0  0  0  0
  -27.0324  -30.3028   24.6162 C   0  0  0  0  0  0
  -27.6051  -32.4320   25.7512 C   0  0  0  0  0  0
  -27.5567  -37.1803   24.8456 C   0  0  0  0  0  0
  -21.4149  -29.3021   22.3744 N   0  0  0  0  0  0
  -26.4276  -37.3792   23.9419 N   0  0  0  0  0  0
  -24.6713  -31.0773   22.1062 N   0  0  0  0  0  0
  -23.4198  -28.8194   23.3038 O   0  0  0  0  0  0
  -28.3627  -26.6365   20.1319 O   0  0  0  0  0  0
  -26.5597  -34.8905   22.4700 O   0  0  0  0  0  0
  -23.5373  -32.1458   23.7532 O   0  0  0  0  0  0
  -30.2430  -20.2286   21.1048 C   0  0  0  0  0  0
  -27.9539  -19.4850   21.3862 C   0  0  0  0  0  0
  -27.5517  -20.8338   21.1736 C   0  0  0  0  0  0
  -29.3329  -19.1739   21.3692 C   0  0  0  0  0  0
  -28.5603  -21.8036   20.9508 C   0  0  0  0  0  0
  -25.3391  -17.3229   23.3528 C   0  0  0  0  0  0
  -25.5894  -21.7120   19.7925 C   0  0  0  0  0  0
  -25.7193  -22.2583   22.2849 C   0  0  0  0  0  0
  -26.9463  -18.3606   21.6477 C   0  0  0  0  0  0
  -26.4682  -18.3332   23.1105 C   0  0  0  0  0  0
  -31.2027  -16.1528   22.3713 C   0  0  0  0  0  0
  -31.0703  -17.4961   21.6311 C   0  0  0  0  0  0
  -28.1816  -25.2375   19.8198 C   0  0  0  0  0  0
  -29.0720  -24.1972   20.5364 C   0  0  0  0  0  0
  -26.0661  -21.2462   21.1794 C   0  0  0  0  0  0
  -29.8751  -21.5137   20.9071 N   0  0  0  0  0  0
  -30.4234  -15.0695   21.7665 N   0  0  0  0  0  0
  -29.6960  -17.8638   21.6200 O   0  0  0  0  0  0
  -28.1709  -23.1089   20.7635 O   0  0  0  0  0  0
  -31.4576  -12.3989   19.0821 H   0  0  0  0  0  0
  -30.3201  -11.2749   19.7645 H   0  0  0  0  0  0
  -29.7109  -11.8004   17.3998 H   0  0  0  0  0  0
  -29.6522  -13.5070   17.7637 H   0  0  0  0  0  0
  -27.8139  -11.3200   18.7975 H   0  0  0  0  0  0
  -27.3522  -12.6657   17.7869 H   0  0  0  0  0  0
  -27.7209  -14.2576   19.5987 H   0  0  0  0  0  0
  -28.6668  -11.9182   21.3207 H   0  0  0  0  0  0
  -28.4518  -13.5495   21.8738 H   0  0  0  0  0  0
  -25.2733   -9.5699   22.4752 H   0  0  0  0  0  0
  -23.9986   -7.4652   22.7479 H   0  0  0  0  0  0
  -21.0822   -8.8739   19.8957 H   0  0  0  0  0  0
  -22.3649  -10.9654   19.6160 H   0  0  0  0  0  0
  -21.2000   -7.6134   23.9681 H   0  0  0  0  0  0
  -21.1488   -6.0526   25.9055 H   0  0  0  0  0  0
  -22.0603   -2.7602   23.2845 H   0  0  0  0  0  0
  -22.4133  -11.9909   22.4772 H   0  0  0  0  0  0
  -21.1135  -13.1278   22.2582 H   0  0  0  0  0  0
  -24.6771  -15.8480   20.5011 H   0  0  0  0  0  0
  -26.2951  -15.6084   20.0693 H   0  0  0  0  0  0
  -26.7152  -32.5504   23.1205 H   0  0  0  0  0  0
  -25.0028  -33.9778   25.0470 H   0  0  0  0  0  0
  -22.6924  -31.3187   21.4285 H   0  0  0  0  0  0
  -23.3713  -35.9667   23.3298 H   0  0  0  0  0  0
  -24.3576  -36.8956   22.2060 H   0  0  0  0  0  0
  -23.7243  -37.6532   23.6664 H   0  0  0  0  0  0
  -26.0570  -31.5889   20.6048 H   0  0  0  0  0  0
  -26.8252  -30.8752   21.9951 H   0  0  0  0  0  0
  -28.0861  -29.0537   21.2031 H   0  0  0  0  0  0
  -25.9897  -26.0656   18.8666 H   0  0  0  0  0  0
  -23.9667  -27.3704   18.9640 H   0  0  0  0  0  0
  -23.7071  -30.6264   19.4155 H   0  0  0  0  0  0
  -22.7288  -29.2666   19.8741 H   0  0  0  0  0  0
  -25.1248  -36.1978   25.0826 H   0  0  0  0  0  0
  -20.9950  -28.3191   24.1430 H   0  0  0  0  0  0
  -20.5650  -26.2228   23.3604 H   0  0  0  0  0  0
  -21.6617  -26.7383   22.1215 H   0  0  0  0  0  0
  -19.6879  -25.6281   21.1224 H   0  0  0  0  0  0
  -19.6663  -27.3205   20.6765 H   0  0  0  0  0  0
  -17.4174  -26.6669   21.4022 H   0  0  0  0  0  0
  -18.0285  -26.0015   22.8996 H   0  0  0  0  0  0
  -19.7930  -30.7278   24.2207 H   0  0  0  0  0  0
  -17.5000  -31.6232   24.5187 H   0  0  0  0  0  0
  -15.5346  -30.2963   23.7648 H   0  0  0  0  0  0
  -15.8651  -28.0829   22.7006 H   0  0  0  0  0  0
  -24.5910  -30.7011   25.7870 H   0  0  0  0  0  0
  -24.8874  -32.2829   26.4944 H   0  0  0  0  0  0
  -25.8062  -30.8895   27.0291 H   0  0  0  0  0  0
  -26.2895  -29.6784   24.1187 H   0  0  0  0  0  0
  -27.4074  -29.7262   25.4626 H   0  0  0  0  0  0
  -27.8710  -30.4346   23.9331 H   0  0  0  0  0  0
  -27.2681  -33.3631   26.2076 H   0  0  0  0  0  0
  -28.3836  -32.6880   25.0315 H   0  0  0  0  0  0
  -28.0726  -31.8458   26.5434 H   0  0  0  0  0  0
  -28.2568  -38.0115   24.7523 H   0  0  0  0  0  0
  -28.1090  -36.2651   24.6246 H   0  0  0  0  0  0
  -27.2304  -37.1414   25.8865 H   0  0  0  0  0  0
  -20.9315  -29.8793   21.7010 H   0  0  0  0  0  0
  -26.0156  -38.2868   24.1440 H   0  0  0  0  0  0
  -31.3073  -20.0585   21.0539 H   0  0  0  0  0  0
  -25.0369  -17.3225   24.4002 H   0  0  0  0  0  0
  -25.6520  -16.3099   23.0992 H   0  0  0  0  0  0
  -24.4595  -17.5639   22.7543 H   0  0  0  0  0  0
  -25.7378  -20.9321   19.0454 H   0  0  0  0  0  0
  -26.1134  -22.6028   19.4500 H   0  0  0  0  0  0
  -24.5255  -21.9499   19.8065 H   0  0  0  0  0  0
  -26.0399  -21.8994   23.2637 H   0  0  0  0  0  0
  -24.6409  -22.4145   22.3346 H   0  0  0  0  0  0
  -26.1713  -23.2364   22.1263 H   0  0  0  0  0  0
  -27.3808  -17.3910   21.4046 H   0  0  0  0  0  0
  -26.1090  -18.4383   20.9545 H   0  0  0  0  0  0
  -27.3142  -18.0986   23.7576 H   0  0  0  0  0  0
  -26.1226  -19.3225   23.4079 H   0  0  0  0  0  0
  -30.8696  -16.2780   23.4021 H   0  0  0  0  0  0
  -32.2542  -15.8669   22.4274 H   0  0  0  0  0  0
  -31.4517  -17.4288   20.6113 H   0  0  0  0  0  0
  -31.6753  -18.2274   22.1673 H   0  0  0  0  0  0
  -27.1798  -24.9513   20.1401 H   0  0  0  0  0  0
  -28.2194  -25.0878   18.7402 H   0  0  0  0  0  0
  -29.4164  -24.5730   21.5005 H   0  0  0  0  0  0
  -29.9366  -23.9342   19.9262 H   0  0  0  0  0  0
  -25.4454  -20.3856   21.4114 H   0  0  0  0  0  0
  -29.5872  -14.7772   22.2502 H   0  0  0  0  0  0
  1 25  1  0  0  0
  1 30  2  0  0  0
  1 87  1  0  0  0
  2  3  1  0  0  0
  2 25  1  0  0  0
  2 90  1  0  0  0
  2 91  1  0  0  0
  3  4  1  0  0  0
  3 92  1  0  0  0
  3 93  1  0  0  0
  4  5  1  0  0  0
  4 94  1  0  0  0
  4 95  1  0  0  0
  5  6  1  0  0  0
  5 26  1  0  0  0
  5 96  1  0  0  0
  6 25  1  0  0  0
  6 97  1  0  0  0
  6 98  1  0  0  0
  7  8  2  0  0  0
  7 26  1  0  0  0
  7 29  1  0  0  0
  8  9  1  0  0  0
  8 22  1  0  0  0
  9 10  1  0  0  0
  9 27  2  0  0  0
 10 11  2  0  0  0
 10 15  1  0  0  0
 11 12  1  0  0  0
 11 99  1  0  0  0
 12 13  2  0  0  0
 12100  1  0  0  0
 13 14  1  0  0  0
 13 31  1  0  0  0
 14 15  2  0  0  0
 14101  1  0  0  0
 15102  1  0  0  0
 16 17  2  0  0  0
 16 21  1  0  0  0
 16 31  1  0  0  0
 17 18  1  0  0  0
 17103  1  0  0  0
 18 19  2  0  0  0
 18104  1  0  0  0
 19 20  1  0  0  0
 19 24  1  0  0  0
 20 21  2  0  0  0
 20105  1  0  0  0
 21 23  1  0  0  0
 22 28  1  0  0  0
 22 32  2  0  0  0
 26 27  1  0  0  0
 28106  1  0  0  0
 28107  1  0  0  0
 29108  1  0  0  0
 29109  1  0  0  0
 33 34  1  0  0  0
 33 66  1  0  0  0
 33 70  2  0  0  0
 34 36  1  0  0  0
 34 59  1  0  0  0
 34110  1  0  0  0
 35 44  2  0  0  0
 35 45  1  0  0  0
 35 68  1  0  0  0
 36 56  1  0  0  0
 36111  1  0  0  0
 37 39  1  0  0  0
 37 47  1  0  0  0
 37 66  1  0  0  0
 37112  1  0  0  0
 38 43  2  0  0  0
 38 46  1  0  0  0
 38 47  1  0  0  0
 39 64  1  0  0  0
 39 67  2  0  0  0
 40 52  1  0  0  0
 40 53  2  0  0  0
 40 58  1  0  0  0
 41113  1  0  0  0
 41114  1  0  0  0
 41115  1  0  0  0
 41 48  1  0  0  0
 42 43  1  0  0  0
 42 66  1  0  0  0
 42116  1  0  0  0
 42117  1  0  0  0
 43 44  1  0  0  0
 44118  1  0  0  0
 45 46  2  0  0  0
 45119  1  0  0  0
 46120  1  0  0  0
 47121  1  0  0  0
 47122  1  0  0  0
 48 56  1  0  0  0
 48 65  1  0  0  0
 48123  1  0  0  0
 49 50  1  0  0  0
 49 53  1  0  0  0
 49 64  1  0  0  0
 49124  1  0  0  0
 50 51  1  0  0  0
 50125  1  0  0  0
 50126  1  0  0  0
 51 52  1  0  0  0
 51127  1  0  0  0
 51128  1  0  0  0
 52129  1  0  0  0
 52130  1  0  0  0
 53 54  1  0  0  0
 54 55  2  0  0  0
 54131  1  0  0  0
 55 57  1  0  0  0
 55132  1  0  0  0
 56 69  2  0  0  0
 57 58  2  0  0  0
 57133  1  0  0  0
 58134  1  0  0  0
 59 60  1  0  0  0
 59 61  1  0  0  0
 59 62  1  0  0  0
 60135  1  0  0  0
 60136  1  0  0  0
 60137  1  0  0  0
 61138  1  0  0  0
 61139  1  0  0  0
 61140  1  0  0  0
 62141  1  0  0  0
 62142  1  0  0  0
 62143  1  0  0  0
 63 65  1  0  0  0
 63144  1  0  0  0
 63145  1  0  0  0
 63146  1  0  0  0
 64147  1  0  0  0
 65148  1  0  0  0
 68 83  1  0  0  0
 71 74  2  0  0  0
 71 86  1  0  0  0
 71149  1  0  0  0
 72 73  2  0  0  0
 72 74  1  0  0  0
 72 79  1  0  0  0
 73 75  1  0  0  0
 73 85  1  0  0  0
 74 88  1  0  0  0
 75 86  2  0  0  0
 75 89  1  0  0  0
 76 80  1  0  0  0
 76150  1  0  0  0
 76151  1  0  0  0
 76152  1  0  0  0
 77153  1  0  0  0
 77154  1  0  0  0
 77155  1  0  0  0
 77 85  1  0  0  0
 78 85  1  0  0  0
 78156  1  0  0  0
 78157  1  0  0  0
 78158  1  0  0  0
 79 80  1  0  0  0
 79159  1  0  0  0
 79160  1  0  0  0
 80161  1  0  0  0
 80162  1  0  0  0
 81 82  1  0  0  0
 81 87  1  0  0  0
 81163  1  0  0  0
 81164  1  0  0  0
 82 88  1  0  0  0
 82165  1  0  0  0
 82166  1  0  0  0
 83 84  1  0  0  0
 83167  1  0  0  0
 83168  1  0  0  0
 84 89  1  0  0  0
 84169  1  0  0  0
 84170  1  0  0  0
 85171  1  0  0  0
 87172  1  0  0  0
M  ISO  4   1 100  68 101  83 101  87 100
M  END
> <chiral flag>
0

> <version>
0

> <s_m_source_file>
/data/baiqing/PycharmProjects/Reinvent-master-3.2/result/LINK_invent/BTK/process_docking_weight1_custom_sum_contain_oxygen_bond_distance_aromatic_linkinvent_7_9_3/rearranged_h_0156.sdf

> <i_m_source_file_index>
2

> <r_mmod_Potential_Energy-OPLS-2005>
-208.154586791992

> <r_mmod_Stretch_Energy-OPLS-2005>
39.9205551147461

> <r_mmod_Bend_Energy-OPLS-2005>
132.591995239258

> <r_mmod_Torsional_Energy-OPLS-2005>
186.563537597656

> <r_mmod_Improper_Torsional_Energy-OPLS-2005>
2.27072429656982

> <r_mmod_Van_der_Waal_Energy-OPLS-2005>
173.364349365234

> <r_mmod_Electrostatic_Energy-OPLS-2005>
-547.720336914062

> <r_mmod_Solvation_Energy-OPLS-2005>
-207.898834228516

> <b_mmod_Minimization_Converged-OPLS-2005>
0

> <r_mmod_RMS_Derivative-OPLS-2005>
2.34916615486145

$$$$
2
                    3D
 Structure written by MMmdl.
171181  0  0  1  0            999 V2000
  -30.7622  -14.3962   20.6309 C   0  0  0  0  0  0
  -30.4178  -12.2789   19.4211 C   0  0  0  0  0  0
  -29.5033  -12.5272   18.2078 C   0  0  0  0  0  0
  -28.0232  -12.3901   18.6142 C   0  0  0  0  0  0
  -27.6743  -13.2057   19.8876 C   0  0  2  0  0  0
  -28.7110  -12.9609   21.0058 C   0  0  0  0  0  0
  -25.2647  -13.8153   20.5689 C   0  0  0  0  0  0
  -24.1909  -13.0436   20.9133 C   0  0  0  0  0  0
  -24.6468  -11.6888   20.8730 C   0  0  0  0  0  0
  -23.9123  -10.4295   21.0392 C   0  0  0  0  0  0
  -24.3658   -9.4212   21.9182 C   0  0  0  0  0  0
  -23.6318   -8.2261   22.0772 C   0  0  0  0  0  0
  -22.4295   -8.0316   21.3555 C   0  0  0  0  0  0
  -21.9932   -9.0299   20.4658 C   0  0  0  0  0  0
  -22.7280  -10.2159   20.3053 C   0  0  0  0  0  0
  -21.6869   -6.0763   22.5286 C   0  0  0  0  0  0
  -21.4021   -6.5655   23.8219 C   0  0  0  0  0  0
  -21.3665   -5.6801   24.9171 C   0  0  0  0  0  0
  -21.6040   -4.3065   24.7215 C   0  0  0  0  0  0
  -21.8820   -3.8164   23.4333 C   0  0  0  0  0  0
  -21.9187   -4.6989   22.3391 C   0  0  0  0  0  0
  -22.7913  -13.5234   21.1781 C   0  0  0  0  0  0
  -22.1660   -4.2183   21.0967 F   0  0  0  0  0  0
  -21.5628   -3.4540   25.7719 F   0  0  0  0  0  0
  -30.0540  -13.2465   20.4659 N   0  0  0  0  0  0
  -26.3115  -12.9341   20.3403 N   0  0  0  0  0  0
  -25.9402  -11.6490   20.5769 N   0  0  0  0  0  0
  -22.0584  -12.8258   22.0348 N   0  0  0  0  0  0
  -25.4358  -15.1889   20.4096 N   0  0  0  0  0  0
  -31.8276  -14.6199   20.0435 O   0  0  0  0  0  0
  -21.6653   -6.8920   21.4250 O   0  0  0  0  0  0
  -22.3618  -14.5577   20.6673 O   0  0  0  0  0  0
  -24.6136  -31.8745   23.2210 C   0  0  0  0  0  0
  -25.9051  -32.4857   23.8468 C   0  0  1  0  0  0
  -27.2148  -27.4530   20.0489 C   0  0  0  0  0  0
  -25.5933  -33.8659   24.2381 N   0  0  0  0  0  0
  -23.3931  -30.5078   21.5611 C   0  0  2  0  0  0
  -24.8292  -28.9773   20.1296 C   0  0  0  0  0  0
  -22.7393  -29.4741   22.5046 C   0  0  0  0  0  0
  -18.0334  -28.1297   22.8555 C   0  0  0  0  0  0
  -24.1511  -36.7350   23.2618 C   0  0  0  0  0  0
  -25.9304  -30.8424   21.3702 C   0  0  0  0  0  0
  -26.0004  -29.4823   20.7083 C   0  0  0  0  0  0
  -27.1965  -28.7262   20.6688 C   0  0  0  0  0  0
  -26.0053  -26.9688   19.4822 C   0  0  0  0  0  0
  -24.8205  -27.7135   19.5271 C   0  0  0  0  0  0
  -23.6001  -29.8546   20.1723 C   0  0  0  0  0  0
  -25.4135  -36.3160   24.0324 C   0  0  1  0  0  0
  -20.5914  -28.3636   23.1309 C   0  0  2  0  0  0
  -20.6922  -26.9438   22.5244 C   0  0  0  0  0  0
  -19.5819  -26.6492   21.5114 C   0  0  0  0  0  0
  -18.2067  -26.7798   22.1749 C   0  0  0  0  0  0
  -19.1578  -28.8768   23.2941 C   0  0  0  0  0  0
  -18.9536  -30.1388   23.8923 C   0  0  0  0  0  0
  -17.6571  -30.6571   24.0608 C   0  0  0  0  0  0
  -25.9031  -34.9510   23.5140 C   0  0  0  0  0  0
  -16.5455  -29.9054   23.6389 C   0  0  0  0  0  0
  -16.7339  -28.6462   23.0372 C   0  0  0  0  0  0
  -26.4492  -31.6631   25.0785 C   0  0  0  0  0  0
  -25.3739  -31.3710   26.1508 C   0  0  0  0  0  0
  -27.0330  -30.3078   24.6160 C   0  0  0  0  0  0
  -27.6114  -32.4305   25.7505 C   0  0  0  0  0  0
  -27.5614  -37.1835   24.8452 C   0  0  0  0  0  0
  -21.4089  -29.3154   22.3804 N   0  0  0  0  0  0
  -26.4347  -37.3820   23.9368 N   0  0  0  0  0  0
  -24.6636  -31.0886   22.1079 N   0  0  0  0  0  0
  -23.4223  -28.8231   23.3015 O   0  0  0  0  0  0
  -28.4016  -26.7370   19.9983 O   0  0  0  0  0  0
  -26.5587  -34.8957   22.4694 O   0  0  0  0  0  0
  -23.5315  -32.1503   23.7593 O   0  0  0  0  0  0
  -28.7513  -20.8588   20.7419 C   0  0  0  0  0  0
  -26.3624  -20.6261   22.1489 C   0  0  0  0  0  0
  -27.7509  -21.8355   20.5283 C   0  0  0  0  0  0
  -26.5100  -21.6574   21.2039 C   0  0  0  0  0  0
  -27.4060  -19.7257   22.4244 C   0  0  0  0  0  0
  -28.6012  -19.7946   21.6568 C   0  0  0  0  0  0
  -29.4205  -23.2839   19.0051 C   0  0  0  0  0  0
  -29.7236  -24.7998   19.1068 C   0  0  0  0  0  0
  -30.3516  -17.0060   23.0650 C   0  0  0  0  0  0
  -27.7223  -24.3963   20.3032 C   0  0  0  0  0  0
  -30.3826  -15.5038   22.7820 C   0  0  0  0  0  0
  -29.9494  -16.7054   20.7657 C   0  0  0  0  0  0
  -27.9978  -23.0518   19.6097 C   0  0  2  0  0  0
  -28.3672  -25.4377   19.3914 C   0  0  1  0  0  0
  -29.4855  -17.5498   21.9428 C   0  0  2  0  0  0
  -25.2929  -22.5429   20.9819 C   0  0  0  0  0  0
  -27.1772  -18.7566   23.5708 C   0  0  0  0  0  0
  -30.1518  -15.3653   21.3380 N   0  0  0  0  0  0
  -29.6936  -18.9525   21.7731 O   0  0  0  0  0  0
  -31.4687  -12.3472   19.1374 H   0  0  0  0  0  0
  -30.2820  -11.2625   19.7961 H   0  0  0  0  0  0
  -29.7428  -11.8268   17.4061 H   0  0  0  0  0  0
  -29.6872  -13.5256   17.8042 H   0  0  0  0  0  0
  -27.8182  -11.3332   18.7765 H   0  0  0  0  0  0
  -27.3823  -12.6980   17.7870 H   0  0  0  0  0  0
  -27.7300  -14.2613   19.6200 H   0  0  0  0  0  0
  -28.6741  -11.9225   21.3403 H   0  0  0  0  0  0
  -28.4681  -13.5530   21.8870 H   0  0  0  0  0  0
  -25.2829   -9.5685   22.4718 H   0  0  0  0  0  0
  -24.0035   -7.4653   22.7501 H   0  0  0  0  0  0
  -21.0865   -8.8849   19.8960 H   0  0  0  0  0  0
  -22.3796  -10.9706   19.6151 H   0  0  0  0  0  0
  -21.2040   -7.6170   23.9725 H   0  0  0  0  0  0
  -21.1474   -6.0533   25.9076 H   0  0  0  0  0  0
  -22.0592   -2.7626   23.2818 H   0  0  0  0  0  0
  -22.4221  -11.9905   22.4726 H   0  0  0  0  0  0
  -21.1216  -13.1293   22.2588 H   0  0  0  0  0  0
  -24.6647  -15.8375   20.5203 H   0  0  0  0  0  0
  -26.2923  -15.6354   20.1044 H   0  0  0  0  0  0
  -26.7090  -32.5562   23.1187 H   0  0  0  0  0  0
  -25.0132  -33.9837   25.0560 H   0  0  0  0  0  0
  -22.6770  -31.3230   21.4277 H   0  0  0  0  0  0
  -23.3773  -35.9684   23.3305 H   0  0  0  0  0  0
  -24.3593  -36.8933   22.2023 H   0  0  0  0  0  0
  -23.7265  -37.6566   23.6614 H   0  0  0  0  0  0
  -26.0537  -31.6159   20.6083 H   0  0  0  0  0  0
  -26.8141  -30.8801   21.9977 H   0  0  0  0  0  0
  -28.1070  -29.1180   21.1052 H   0  0  0  0  0  0
  -25.9302  -26.0190   18.9787 H   0  0  0  0  0  0
  -23.9157  -27.3160   19.0886 H   0  0  0  0  0  0
  -23.7251  -30.6355   19.4234 H   0  0  0  0  0  0
  -22.7212  -29.2903   19.8587 H   0  0  0  0  0  0
  -25.1303  -36.2052   25.0819 H   0  0  0  0  0  0
  -21.0058  -28.3112   24.1381 H   0  0  0  0  0  0
  -20.5964  -26.2196   23.3366 H   0  0  0  0  0  0
  -21.6807  -26.7563   22.0987 H   0  0  0  0  0  0
  -19.7008  -25.6492   21.0980 H   0  0  0  0  0  0
  -19.6638  -27.3514   20.6779 H   0  0  0  0  0  0
  -17.4172  -26.6281   21.4368 H   0  0  0  0  0  0
  -18.0869  -25.9984   22.9284 H   0  0  0  0  0  0
  -19.8086  -30.7164   24.2193 H   0  0  0  0  0  0
  -17.5191  -31.6314   24.5130 H   0  0  0  0  0  0
  -15.5461  -30.2966   23.7769 H   0  0  0  0  0  0
  -15.8734  -28.0811   22.7009 H   0  0  0  0  0  0
  -24.5967  -30.6986   25.7815 H   0  0  0  0  0  0
  -24.8874  -32.2856   26.4931 H   0  0  0  0  0  0
  -25.8082  -30.8906   27.0283 H   0  0  0  0  0  0
  -26.2878  -29.6804   24.1244 H   0  0  0  0  0  0
  -27.4115  -29.7347   25.4646 H   0  0  0  0  0  0
  -27.8727  -30.4407   23.9320 H   0  0  0  0  0  0
  -27.2816  -33.3609   26.2120 H   0  0  0  0  0  0
  -28.3904  -32.6791   25.0286 H   0  0  0  0  0  0
  -28.0804  -31.8375   26.5361 H   0  0  0  0  0  0
  -28.2637  -38.0131   24.7511 H   0  0  0  0  0  0
  -28.1117  -36.2655   24.6295 H   0  0  0  0  0  0
  -27.2307  -37.1495   25.8851 H   0  0  0  0  0  0
  -20.9201  -29.8933   21.7081 H   0  0  0  0  0  0
  -26.0254  -38.2919   24.1329 H   0  0  0  0  0  0
  -29.6802  -20.9045   20.2035 H   0  0  0  0  0  0
  -25.4338  -20.5338   22.6996 H   0  0  0  0  0  0
  -30.2192  -22.7639   19.5282 H   0  0  0  0  0  0
  -29.4474  -22.9481   17.9658 H   0  0  0  0  0  0
  -30.1891  -25.2076   18.2087 H   0  0  0  0  0  0
  -30.4006  -24.9827   19.9428 H   0  0  0  0  0  0
  -31.3592  -17.4198   22.9765 H   0  0  0  0  0  0
  -29.9857  -17.2453   24.0632 H   0  0  0  0  0  0
  -28.2006  -24.4247   21.2834 H   0  0  0  0  0  0
  -26.6696  -24.5948   20.4619 H   0  0  0  0  0  0
  -29.5861  -15.0021   23.3354 H   0  0  0  0  0  0
  -31.3301  -15.0677   23.1004 H   0  0  0  0  0  0
  -29.2162  -16.6981   19.9593 H   0  0  0  0  0  0
  -30.8867  -17.0972   20.3606 H   0  0  0  0  0  0
  -27.2994  -22.9593   18.7741 H   0  0  0  0  0  0
  -27.8589  -25.4782   18.4285 H   0  0  0  0  0  0
  -28.4484  -17.2712   22.0974 H   0  0  0  0  0  0
  -25.2711  -23.3370   21.7233 H   0  0  0  0  0  0
  -24.3778  -21.9629   21.0905 H   0  0  0  0  0  0
  -25.2620  -22.9767   19.9835 H   0  0  0  0  0  0
  -26.5801  -19.2215   24.3535 H   0  0  0  0  0  0
  -26.6439  -17.8725   23.2237 H   0  0  0  0  0  0
  -28.1126  -18.4719   24.0529 H   0  0  0  0  0  0
  1 25  1  0  0  0
  1 30  2  0  0  0
  1 88  1  0  0  0
  2  3  1  0  0  0
  2 25  1  0  0  0
  2 90  1  0  0  0
  2 91  1  0  0  0
  3  4  1  0  0  0
  3 92  1  0  0  0
  3 93  1  0  0  0
  4  5  1  0  0  0
  4 94  1  0  0  0
  4 95  1  0  0  0
  5  6  1  0  0  0
  5 26  1  0  0  0
  5 96  1  0  0  0
  6 25  1  0  0  0
  6 97  1  0  0  0
  6 98  1  0  0  0
  7  8  2  0  0  0
  7 26  1  0  0  0
  7 29  1  0  0  0
  8  9  1  0  0  0
  8 22  1  0  0  0
  9 10  1  0  0  0
  9 27  2  0  0  0
 10 11  2  0  0  0
 10 15  1  0  0  0
 11 12  1  0  0  0
 11 99  1  0  0  0
 12 13  2  0  0  0
 12100  1  0  0  0
 13 14  1  0  0  0
 13 31  1  0  0  0
 14 15  2  0  0  0
 14101  1  0  0  0
 15102  1  0  0  0
 16 17  2  0  0  0
 16 21  1  0  0  0
 16 31  1  0  0  0
 17 18  1  0  0  0
 17103  1  0  0  0
 18 19  2  0  0  0
 18104  1  0  0  0
 19 20  1  0  0  0
 19 24  1  0  0  0
 20 21  2  0  0  0
 20105  1  0  0  0
 21 23  1  0  0  0
 22 28  1  0  0  0
 22 32  2  0  0  0
 26 27  1  0  0  0
 28106  1  0  0  0
 28107  1  0  0  0
 29108  1  0  0  0
 29109  1  0  0  0
 33 34  1  0  0  0
 33 66  1  0  0  0
 33 70  2  0  0  0
 34 36  1  0  0  0
 34 59  1  0  0  0
 34110  1  0  0  0
 35 44  2  0  0  0
 35 45  1  0  0  0
 35 68  1  0  0  0
 36 56  1  0  0  0
 36111  1  0  0  0
 37 39  1  0  0  0
 37 47  1  0  0  0
 37 66  1  0  0  0
 37112  1  0  0  0
 38 43  2  0  0  0
 38 46  1  0  0  0
 38 47  1  0  0  0
 39 64  1  0  0  0
 39 67  2  0  0  0
 40 52  1  0  0  0
 40 53  2  0  0  0
 40 58  1  0  0  0
 41113  1  0  0  0
 41114  1  0  0  0
 41115  1  0  0  0
 41 48  1  0  0  0
 42 43  1  0  0  0
 42 66  1  0  0  0
 42116  1  0  0  0
 42117  1  0  0  0
 43 44  1  0  0  0
 44118  1  0  0  0
 45 46  2  0  0  0
 45119  1  0  0  0
 46120  1  0  0  0
 47121  1  0  0  0
 47122  1  0  0  0
 48 56  1  0  0  0
 48 65  1  0  0  0
 48123  1  0  0  0
 49 50  1  0  0  0
 49 53  1  0  0  0
 49 64  1  0  0  0
 49124  1  0  0  0
 50 51  1  0  0  0
 50125  1  0  0  0
 50126  1  0  0  0
 51 52  1  0  0  0
 51127  1  0  0  0
 51128  1  0  0  0
 52129  1  0  0  0
 52130  1  0  0  0
 53 54  1  0  0  0
 54 55  2  0  0  0
 54131  1  0  0  0
 55 57  1  0  0  0
 55132  1  0  0  0
 56 69  2  0  0  0
 57 58  2  0  0  0
 57133  1  0  0  0
 58134  1  0  0  0
 59 60  1  0  0  0
 59 61  1  0  0  0
 59 62  1  0  0  0
 60135  1  0  0  0
 60136  1  0  0  0
 60137  1  0  0  0
 61138  1  0  0  0
 61139  1  0  0  0
 61140  1  0  0  0
 62141  1  0  0  0
 62142  1  0  0  0
 62143  1  0  0  0
 63 65  1  0  0  0
 63144  1  0  0  0
 63145  1  0  0  0
 63146  1  0  0  0
 64147  1  0  0  0
 65148  1  0  0  0
 68 84  1  0  0  0
 71 73  2  0  0  0
 71 76  1  0  0  0
 71149  1  0  0  0
 72 74  2  0  0  0
 72 75  1  0  0  0
 72150  1  0  0  0
 73 74  1  0  0  0
 73 83  1  0  0  0
 74 86  1  0  0  0
 75 76  2  0  0  0
 75 87  1  0  0  0
 76 89  1  0  0  0
 77 78  1  0  0  0
 77 83  1  0  0  0
 77151  1  0  0  0
 77152  1  0  0  0
 78 84  1  0  0  0
 78153  1  0  0  0
 78154  1  0  0  0
 79 81  1  0  0  0
 79 85  1  0  0  0
 79155  1  0  0  0
 79156  1  0  0  0
 80 83  1  0  0  0
 80 84  1  0  0  0
 80157  1  0  0  0
 80158  1  0  0  0
 81 88  1  0  0  0
 81159  1  0  0  0
 81160  1  0  0  0
 82 85  1  0  0  0
 82 88  1  0  0  0
 82161  1  0  0  0
 82162  1  0  0  0
 83163  1  0  0  0
 84164  1  0  0  0
 85 89  1  0  0  0
 85165  1  0  0  0
 86166  1  0  0  0
 86167  1  0  0  0
 86168  1  0  0  0
 87169  1  0  0  0
 87170  1  0  0  0
 87171  1  0  0  0
M  ISO  4   1 100  68 101  84 101  88 100
M  END
> <chiral flag>
0

> <version>
0

> <s_m_source_file>
/data/baiqing/PycharmProjects/Reinvent-master-3.2/result/LINK_invent/BTK/process_docking_weight1_custom_sum_contain_oxygen_bond_distance_aromatic_linkinvent_7_9_3/rearranged_h_0156.sdf

> <i_m_source_file_index>
3

> <r_mmod_Potential_Energy-OPLS-2005>
237.136276245117

> <r_mmod_Stretch_Energy-OPLS-2005>
41.9312934875488

> <r_mmod_Bend_Energy-OPLS-2005>
181.167221069336

> <r_mmod_Torsional_Energy-OPLS-2005>
373.216735839844

> <r_mmod_Improper_Torsional_Energy-OPLS-2005>
7.11960124969482

> <r_mmod_Van_der_Waal_Energy-OPLS-2005>
174.156097412109

> <r_mmod_Electrostatic_Energy-OPLS-2005>
-356.674224853516

> <r_mmod_Solvation_Energy-OPLS-2005>
-194.009765625

> <b_mmod_Minimization_Converged-OPLS-2005>
0

> <r_mmod_RMS_Derivative-OPLS-2005>
7.09023857116699

$$$$
3
                    3D
 Structure written by MMmdl.
169178  0  0  1  0            999 V2000
  -30.6253  -14.7027   20.4796 C   0  0  0  0  0  0
  -30.4343  -12.4376   19.4495 C   0  0  0  0  0  0
  -29.5024  -12.4971   18.2214 C   0  0  0  0  0  0
  -28.0299  -12.3279   18.6442 C   0  0  0  0  0  0
  -27.6425  -13.2251   19.8490 C   0  0  2  0  0  0
  -28.6908  -13.1455   20.9780 C   0  0  0  0  0  0
  -25.2520  -13.8190   20.5697 C   0  0  0  0  0  0
  -24.1813  -13.0442   20.9205 C   0  0  0  0  0  0
  -24.6401  -11.6914   20.8766 C   0  0  0  0  0  0
  -23.9080  -10.4294   21.0421 C   0  0  0  0  0  0
  -24.3624   -9.4212   21.9195 C   0  0  0  0  0  0
  -23.6297   -8.2249   22.0770 C   0  0  0  0  0  0
  -22.4281   -8.0290   21.3562 C   0  0  0  0  0  0
  -21.9918   -9.0266   20.4654 C   0  0  0  0  0  0
  -22.7252  -10.2139   20.3065 C   0  0  0  0  0  0
  -21.6858   -6.0738   22.5280 C   0  0  0  0  0  0
  -21.4011   -6.5640   23.8215 C   0  0  0  0  0  0
  -21.3654   -5.6793   24.9175 C   0  0  0  0  0  0
  -21.6047   -4.3058   24.7226 C   0  0  0  0  0  0
  -21.8820   -3.8150   23.4350 C   0  0  0  0  0  0
  -21.9189   -4.6965   22.3402 C   0  0  0  0  0  0
  -22.7834  -13.5220   21.1858 C   0  0  0  0  0  0
  -22.1664   -4.2150   21.0985 F   0  0  0  0  0  0
  -21.5621   -3.4542   25.7740 F   0  0  0  0  0  0
  -29.9913  -13.4888   20.3896 N   0  0  0  0  0  0
  -26.2944  -12.9387   20.3291 N   0  0  0  0  0  0
  -25.9327  -11.6536   20.5767 N   0  0  0  0  0  0
  -22.0475  -12.8212   22.0406 N   0  0  0  0  0  0
  -25.4193  -15.1926   20.4111 N   0  0  0  0  0  0
  -31.8226  -14.8014   20.2030 O   0  0  0  0  0  0
  -21.6657   -6.8886   21.4247 O   0  0  0  0  0  0
  -22.3525  -14.5534   20.6715 O   0  0  0  0  0  0
  -24.6319  -31.8491   23.1972 C   0  0  0  0  0  0
  -25.9109  -32.4708   23.8357 C   0  0  1  0  0  0
  -27.2344  -27.2630   20.1225 C   0  0  0  0  0  0
  -25.5865  -33.8512   24.2262 N   0  0  0  0  0  0
  -23.4316  -30.4722   21.5370 C   0  0  2  0  0  0
  -24.8829  -28.9122   20.1079 C   0  0  0  0  0  0
  -22.7524  -29.4587   22.4898 C   0  0  0  0  0  0
  -18.0294  -28.1424   22.8472 C   0  0  0  0  0  0
  -24.1484  -36.7320   23.2642 C   0  0  0  0  0  0
  -25.9771  -30.7621   21.3775 C   0  0  0  0  0  0
  -26.0489  -29.3830   20.7228 C   0  0  0  0  0  0
  -27.2248  -28.5675   20.7225 C   0  0  0  0  0  0
  -26.0438  -26.8501   19.4876 C   0  0  0  0  0  0
  -24.8834  -27.6549   19.4805 C   0  0  0  0  0  0
  -23.6523  -29.7988   20.1555 C   0  0  0  0  0  0
  -25.4087  -36.3044   24.0332 C   0  0  1  0  0  0
  -20.5907  -28.3740   23.1268 C   0  0  2  0  0  0
  -20.6803  -26.9459   22.5422 C   0  0  0  0  0  0
  -19.5787  -26.6427   21.5218 C   0  0  0  0  0  0
  -18.1956  -26.7969   22.1610 C   0  0  0  0  0  0
  -19.1549  -28.8895   23.2866 C   0  0  0  0  0  0
  -18.9471  -30.1482   23.8915 C   0  0  0  0  0  0
  -17.6467  -30.6631   24.0559 C   0  0  0  0  0  0
  -25.9022  -34.9409   23.5123 C   0  0  0  0  0  0
  -16.5365  -29.9133   23.6324 C   0  0  0  0  0  0
  -16.7283  -28.6543   23.0344 C   0  0  0  0  0  0
  -26.4485  -31.6547   25.0766 C   0  0  0  0  0  0
  -25.3723  -31.3660   26.1513 C   0  0  0  0  0  0
  -27.0310  -30.2947   24.6251 C   0  0  0  0  0  0
  -27.6060  -32.4296   25.7527 C   0  0  0  0  0  0
  -27.5582  -37.1781   24.8443 C   0  0  0  0  0  0
  -21.4224  -29.3059   22.3641 N   0  0  0  0  0  0
  -26.4264  -37.3744   23.9419 N   0  0  0  0  0  0
  -24.6986  -31.0468   22.0937 N   0  0  0  0  0  0
  -23.4226  -28.8139   23.3012 O   0  0  0  0  0  0
  -28.3527  -26.4048   20.2205 O   0  0  0  0  0  0
  -26.5649  -34.8891   22.4729 O   0  0  0  0  0  0
  -23.5458  -32.1315   23.7246 O   0  0  0  0  0  0
  -29.9096  -21.0097   18.6458 C   0  0  0  0  0  0
  -30.3945  -19.8139   18.0733 C   0  0  0  0  0  0
  -30.4007  -18.5974   18.8096 C   0  0  0  0  0  0
  -29.4602  -21.0832   19.9764 C   0  0  0  0  0  0
  -29.9553  -18.5633   20.1613 C   0  0  0  0  0  0
  -29.4671  -19.8259   20.7221 C   0  0  0  0  0  0
  -31.0320  -17.3553   18.1739 C   0  0  0  0  0  0
  -31.0063  -19.8919   16.6699 C   0  0  0  0  0  0
  -31.3629  -17.4978   16.6853 C   0  0  0  0  0  0
  -29.0029  -19.8354   22.1718 C   0  0  0  0  0  0
  -32.6450  -18.8843   15.1050 C   0  0  0  0  0  0
  -29.2454  -22.5673   20.5472 C   0  0  0  0  0  0
  -30.2632  -17.2501   21.0339 C   0  0  0  0  0  0
  -28.1622  -23.6107   19.9452 C   0  0  0  0  0  0
  -28.5239  -25.1234   19.4650 C   0  0  0  0  0  0
  -29.8487  -15.8284   20.6787 N   0  0  0  0  0  0
  -31.9876  -18.8089   16.4287 N   0  3  1  0  0  0
  -31.4688  -12.5755   19.1333 H   0  0  0  0  0  0
  -30.3934  -11.4568   19.9245 H   0  0  0  0  0  0
  -29.7737  -11.7227   17.5028 H   0  0  0  0  0  0
  -29.6293  -13.4508   17.7072 H   0  0  0  0  0  0
  -27.8822  -11.2796   18.9047 H   0  0  0  0  0  0
  -27.3689  -12.5255   17.7998 H   0  0  0  0  0  0
  -27.6417  -14.2476   19.4727 H   0  0  0  0  0  0
  -28.7212  -12.1491   21.4205 H   0  0  0  0  0  0
  -28.4349  -13.8299   21.7879 H   0  0  0  0  0  0
  -25.2761   -9.5689   22.4776 H   0  0  0  0  0  0
  -23.9994   -7.4652   22.7507 H   0  0  0  0  0  0
  -21.0841   -8.8799   19.8973 H   0  0  0  0  0  0
  -22.3716  -10.9686   19.6183 H   0  0  0  0  0  0
  -21.2017   -7.6154   23.9713 H   0  0  0  0  0  0
  -21.1466   -6.0531   25.9078 H   0  0  0  0  0  0
  -22.0601   -2.7612   23.2857 H   0  0  0  0  0  0
  -22.4084  -11.9844   22.4749 H   0  0  0  0  0  0
  -21.1108  -13.1263   22.2643 H   0  0  0  0  0  0
  -24.6464  -15.8391   20.5252 H   0  0  0  0  0  0
  -26.2581  -15.6402   20.0650 H   0  0  0  0  0  0
  -26.7197  -32.5370   23.1124 H   0  0  0  0  0  0
  -24.9807  -33.9623   25.0265 H   0  0  0  0  0  0
  -22.7276  -31.2921   21.3840 H   0  0  0  0  0  0
  -23.3698  -35.9697   23.3246 H   0  0  0  0  0  0
  -24.3560  -36.9023   22.2065 H   0  0  0  0  0  0
  -23.7303  -37.6522   23.6727 H   0  0  0  0  0  0
  -26.1058  -31.5121   20.5963 H   0  0  0  0  0  0
  -26.8590  -30.8228   22.0023 H   0  0  0  0  0  0
  -28.1211  -28.9152   21.2199 H   0  0  0  0  0  0
  -25.9764  -25.8766   19.0271 H   0  0  0  0  0  0
  -23.9870  -27.2873   19.0030 H   0  0  0  0  0  0
  -23.7780  -30.5705   19.3967 H   0  0  0  0  0  0
  -22.7723  -29.2276   19.8520 H   0  0  0  0  0  0
  -25.1247  -36.1876   25.0815 H   0  0  0  0  0  0
  -20.9969  -28.3354   24.1399 H   0  0  0  0  0  0
  -20.5732  -26.2347   23.3615 H   0  0  0  0  0  0
  -21.6668  -26.7520   22.1197 H   0  0  0  0  0  0
  -19.6958  -25.6328   21.1262 H   0  0  0  0  0  0
  -19.6758  -27.3218   20.6722 H   0  0  0  0  0  0
  -17.4231  -26.6702   21.4014 H   0  0  0  0  0  0
  -18.0363  -26.0140   22.9020 H   0  0  0  0  0  0
  -19.7944  -30.7269   24.2361 H   0  0  0  0  0  0
  -17.5031  -31.6312   24.5164 H   0  0  0  0  0  0
  -15.5363  -30.3030   23.7688 H   0  0  0  0  0  0
  -15.8666  -28.0873   22.7069 H   0  0  0  0  0  0
  -24.5958  -30.6923   25.7884 H   0  0  0  0  0  0
  -24.8821  -32.2774   26.4939 H   0  0  0  0  0  0
  -25.8100  -30.8896   27.0300 H   0  0  0  0  0  0
  -26.2880  -29.6687   24.1289 H   0  0  0  0  0  0
  -27.3958  -29.7213   25.4782 H   0  0  0  0  0  0
  -27.8793  -30.4174   23.9514 H   0  0  0  0  0  0
  -27.2704  -33.3628   26.2060 H   0  0  0  0  0  0
  -28.3903  -32.6786   25.0373 H   0  0  0  0  0  0
  -28.0691  -31.8433   26.5467 H   0  0  0  0  0  0
  -28.2520  -38.0141   24.7483 H   0  0  0  0  0  0
  -28.1157  -36.2660   24.6243 H   0  0  0  0  0  0
  -27.2300  -37.1392   25.8843 H   0  0  0  0  0  0
  -20.9464  -29.8717   21.6752 H   0  0  0  0  0  0
  -26.0127  -38.2814   24.1420 H   0  0  0  0  0  0
  -29.9630  -21.9216   18.0661 H   0  0  0  0  0  0
  -30.3522  -16.5117   18.2637 H   0  0  0  0  0  0
  -31.9410  -17.1091   18.7243 H   0  0  0  0  0  0
  -31.5076  -20.8543   16.5505 H   0  0  0  0  0  0
  -30.2103  -19.8608   15.9248 H   0  0  0  0  0  0
  -30.4564  -17.4040   16.0861 H   0  0  0  0  0  0
  -32.0187  -16.6799   16.3830 H   0  0  0  0  0  0
  -28.3729  -20.6896   22.4065 H   0  0  0  0  0  0
  -29.8580  -19.8359   22.8488 H   0  0  0  0  0  0
  -28.3894  -18.9601   22.3873 H   0  0  0  0  0  0
  -33.1434  -19.8450   14.9699 H   0  0  0  0  0  0
  -31.9298  -18.7512   14.2936 H   0  0  0  0  0  0
  -33.4079  -18.1109   15.0116 H   0  0  0  0  0  0
  -30.2227  -23.0344   20.4350 H   0  0  0  0  0  0
  -29.1184  -22.5379   21.6263 H   0  0  0  0  0  0
  -29.9136  -17.4049   22.0509 H   0  0  0  0  0  0
  -31.3481  -17.2399   21.1444 H   0  0  0  0  0  0
  -27.2900  -23.6418   20.5985 H   0  0  0  0  0  0
  -27.7875  -23.1224   19.0437 H   0  0  0  0  0  0
  -28.0397  -25.2664   18.4989 H   0  0  0  0  0  0
  -29.5804  -25.1054   19.1999 H   0  0  0  0  0  0
  -28.8613  -15.6438   20.7677 H   0  0  0  0  0  0
  -32.7183  -18.9268   17.1143 H   0  0  0  0  0  0
  1 25  1  0  0  0
  1 30  2  0  0  0
  1 86  1  0  0  0
  2  3  1  0  0  0
  2 25  1  0  0  0
  2 88  1  0  0  0
  2 89  1  0  0  0
  3  4  1  0  0  0
  3 90  1  0  0  0
  3 91  1  0  0  0
  4  5  1  0  0  0
  4 92  1  0  0  0
  4 93  1  0  0  0
  5  6  1  0  0  0
  5 26  1  0  0  0
  5 94  1  0  0  0
  6 25  1  0  0  0
  6 95  1  0  0  0
  6 96  1  0  0  0
  7  8  2  0  0  0
  7 26  1  0  0  0
  7 29  1  0  0  0
  8  9  1  0  0  0
  8 22  1  0  0  0
  9 10  1  0  0  0
  9 27  2  0  0  0
 10 11  2  0  0  0
 10 15  1  0  0  0
 11 12  1  0  0  0
 11 97  1  0  0  0
 12 13  2  0  0  0
 12 98  1  0  0  0
 13 14  1  0  0  0
 13 31  1  0  0  0
 14 15  2  0  0  0
 14 99  1  0  0  0
 15100  1  0  0  0
 16 17  2  0  0  0
 16 21  1  0  0  0
 16 31  1  0  0  0
 17 18  1  0  0  0
 17101  1  0  0  0
 18 19  2  0  0  0
 18102  1  0  0  0
 19 20  1  0  0  0
 19 24  1  0  0  0
 20 21  2  0  0  0
 20103  1  0  0  0
 21 23  1  0  0  0
 22 28  1  0  0  0
 22 32  2  0  0  0
 26 27  1  0  0  0
 28104  1  0  0  0
 28105  1  0  0  0
 29106  1  0  0  0
 29107  1  0  0  0
 33 34  1  0  0  0
 33 66  1  0  0  0
 33 70  2  0  0  0
 34 36  1  0  0  0
 34 59  1  0  0  0
 34108  1  0  0  0
 35 44  2  0  0  0
 35 45  1  0  0  0
 35 68  1  0  0  0
 36 56  1  0  0  0
 36109  1  0  0  0
 37 39  1  0  0  0
 37 47  1  0  0  0
 37 66  1  0  0  0
 37110  1  0  0  0
 38 43  2  0  0  0
 38 46  1  0  0  0
 38 47  1  0  0  0
 39 64  1  0  0  0
 39 67  2  0  0  0
 40 52  1  0  0  0
 40 53  2  0  0  0
 40 58  1  0  0  0
 41111  1  0  0  0
 41112  1  0  0  0
 41113  1  0  0  0
 41 48  1  0  0  0
 42 43  1  0  0  0
 42 66  1  0  0  0
 42114  1  0  0  0
 42115  1  0  0  0
 43 44  1  0  0  0
 44116  1  0  0  0
 45 46  2  0  0  0
 45117  1  0  0  0
 46118  1  0  0  0
 47119  1  0  0  0
 47120  1  0  0  0
 48 56  1  0  0  0
 48 65  1  0  0  0
 48121  1  0  0  0
 49 50  1  0  0  0
 49 53  1  0  0  0
 49 64  1  0  0  0
 49122  1  0  0  0
 50 51  1  0  0  0
 50123  1  0  0  0
 50124  1  0  0  0
 51 52  1  0  0  0
 51125  1  0  0  0
 51126  1  0  0  0
 52127  1  0  0  0
 52128  1  0  0  0
 53 54  1  0  0  0
 54 55  2  0  0  0
 54129  1  0  0  0
 55 57  1  0  0  0
 55130  1  0  0  0
 56 69  2  0  0  0
 57 58  2  0  0  0
 57131  1  0  0  0
 58132  1  0  0  0
 59 60  1  0  0  0
 59 61  1  0  0  0
 59 62  1  0  0  0
 60133  1  0  0  0
 60134  1  0  0  0
 60135  1  0  0  0
 61136  1  0  0  0
 61137  1  0  0  0
 61138  1  0  0  0
 62139  1  0  0  0
 62140  1  0  0  0
 62141  1  0  0  0
 63 65  1  0  0  0
 63142  1  0  0  0
 63143  1  0  0  0
 63144  1  0  0  0
 64145  1  0  0  0
 65146  1  0  0  0
 68 85  1  0  0  0
 71 72  2  0  0  0
 71 74  1  0  0  0
 71147  1  0  0  0
 72 73  1  0  0  0
 72 78  1  0  0  0
 73 75  2  0  0  0
 73 77  1  0  0  0
 74 76  2  0  0  0
 74 82  1  0  0  0
 75 76  1  0  0  0
 75 83  1  0  0  0
 76 80  1  0  0  0
 77 79  1  0  0  0
 77148  1  0  0  0
 77149  1  0  0  0
 78 87  1  0  0  0
 78150  1  0  0  0
 78151  1  0  0  0
 79 87  1  0  0  0
 79152  1  0  0  0
 79153  1  0  0  0
 80154  1  0  0  0
 80155  1  0  0  0
 80156  1  0  0  0
 81157  1  0  0  0
 81158  1  0  0  0
 81159  1  0  0  0
 81 87  1  0  0  0
 82 84  1  0  0  0
 82160  1  0  0  0
 82161  1  0  0  0
 83 86  1  0  0  0
 83162  1  0  0  0
 83163  1  0  0  0
 84 85  1  0  0  0
 84164  1  0  0  0
 84165  1  0  0  0
 85166  1  0  0  0
 85167  1  0  0  0
 86168  1  0  0  0
 87169  1  0  0  0
M  CHG  1  87   1
M  ISO  4   1 100  68 101  85 101  86 100
M  END
> <chiral flag>
0

> <version>
0

> <s_m_source_file>
/data/baiqing/PycharmProjects/Reinvent-master-3.2/result/LINK_invent/BTK/process_docking_weight1_custom_sum_contain_oxygen_bond_distance_aromatic_linkinvent_7_9_3/rearranged_h_0156.sdf

> <i_m_source_file_index>
4

> <r_mmod_Potential_Energy-OPLS-2005>
13.9278192520142

> <r_mmod_Stretch_Energy-OPLS-2005>
128.416244506836

> <r_mmod_Bend_Energy-OPLS-2005>
207.516036987305

> <r_mmod_Torsional_Energy-OPLS-2005>
244.986480712891

> <r_mmod_Improper_Torsional_Energy-OPLS-2005>
8.35465145111084

> <r_mmod_Van_der_Waal_Energy-OPLS-2005>
146.309539794922

> <r_mmod_Electrostatic_Energy-OPLS-2005>
-367.531402587891

> <r_mmod_Solvation_Energy-OPLS-2005>
-431.268218994141

> <b_mmod_Minimization_Converged-OPLS-2005>
0

> <r_mmod_RMS_Derivative-OPLS-2005>
3.14892220497131

$$$$
4
                    3D
 Structure written by MMmdl.
158166  0  0  1  0            999 V2000
  -30.6543  -14.6023   20.4956 C   0  0  0  0  0  0
  -30.4302  -12.3681   19.4521 C   0  0  0  0  0  0
  -29.5041  -12.4986   18.2232 C   0  0  0  0  0  0
  -28.0271  -12.3452   18.6353 C   0  0  0  0  0  0
  -27.6546  -13.2185   19.8635 C   0  0  2  0  0  0
  -28.6987  -13.0761   20.9947 C   0  0  0  0  0  0
  -25.2566  -13.8178   20.5683 C   0  0  0  0  0  0
  -24.1832  -13.0443   20.9196 C   0  0  0  0  0  0
  -24.6401  -11.6916   20.8753 C   0  0  0  0  0  0
  -23.9072  -10.4299   21.0418 C   0  0  0  0  0  0
  -24.3623   -9.4211   21.9194 C   0  0  0  0  0  0
  -23.6295   -8.2248   22.0760 C   0  0  0  0  0  0
  -22.4280   -8.0288   21.3548 C   0  0  0  0  0  0
  -21.9917   -9.0266   20.4654 C   0  0  0  0  0  0
  -22.7246  -10.2143   20.3065 C   0  0  0  0  0  0
  -21.6850   -6.0742   22.5284 C   0  0  0  0  0  0
  -21.4014   -6.5645   23.8219 C   0  0  0  0  0  0
  -21.3655   -5.6795   24.9179 C   0  0  0  0  0  0
  -21.6046   -4.3060   24.7227 C   0  0  0  0  0  0
  -21.8815   -3.8152   23.4347 C   0  0  0  0  0  0
  -21.9195   -4.6970   22.3406 C   0  0  0  0  0  0
  -22.7854  -13.5242   21.1856 C   0  0  0  0  0  0
  -22.1661   -4.2155   21.0983 F   0  0  0  0  0  0
  -21.5628   -3.4543   25.7738 F   0  0  0  0  0  0
  -30.0177  -13.3934   20.4293 N   0  0  0  0  0  0
  -26.2997  -12.9365   20.3325 N   0  0  0  0  0  0
  -25.9332  -11.6518   20.5775 N   0  0  0  0  0  0
  -22.0494  -12.8240   22.0411 N   0  0  0  0  0  0
  -25.4275  -15.1895   20.4052 N   0  0  0  0  0  0
  -31.8151  -14.7467   20.1070 O   0  0  0  0  0  0
  -21.6640   -6.8885   21.4246 O   0  0  0  0  0  0
  -22.3545  -14.5552   20.6704 O   0  0  0  0  0  0
  -24.6242  -31.8614   23.2057 C   0  0  0  0  0  0
  -25.9098  -32.4790   23.8369 C   0  0  1  0  0  0
  -27.2244  -27.3438   20.1080 C   0  0  0  0  0  0
  -25.5926  -33.8591   24.2295 N   0  0  0  0  0  0
  -23.4160  -30.4873   21.5477 C   0  0  2  0  0  0
  -24.8620  -28.9506   20.1093 C   0  0  0  0  0  0
  -22.7469  -29.4630   22.4942 C   0  0  0  0  0  0
  -18.0288  -28.1378   22.8481 C   0  0  0  0  0  0
  -24.1493  -36.7290   23.2640 C   0  0  0  0  0  0
  -25.9560  -30.8004   21.3742 C   0  0  0  0  0  0
  -26.0306  -29.4315   20.7134 C   0  0  0  0  0  0
  -27.2146  -28.6396   20.7040 C   0  0  0  0  0  0
  -26.0311  -26.9133   19.4803 C   0  0  0  0  0  0
  -24.8641  -27.6960   19.4844 C   0  0  0  0  0  0
  -23.6287  -29.8261   20.1616 C   0  0  0  0  0  0
  -25.4115  -36.3089   24.0335 C   0  0  1  0  0  0
  -20.5887  -28.3670   23.1286 C   0  0  2  0  0  0
  -20.6779  -26.9397   22.5406 C   0  0  0  0  0  0
  -19.5753  -26.6374   21.5212 C   0  0  0  0  0  0
  -18.1931  -26.7925   22.1621 C   0  0  0  0  0  0
  -19.1538  -28.8839   23.2885 C   0  0  0  0  0  0
  -18.9467  -30.1446   23.8894 C   0  0  0  0  0  0
  -17.6465  -30.6580   24.0557 C   0  0  0  0  0  0
  -25.9041  -34.9460   23.5114 C   0  0  0  0  0  0
  -16.5355  -29.9077   23.6330 C   0  0  0  0  0  0
  -16.7276  -28.6496   23.0345 C   0  0  0  0  0  0
  -26.4490  -31.6591   25.0724 C   0  0  0  0  0  0
  -25.3737  -31.3721   26.1456 C   0  0  0  0  0  0
  -27.0327  -30.3027   24.6149 C   0  0  0  0  0  0
  -27.6052  -32.4316   25.7491 C   0  0  0  0  0  0
  -27.5581  -37.1798   24.8468 C   0  0  0  0  0  0
  -21.4184  -29.3036   22.3692 N   0  0  0  0  0  0
  -26.4294  -37.3782   23.9413 N   0  0  0  0  0  0
  -24.6841  -31.0654   22.0995 N   0  0  0  0  0  0
  -23.4208  -28.8173   23.3011 O   0  0  0  0  0  0
  -28.3479  -26.5075   20.1590 O   0  0  0  0  0  0
  -26.5604  -34.8921   22.4676 O   0  0  0  0  0  0
  -23.5408  -32.1395   23.7396 O   0  0  0  0  0  0
  -30.1595  -17.1193   20.4658 C   0  0  1  0  0  0
  -28.9879  -17.7677   19.6766 C   0  0  1  0  0  0
  -29.1954  -19.2938   19.4075 C   0  0  1  0  0  0
  -29.5279  -20.1043   20.6956 C   0  0  2  0  0  0
  -30.3814  -18.0120   21.7232 C   0  0  1  0  0  0
  -29.9167  -21.6407   20.5170 C   0  0  0  0  0  0
  -28.1179  -25.0587   20.0081 C   0  0  0  0  0  0
  -29.2617  -24.0354   20.3785 C   0  0  0  0  0  0
  -29.8861  -15.6820   20.7944 N   0  0  0  0  0  0
  -30.5888  -19.3704   21.3564 O   0  0  0  0  0  0
  -28.8881  -17.1505   18.4041 O   0  0  0  0  0  0
  -30.2300  -19.4383   18.4380 O   0  0  0  0  0  0
  -29.3159  -17.8607   22.6345 O   0  0  0  0  0  0
  -28.8552  -22.6276   20.3419 O   0  0  0  0  0  0
  -31.4735  -12.4764   19.1512 H   0  0  0  0  0  0
  -30.3500  -11.3734   19.8935 H   0  0  0  0  0  0
  -29.7626  -11.7478   17.4755 H   0  0  0  0  0  0
  -29.6536  -13.4692   17.7473 H   0  0  0  0  0  0
  -27.8588  -11.2928   18.8663 H   0  0  0  0  0  0
  -27.3737  -12.5789   17.7938 H   0  0  0  0  0  0
  -27.6750  -14.2539   19.5220 H   0  0  0  0  0  0
  -28.6989  -12.0602   21.3930 H   0  0  0  0  0  0
  -28.4544  -13.7280   21.8348 H   0  0  0  0  0  0
  -25.2765   -9.5688   22.4775 H   0  0  0  0  0  0
  -24.0006   -7.4638   22.7476 H   0  0  0  0  0  0
  -21.0852   -8.8785   19.8960 H   0  0  0  0  0  0
  -22.3707  -10.9685   19.6179 H   0  0  0  0  0  0
  -21.2000   -7.6151   23.9724 H   0  0  0  0  0  0
  -21.1480   -6.0525   25.9082 H   0  0  0  0  0  0
  -22.0597   -2.7614   23.2847 H   0  0  0  0  0  0
  -22.4092  -11.9890   22.4788 H   0  0  0  0  0  0
  -21.1120  -13.1283   22.2624 H   0  0  0  0  0  0
  -24.6549  -15.8404   20.4952 H   0  0  0  0  0  0
  -26.2663  -15.6183   20.0347 H   0  0  0  0  0  0
  -26.7163  -32.5463   23.1112 H   0  0  0  0  0  0
  -25.0099  -33.9745   25.0461 H   0  0  0  0  0  0
  -22.7080  -31.3071   21.4084 H   0  0  0  0  0  0
  -23.3759  -35.9619   23.3305 H   0  0  0  0  0  0
  -24.3589  -36.8901   22.2054 H   0  0  0  0  0  0
  -23.7239  -37.6494   23.6651 H   0  0  0  0  0  0
  -26.0855  -31.5672   20.6094 H   0  0  0  0  0  0
  -26.8375  -30.8455   22.0021 H   0  0  0  0  0  0
  -28.1102  -29.0044   21.1863 H   0  0  0  0  0  0
  -25.9653  -25.9570   18.9834 H   0  0  0  0  0  0
  -23.9702  -27.3211   19.0051 H   0  0  0  0  0  0
  -23.7437  -30.6042   19.4064 H   0  0  0  0  0  0
  -22.7497  -29.2534   19.8596 H   0  0  0  0  0  0
  -25.1297  -36.1944   25.0829 H   0  0  0  0  0  0
  -20.9969  -28.3231   24.1410 H   0  0  0  0  0  0
  -20.5680  -26.2276   23.3601 H   0  0  0  0  0  0
  -21.6646  -26.7430   22.1193 H   0  0  0  0  0  0
  -19.6919  -25.6288   21.1229 H   0  0  0  0  0  0
  -19.6699  -27.3191   20.6750 H   0  0  0  0  0  0
  -17.4206  -26.6665   21.4026 H   0  0  0  0  0  0
  -18.0333  -26.0070   22.9018 H   0  0  0  0  0  0
  -19.7945  -30.7260   24.2259 H   0  0  0  0  0  0
  -17.5023  -31.6265   24.5148 H   0  0  0  0  0  0
  -15.5353  -30.2973   23.7668 H   0  0  0  0  0  0
  -15.8676  -28.0819   22.7055 H   0  0  0  0  0  0
  -24.5915  -30.7064   25.7789 H   0  0  0  0  0  0
  -24.8925  -32.2887   26.4878 H   0  0  0  0  0  0
  -25.8067  -30.8903   27.0234 H   0  0  0  0  0  0
  -26.2892  -29.6780   24.1182 H   0  0  0  0  0  0
  -27.4067  -29.7267   25.4623 H   0  0  0  0  0  0
  -27.8743  -30.4335   23.9341 H   0  0  0  0  0  0
  -27.2671  -33.3621   26.2065 H   0  0  0  0  0  0
  -28.3864  -32.6860   25.0316 H   0  0  0  0  0  0
  -28.0718  -31.8444   26.5413 H   0  0  0  0  0  0
  -28.2590  -38.0099   24.7513 H   0  0  0  0  0  0
  -28.1081  -36.2629   24.6294 H   0  0  0  0  0  0
  -27.2299  -37.1445   25.8870 H   0  0  0  0  0  0
  -20.9352  -29.8765   21.6916 H   0  0  0  0  0  0
  -26.0178  -38.2859   24.1416 H   0  0  0  0  0  0
  -31.0721  -17.1891   19.8695 H   0  0  0  0  0  0
  -28.0534  -17.6232   20.2226 H   0  0  0  0  0  0
  -28.2823  -19.7044   18.9720 H   0  0  0  0  0  0
  -28.6602  -20.0739   21.3562 H   0  0  0  0  0  0
  -31.2858  -17.6839   22.2416 H   0  0  0  0  0  0
  -30.6378  -21.7481   19.7060 H   0  0  0  0  0  0
  -30.4536  -21.9323   21.4206 H   0  0  0  0  0  0
  -27.2539  -24.7881   20.6182 H   0  0  0  0  0  0
  -27.8450  -24.8624   18.9705 H   0  0  0  0  0  0
  -29.6304  -24.2609   21.3801 H   0  0  0  0  0  0
  -30.1000  -24.1847   19.6969 H   0  0  0  0  0  0
  -28.9493  -15.4857   21.1097 H   0  0  0  0  0  0
  -29.4500  -17.6879   17.8463 H   0  0  0  0  0  0
  -31.0586  -19.3489   18.8988 H   0  0  0  0  0  0
  -29.6526  -18.0650   23.5018 H   0  0  0  0  0  0
  1 25  1  0  0  0
  1 30  2  0  0  0
  1 79  1  0  0  0
  2  3  1  0  0  0
  2 25  1  0  0  0
  2 85  1  0  0  0
  2 86  1  0  0  0
  3  4  1  0  0  0
  3 87  1  0  0  0
  3 88  1  0  0  0
  4  5  1  0  0  0
  4 89  1  0  0  0
  4 90  1  0  0  0
  5  6  1  0  0  0
  5 26  1  0  0  0
  5 91  1  0  0  0
  6 25  1  0  0  0
  6 92  1  0  0  0
  6 93  1  0  0  0
  7  8  2  0  0  0
  7 26  1  0  0  0
  7 29  1  0  0  0
  8  9  1  0  0  0
  8 22  1  0  0  0
  9 10  1  0  0  0
  9 27  2  0  0  0
 10 11  2  0  0  0
 10 15  1  0  0  0
 11 12  1  0  0  0
 11 94  1  0  0  0
 12 13  2  0  0  0
 12 95  1  0  0  0
 13 14  1  0  0  0
 13 31  1  0  0  0
 14 15  2  0  0  0
 14 96  1  0  0  0
 15 97  1  0  0  0
 16 17  2  0  0  0
 16 21  1  0  0  0
 16 31  1  0  0  0
 17 18  1  0  0  0
 17 98  1  0  0  0
 18 19  2  0  0  0
 18 99  1  0  0  0
 19 20  1  0  0  0
 19 24  1  0  0  0
 20 21  2  0  0  0
 20100  1  0  0  0
 21 23  1  0  0  0
 22 28  1  0  0  0
 22 32  2  0  0  0
 26 27  1  0  0  0
 28101  1  0  0  0
 28102  1  0  0  0
 29103  1  0  0  0
 29104  1  0  0  0
 33 34  1  0  0  0
 33 66  1  0  0  0
 33 70  2  0  0  0
 34 36  1  0  0  0
 34 59  1  0  0  0
 34105  1  0  0  0
 35 44  2  0  0  0
 35 45  1  0  0  0
 35 68  1  0  0  0
 36 56  1  0  0  0
 36106  1  0  0  0
 37 39  1  0  0  0
 37 47  1  0  0  0
 37 66  1  0  0  0
 37107  1  0  0  0
 38 43  2  0  0  0
 38 46  1  0  0  0
 38 47  1  0  0  0
 39 64  1  0  0  0
 39 67  2  0  0  0
 40 52  1  0  0  0
 40 53  2  0  0  0
 40 58  1  0  0  0
 41108  1  0  0  0
 41109  1  0  0  0
 41110  1  0  0  0
 41 48  1  0  0  0
 42 43  1  0  0  0
 42 66  1  0  0  0
 42111  1  0  0  0
 42112  1  0  0  0
 43 44  1  0  0  0
 44113  1  0  0  0
 45 46  2  0  0  0
 45114  1  0  0  0
 46115  1  0  0  0
 47116  1  0  0  0
 47117  1  0  0  0
 48 56  1  0  0  0
 48 65  1  0  0  0
 48118  1  0  0  0
 49 50  1  0  0  0
 49 53  1  0  0  0
 49 64  1  0  0  0
 49119  1  0  0  0
 50 51  1  0  0  0
 50120  1  0  0  0
 50121  1  0  0  0
 51 52  1  0  0  0
 51122  1  0  0  0
 51123  1  0  0  0
 52124  1  0  0  0
 52125  1  0  0  0
 53 54  1  0  0  0
 54 55  2  0  0  0
 54126  1  0  0  0
 55 57  1  0  0  0
 55127  1  0  0  0
 56 69  2  0  0  0
 57 58  2  0  0  0
 57128  1  0  0  0
 58129  1  0  0  0
 59 60  1  0  0  0
 59 61  1  0  0  0
 59 62  1  0  0  0
 60130  1  0  0  0
 60131  1  0  0  0
 60132  1  0  0  0
 61133  1  0  0  0
 61134  1  0  0  0
 61135  1  0  0  0
 62136  1  0  0  0
 62137  1  0  0  0
 62138  1  0  0  0
 63 65  1  0  0  0
 63139  1  0  0  0
 63140  1  0  0  0
 63141  1  0  0  0
 64142  1  0  0  0
 65143  1  0  0  0
 68 77  1  0  0  0
 71 72  1  0  0  0
 71 75  1  0  0  0
 71 79  1  0  0  0
 71144  1  0  0  0
 72 73  1  0  0  0
 72 81  1  0  0  0
 72145  1  0  0  0
 73 74  1  0  0  0
 73 82  1  0  0  0
 73146  1  0  0  0
 74 76  1  0  0  0
 74 80  1  0  0  0
 74147  1  0  0  0
 75 80  1  0  0  0
 75 83  1  0  0  0
 75148  1  0  0  0
 76 84  1  0  0  0
 76149  1  0  0  0
 76150  1  0  0  0
 77 78  1  0  0  0
 77151  1  0  0  0
 77152  1  0  0  0
 78 84  1  0  0  0
 78153  1  0  0  0
 78154  1  0  0  0
 79155  1  0  0  0
 81156  1  0  0  0
 82157  1  0  0  0
 83158  1  0  0  0
M  ISO  4   1 100  68 101  77 101  79 100
M  END
> <chiral flag>
0

> <version>
0

> <s_m_source_file>
/data/baiqing/PycharmProjects/Reinvent-master-3.2/result/LINK_invent/BTK/process_docking_weight1_custom_sum_contain_oxygen_bond_distance_aromatic_linkinvent_7_9_3/rearranged_h_0156.sdf

> <i_m_source_file_index>
5

> <r_mmod_Potential_Energy-OPLS-2005>
-69.4485015869141

> <r_mmod_Stretch_Energy-OPLS-2005>
70.2157363891602

> <r_mmod_Bend_Energy-OPLS-2005>
128.19287109375

> <r_mmod_Torsional_Energy-OPLS-2005>
298.860717773438

> <r_mmod_Improper_Torsional_Energy-OPLS-2005>
5.60193157196045

> <r_mmod_Van_der_Waal_Energy-OPLS-2005>
138.827667236328

> <r_mmod_Electrostatic_Energy-OPLS-2005>
-510.979461669922

> <r_mmod_Solvation_Energy-OPLS-2005>
-239.241516113281

> <b_mmod_Minimization_Converged-OPLS-2005>
0

> <r_mmod_RMS_Derivative-OPLS-2005>
1.04962003231049

$$$$
5
                    3D
 Structure written by MMmdl.
170179  0  0  1  0            999 V2000
  -30.6924  -14.6374   20.5144 C   0  0  0  0  0  0
  -30.4075  -12.3970   19.4710 C   0  0  0  0  0  0
  -29.4984  -12.5123   18.2284 C   0  0  0  0  0  0
  -28.0169  -12.3601   18.6287 C   0  0  0  0  0  0
  -27.6405  -13.2319   19.8582 C   0  0  2  0  0  0
  -28.6826  -13.1015   20.9901 C   0  0  0  0  0  0
  -25.2443  -13.8145   20.5679 C   0  0  0  0  0  0
  -24.1769  -13.0417   20.9217 C   0  0  0  0  0  0
  -24.6374  -11.6888   20.8761 C   0  0  0  0  0  0
  -23.9057  -10.4276   21.0420 C   0  0  0  0  0  0
  -24.3608   -9.4186   21.9187 C   0  0  0  0  0  0
  -23.6277   -8.2231   22.0747 C   0  0  0  0  0  0
  -22.4266   -8.0275   21.3530 C   0  0  0  0  0  0
  -21.9912   -9.0254   20.4639 C   0  0  0  0  0  0
  -22.7243  -10.2119   20.3054 C   0  0  0  0  0  0
  -21.6844   -6.0719   22.5286 C   0  0  0  0  0  0
  -21.4008   -6.5628   23.8221 C   0  0  0  0  0  0
  -21.3664   -5.6777   24.9177 C   0  0  0  0  0  0
  -21.6053   -4.3048   24.7221 C   0  0  0  0  0  0
  -21.8816   -3.8139   23.4349 C   0  0  0  0  0  0
  -21.9183   -4.6946   22.3405 C   0  0  0  0  0  0
  -22.7779  -13.5175   21.1875 C   0  0  0  0  0  0
  -22.1654   -4.2138   21.0982 F   0  0  0  0  0  0
  -21.5628   -3.4545   25.7734 F   0  0  0  0  0  0
  -29.9837  -13.4587   20.4146 N   0  0  0  0  0  0
  -26.2912  -12.9399   20.3295 N   0  0  0  0  0  0
  -25.9298  -11.6539   20.5749 N   0  0  0  0  0  0
  -22.0447  -12.8185   22.0441 N   0  0  0  0  0  0
  -25.4082  -15.1870   20.3995 N   0  0  0  0  0  0
  -31.8791  -14.6361   20.1816 O   0  0  0  0  0  0
  -21.6627   -6.8871   21.4242 O   0  0  0  0  0  0
  -22.3461  -14.5497   20.6724 O   0  0  0  0  0  0
  -24.6303  -31.8555   23.2055 C   0  0  0  0  0  0
  -25.9133  -32.4779   23.8392 C   0  0  1  0  0  0
  -27.2078  -27.3165   20.1208 C   0  0  0  0  0  0
  -25.5936  -33.8570   24.2321 N   0  0  0  0  0  0
  -23.4240  -30.4722   21.5466 C   0  0  2  0  0  0
  -24.8685  -28.9413   20.1238 C   0  0  0  0  0  0
  -22.7566  -29.4452   22.4960 C   0  0  0  0  0  0
  -18.0209  -28.1207   22.8463 C   0  0  0  0  0  0
  -24.1523  -36.7280   23.2626 C   0  0  0  0  0  0
  -25.9642  -30.7932   21.3799 C   0  0  0  0  0  0
  -26.0372  -29.4189   20.7247 C   0  0  0  0  0  0
  -27.2161  -28.6197   20.7076 C   0  0  0  0  0  0
  -26.0095  -26.9007   19.4994 C   0  0  0  0  0  0
  -24.8543  -27.6963   19.4920 C   0  0  0  0  0  0
  -23.6469  -29.8163   20.1576 C   0  0  0  0  0  0
  -25.4124  -36.3046   24.0336 C   0  0  1  0  0  0
  -20.5858  -28.3368   23.1107 C   0  0  2  0  0  0
  -20.6678  -26.9245   22.4806 C   0  0  0  0  0  0
  -19.5496  -26.6695   21.4660 C   0  0  0  0  0  0
  -18.1826  -26.7827   22.1439 C   0  0  0  0  0  0
  -19.1519  -28.8622   23.2855 C   0  0  0  0  0  0
  -18.9475  -30.1211   23.8962 C   0  0  0  0  0  0
  -17.6512  -30.6362   24.0651 C   0  0  0  0  0  0
  -25.9026  -34.9433   23.5083 C   0  0  0  0  0  0
  -16.5346  -29.8922   23.6404 C   0  0  0  0  0  0
  -16.7193  -28.6344   23.0408 C   0  0  0  0  0  0
  -26.4587  -31.6539   25.0707 C   0  0  0  0  0  0
  -25.3865  -31.3637   26.1448 C   0  0  0  0  0  0
  -27.0488  -30.2981   24.6116 C   0  0  0  0  0  0
  -27.6140  -32.4269   25.7493 C   0  0  0  0  0  0
  -27.5594  -37.1814   24.8463 C   0  0  0  0  0  0
  -21.4223  -29.2874   22.3707 N   0  0  0  0  0  0
  -26.4317  -37.3726   23.9399 N   0  0  0  0  0  0
  -24.6889  -31.0589   22.1001 N   0  0  0  0  0  0
  -23.4305  -28.7885   23.2908 O   0  0  0  0  0  0
  -28.3417  -26.4944   20.1477 O   0  0  0  0  0  0
  -26.5579  -34.8910   22.4639 O   0  0  0  0  0  0
  -23.5484  -32.1332   23.7369 O   0  0  0  0  0  0
  -28.4613  -21.2985   20.6359 C   0  0  0  0  0  0
  -25.7532  -21.0582   20.0309 C   0  0  0  0  0  0
  -27.9187  -19.9704   20.4526 C   0  0  0  0  0  0
  -27.6550  -22.5090   20.5517 C   0  0  0  0  0  0
  -26.5219  -19.8934   20.2065 C   0  0  0  0  0  0
  -26.2774  -22.3573   20.2304 C   0  0  0  0  0  0
  -30.1116  -18.4785   19.8676 C   0  0  0  0  0  0
  -28.7821  -17.7915   21.7813 C   0  0  0  0  0  0
  -30.6051  -16.9850   19.7020 C   0  0  0  0  0  0
  -28.9732  -16.2580   21.5117 C   0  0  0  0  0  0
  -28.7097  -18.5940   20.4682 C   0  0  0  0  0  0
  -25.7872  -18.5584   20.1377 C   0  0  0  0  0  0
  -29.4712  -23.9647   21.7193 C   0  0  0  0  0  0
  -24.0536  -23.2811   20.0243 C   0  0  0  0  0  0
  -28.2925  -25.0621   19.7632 C   0  0  0  0  0  0
  -28.1580  -23.9710   20.9164 C   0  0  1  0  0  0
  -30.0342  -15.8689   20.5451 N   0  0  0  0  0  0
  -25.4661  -23.4788   20.1660 O   0  0  0  0  0  0
  -31.4581  -12.4704   19.1781 H   0  0  0  0  0  0
  -30.3045  -11.4116   19.9324 H   0  0  0  0  0  0
  -29.7684  -11.7574   17.4877 H   0  0  0  0  0  0
  -29.6538  -13.4838   17.7551 H   0  0  0  0  0  0
  -27.8440  -11.3064   18.8515 H   0  0  0  0  0  0
  -27.3728  -12.6033   17.7837 H   0  0  0  0  0  0
  -27.6519  -14.2652   19.5101 H   0  0  0  0  0  0
  -28.7017  -12.0768   21.3615 H   0  0  0  0  0  0
  -28.4246  -13.7102   21.8527 H   0  0  0  0  0  0
  -25.2746   -9.5653   22.4777 H   0  0  0  0  0  0
  -23.9987   -7.4592   22.7476 H   0  0  0  0  0  0
  -21.0840   -8.8759   19.8940 H   0  0  0  0  0  0
  -22.3710  -10.9644   19.6170 H   0  0  0  0  0  0
  -21.2013   -7.6142   23.9715 H   0  0  0  0  0  0
  -21.1493   -6.0519   25.9078 H   0  0  0  0  0  0
  -22.0596   -2.7608   23.2853 H   0  0  0  0  0  0
  -22.4043  -11.9828   22.4817 H   0  0  0  0  0  0
  -21.1057  -13.1198   22.2661 H   0  0  0  0  0  0
  -24.6327  -15.8303   20.5032 H   0  0  0  0  0  0
  -26.2430  -15.6181   20.0269 H   0  0  0  0  0  0
  -26.7182  -32.5528   23.1165 H   0  0  0  0  0  0
  -25.0319  -33.9739   25.0613 H   0  0  0  0  0  0
  -22.7162  -31.2883   21.3982 H   0  0  0  0  0  0
  -23.3790  -35.9605   23.3262 H   0  0  0  0  0  0
  -24.3626  -36.8915   22.2043 H   0  0  0  0  0  0
  -23.7329  -37.6499   23.6661 H   0  0  0  0  0  0
  -26.0960  -31.5694   20.6263 H   0  0  0  0  0  0
  -26.8387  -30.8307   22.0139 H   0  0  0  0  0  0
  -28.1280  -28.9855   21.1585 H   0  0  0  0  0  0
  -25.9096  -25.9530   19.0055 H   0  0  0  0  0  0
  -23.9529  -27.3422   19.0104 H   0  0  0  0  0  0
  -23.8352  -30.5893   19.4128 H   0  0  0  0  0  0
  -22.7755  -29.2542   19.8073 H   0  0  0  0  0  0
  -25.1325  -36.1875   25.0841 H   0  0  0  0  0  0
  -20.9866  -28.2486   24.1216 H   0  0  0  0  0  0
  -20.5695  -26.1698   23.2630 H   0  0  0  0  0  0
  -21.6452  -26.7456   22.0282 H   0  0  0  0  0  0
  -19.6642  -25.6916   20.9983 H   0  0  0  0  0  0
  -19.6110  -27.4139   20.6712 H   0  0  0  0  0  0
  -17.3880  -26.6573   21.3991 H   0  0  0  0  0  0
  -18.0604  -25.9766   22.8712 H   0  0  0  0  0  0
  -19.8001  -30.6911   24.2351 H   0  0  0  0  0  0
  -17.5081  -31.6030   24.5344 H   0  0  0  0  0  0
  -15.5361  -30.2869   23.7711 H   0  0  0  0  0  0
  -15.8549  -28.0696   22.7106 H   0  0  0  0  0  0
  -24.6066  -30.6952   25.7785 H   0  0  0  0  0  0
  -24.9094  -32.2798   26.4934 H   0  0  0  0  0  0
  -25.8270  -30.8813   27.0164 H   0  0  0  0  0  0
  -26.3018  -29.6650   24.1322 H   0  0  0  0  0  0
  -27.4390  -29.7323   25.4590 H   0  0  0  0  0  0
  -27.8822  -30.4304   23.9207 H   0  0  0  0  0  0
  -27.2758  -33.3561   26.2064 H   0  0  0  0  0  0
  -28.3995  -32.6783   25.0356 H   0  0  0  0  0  0
  -28.0762  -31.8383   26.5417 H   0  0  0  0  0  0
  -28.2554  -38.0162   24.7477 H   0  0  0  0  0  0
  -28.1142  -36.2665   24.6310 H   0  0  0  0  0  0
  -27.2278  -37.1477   25.8860 H   0  0  0  0  0  0
  -20.9403  -29.8630   21.6940 H   0  0  0  0  0  0
  -26.0187  -38.2787   24.1434 H   0  0  0  0  0  0
  -29.5090  -21.3881   20.8831 H   0  0  0  0  0  0
  -24.7159  -20.9108   19.7664 H   0  0  0  0  0  0
  -30.1234  -18.9556   18.8859 H   0  0  0  0  0  0
  -30.8164  -19.0426   20.4782 H   0  0  0  0  0  0
  -29.5900  -18.1754   22.4053 H   0  0  0  0  0  0
  -27.8758  -17.9335   22.3699 H   0  0  0  0  0  0
  -31.6887  -17.0181   19.8138 H   0  0  0  0  0  0
  -30.4416  -16.6864   18.6640 H   0  0  0  0  0  0
  -28.0272  -15.8802   21.1230 H   0  0  0  0  0  0
  -29.1305  -15.7532   22.4654 H   0  0  0  0  0  0
  -28.1491  -17.9751   19.7756 H   0  0  0  0  0  0
  -25.9742  -18.0368   19.1990 H   0  0  0  0  0  0
  -24.7054  -18.6690   20.2298 H   0  0  0  0  0  0
  -26.0957  -17.9140   20.9603 H   0  0  0  0  0  0
  -29.3857  -23.3498   22.6143 H   0  0  0  0  0  0
  -29.7416  -24.9822   22.0004 H   0  0  0  0  0  0
  -30.3073  -23.5866   21.1305 H   0  0  0  0  0  0
  -23.5196  -24.2172   20.1607 H   0  0  0  0  0  0
  -23.6588  -22.5996   20.7810 H   0  0  0  0  0  0
  -23.7906  -22.9026   19.0314 H   0  0  0  0  0  0
  -27.5718  -24.8595   18.9780 H   0  0  0  0  0  0
  -29.2427  -24.8850   19.2512 H   0  0  0  0  0  0
  -27.3890  -24.3525   21.5953 H   0  0  0  0  0  0
  1 25  1  0  0  0
  1 30  2  0  0  0
  1 87  1  0  0  0
  2  3  1  0  0  0
  2 25  1  0  0  0
  2 89  1  0  0  0
  2 90  1  0  0  0
  3  4  1  0  0  0
  3 91  1  0  0  0
  3 92  1  0  0  0
  4  5  1  0  0  0
  4 93  1  0  0  0
  4 94  1  0  0  0
  5  6  1  0  0  0
  5 26  1  0  0  0
  5 95  1  0  0  0
  6 25  1  0  0  0
  6 96  1  0  0  0
  6 97  1  0  0  0
  7  8  2  0  0  0
  7 26  1  0  0  0
  7 29  1  0  0  0
  8  9  1  0  0  0
  8 22  1  0  0  0
  9 10  1  0  0  0
  9 27  2  0  0  0
 10 11  2  0  0  0
 10 15  1  0  0  0
 11 12  1  0  0  0
 11 98  1  0  0  0
 12 13  2  0  0  0
 12 99  1  0  0  0
 13 14  1  0  0  0
 13 31  1  0  0  0
 14 15  2  0  0  0
 14100  1  0  0  0
 15101  1  0  0  0
 16 17  2  0  0  0
 16 21  1  0  0  0
 16 31  1  0  0  0
 17 18  1  0  0  0
 17102  1  0  0  0
 18 19  2  0  0  0
 18103  1  0  0  0
 19 20  1  0  0  0
 19 24  1  0  0  0
 20 21  2  0  0  0
 20104  1  0  0  0
 21 23  1  0  0  0
 22 28  1  0  0  0
 22 32  2  0  0  0
 26 27  1  0  0  0
 28105  1  0  0  0
 28106  1  0  0  0
 29107  1  0  0  0
 29108  1  0  0  0
 33 34  1  0  0  0
 33 66  1  0  0  0
 33 70  2  0  0  0
 34 36  1  0  0  0
 34 59  1  0  0  0
 34109  1  0  0  0
 35 44  2  0  0  0
 35 45  1  0  0  0
 35 68  1  0  0  0
 36 56  1  0  0  0
 36110  1  0  0  0
 37 39  1  0  0  0
 37 47  1  0  0  0
 37 66  1  0  0  0
 37111  1  0  0  0
 38 43  2  0  0  0
 38 46  1  0  0  0
 38 47  1  0  0  0
 39 64  1  0  0  0
 39 67  2  0  0  0
 40 52  1  0  0  0
 40 53  2  0  0  0
 40 58  1  0  0  0
 41112  1  0  0  0
 41113  1  0  0  0
 41114  1  0  0  0
 41 48  1  0  0  0
 42 43  1  0  0  0
 42 66  1  0  0  0
 42115  1  0  0  0
 42116  1  0  0  0
 43 44  1  0  0  0
 44117  1  0  0  0
 45 46  2  0  0  0
 45118  1  0  0  0
 46119  1  0  0  0
 47120  1  0  0  0
 47121  1  0  0  0
 48 56  1  0  0  0
 48 65  1  0  0  0
 48122  1  0  0  0
 49 50  1  0  0  0
 49 53  1  0  0  0
 49 64  1  0  0  0
 49123  1  0  0  0
 50 51  1  0  0  0
 50124  1  0  0  0
 50125  1  0  0  0
 51 52  1  0  0  0
 51126  1  0  0  0
 51127  1  0  0  0
 52128  1  0  0  0
 52129  1  0  0  0
 53 54  1  0  0  0
 54 55  2  0  0  0
 54130  1  0  0  0
 55 57  1  0  0  0
 55131  1  0  0  0
 56 69  2  0  0  0
 57 58  2  0  0  0
 57132  1  0  0  0
 58133  1  0  0  0
 59 60  1  0  0  0
 59 61  1  0  0  0
 59 62  1  0  0  0
 60134  1  0  0  0
 60135  1  0  0  0
 60136  1  0  0  0
 61137  1  0  0  0
 61138  1  0  0  0
 61139  1  0  0  0
 62140  1  0  0  0
 62141  1  0  0  0
 62142  1  0  0  0
 63 65  1  0  0  0
 63143  1  0  0  0
 63144  1  0  0  0
 63145  1  0  0  0
 64146  1  0  0  0
 65147  1  0  0  0
 68 85  1  0  0  0
 71 73  2  0  0  0
 71 74  1  0  0  0
 71148  1  0  0  0
 72 75  2  0  0  0
 72 76  1  0  0  0
 72149  1  0  0  0
 73 75  1  0  0  0
 73 81  1  0  0  0
 74 76  2  0  0  0
 74 86  1  0  0  0
 75 82  1  0  0  0
 76 88  1  0  0  0
 77 79  1  0  0  0
 77 81  1  0  0  0
 77150  1  0  0  0
 77151  1  0  0  0
 78 80  1  0  0  0
 78 81  1  0  0  0
 78152  1  0  0  0
 78153  1  0  0  0
 79 87  1  0  0  0
 79154  1  0  0  0
 79155  1  0  0  0
 80 87  1  0  0  0
 80156  1  0  0  0
 80157  1  0  0  0
 81158  1  0  0  0
 82159  1  0  0  0
 82160  1  0  0  0
 82161  1  0  0  0
 83162  1  0  0  0
 83163  1  0  0  0
 83164  1  0  0  0
 83 86  1  0  0  0
 84 88  1  0  0  0
 84165  1  0  0  0
 84166  1  0  0  0
 84167  1  0  0  0
 85 86  1  0  0  0
 85168  1  0  0  0
 85169  1  0  0  0
 86170  1  0  0  0
M  ISO  4   1 100  68 101  85 101  87 100
M  END
> <chiral flag>
0

> <version>
0

> <s_m_source_file>
/data/baiqing/PycharmProjects/Reinvent-master-3.2/result/LINK_invent/BTK/process_docking_weight1_custom_sum_contain_oxygen_bond_distance_aromatic_linkinvent_7_9_3/rearranged_h_0156.sdf

> <i_m_source_file_index>
6

> <r_mmod_Potential_Energy-OPLS-2005>
346.246978759766

> <r_mmod_Stretch_Energy-OPLS-2005>
102.924835205078

> <r_mmod_Bend_Energy-OPLS-2005>
196.786743164062

> <r_mmod_Torsional_Energy-OPLS-2005>
316.025665283203

> <r_mmod_Improper_Torsional_Energy-OPLS-2005>
13.9040060043335

> <r_mmod_Van_der_Waal_Energy-OPLS-2005>
164.461517333984

> <r_mmod_Electrostatic_Energy-OPLS-2005>
-300.828369140625

> <r_mmod_Solvation_Energy-OPLS-2005>
-197.648651123047

> <b_mmod_Minimization_Converged-OPLS-2005>
0

> <r_mmod_RMS_Derivative-OPLS-2005>
8.37589836120605

$$$$
6
                    3D
 Structure written by MMmdl.
189199  0  0  1  0            999 V2000
  -30.7358  -14.4682   20.4553 C   0  0  0  0  0  0
  -30.4215  -12.2681   19.4319 C   0  0  0  0  0  0
  -29.5037  -12.4512   18.2040 C   0  0  0  0  0  0
  -28.0240  -12.3290   18.6184 C   0  0  0  0  0  0
  -27.6622  -13.2017   19.8532 C   0  0  2  0  0  0
  -28.7120  -13.0535   20.9795 C   0  0  0  0  0  0
  -25.2657  -13.8144   20.5653 C   0  0  0  0  0  0
  -24.1869  -13.0444   20.9184 C   0  0  0  0  0  0
  -24.6378  -11.6910   20.8726 C   0  0  0  0  0  0
  -23.8997  -10.4305   21.0386 C   0  0  0  0  0  0
  -24.3541   -9.4231   21.9182 C   0  0  0  0  0  0
  -23.6243   -8.2249   22.0758 C   0  0  0  0  0  0
  -22.4240   -8.0265   21.3533 C   0  0  0  0  0  0
  -21.9845   -9.0227   20.4646 C   0  0  0  0  0  0
  -22.7150  -10.2133   20.3042 C   0  0  0  0  0  0
  -21.6848   -6.0705   22.5264 C   0  0  0  0  0  0
  -21.4004   -6.5609   23.8191 C   0  0  0  0  0  0
  -21.3651   -5.6758   24.9153 C   0  0  0  0  0  0
  -21.6062   -4.3022   24.7218 C   0  0  0  0  0  0
  -21.8838   -3.8115   23.4333 C   0  0  0  0  0  0
  -21.9193   -4.6931   22.3382 C   0  0  0  0  0  0
  -22.7895  -13.5286   21.1794 C   0  0  0  0  0  0
  -22.1658   -4.2114   21.0959 F   0  0  0  0  0  0
  -21.5652   -3.4510   25.7733 F   0  0  0  0  0  0
  -30.0403  -13.3013   20.4013 N   0  0  0  0  0  0
  -26.3054  -12.9291   20.3271 N   0  0  0  0  0  0
  -25.9320  -11.6465   20.5747 N   0  0  0  0  0  0
  -22.0426  -12.8347   22.0300 N   0  0  0  0  0  0
  -25.4477  -15.1830   20.4048 N   0  0  0  0  0  0
  -31.9475  -14.5320   20.2307 O   0  0  0  0  0  0
  -21.6635   -6.8832   21.4220 O   0  0  0  0  0  0
  -22.3627  -14.5578   20.6570 O   0  0  0  0  0  0
  -24.6022  -31.8729   23.2105 C   0  0  0  0  0  0
  -25.8934  -32.4856   23.8404 C   0  0  1  0  0  0
  -27.2606  -27.4908   20.1131 C   0  0  0  0  0  0
  -25.5810  -33.8664   24.2324 N   0  0  0  0  0  0
  -23.3905  -30.4898   21.5496 C   0  0  2  0  0  0
  -24.8481  -28.9636   20.1155 C   0  0  0  0  0  0
  -22.7361  -29.4654   22.5018 C   0  0  0  0  0  0
  -18.0256  -28.1369   22.8501 C   0  0  0  0  0  0
  -24.1480  -36.7361   23.2631 C   0  0  0  0  0  0
  -25.9087  -30.8595   21.3539 C   0  0  0  0  0  0
  -25.9964  -29.4950   20.7111 C   0  0  0  0  0  0
  -27.2015  -28.7684   20.7153 C   0  0  0  0  0  0
  -26.0923  -26.9639   19.5208 C   0  0  0  0  0  0
  -24.8884  -27.6934   19.5151 C   0  0  0  0  0  0
  -23.6000  -29.8134   20.1656 C   0  0  0  0  0  0
  -25.4094  -36.3152   24.0339 C   0  0  1  0  0  0
  -20.5845  -28.3631   23.1359 C   0  0  2  0  0  0
  -20.6748  -26.9383   22.5425 C   0  0  0  0  0  0
  -19.5732  -26.6379   21.5220 C   0  0  0  0  0  0
  -18.1905  -26.7919   22.1621 C   0  0  0  0  0  0
  -19.1506  -28.8813   23.2920 C   0  0  0  0  0  0
  -18.9439  -30.1428   23.8916 C   0  0  0  0  0  0
  -17.6447  -30.6583   24.0558 C   0  0  0  0  0  0
  -25.9020  -34.9512   23.5142 C   0  0  0  0  0  0
  -16.5335  -29.9085   23.6336 C   0  0  0  0  0  0
  -16.7244  -28.6495   23.0359 C   0  0  0  0  0  0
  -26.4388  -31.6614   25.0702 C   0  0  0  0  0  0
  -25.3628  -31.3753   26.1425 C   0  0  0  0  0  0
  -27.0176  -30.3050   24.6042 C   0  0  0  0  0  0
  -27.6005  -32.4298   25.7441 C   0  0  0  0  0  0
  -27.5612  -37.1791   24.8416 C   0  0  0  0  0  0
  -21.4092  -29.2989   22.3747 N   0  0  0  0  0  0
  -26.4277  -37.3836   23.9432 N   0  0  0  0  0  0
  -24.6517  -31.0859   22.0992 N   0  0  0  0  0  0
  -23.4163  -28.8235   23.3061 O   0  0  0  0  0  0
  -28.3760  -26.6829   20.0783 O   0  0  0  0  0  0
  -26.5631  -34.8956   22.4733 O   0  0  0  0  0  0
  -23.5225  -32.1478   23.7518 O   0  0  0  0  0  0
  -30.6694  -22.9615   18.9616 C   0  0  0  0  0  0
  -29.5089  -20.6848   17.8387 C   0  0  0  0  0  0
  -30.5898  -22.8710   17.5554 C   0  0  0  0  0  0
  -30.1977  -21.9356   19.8067 C   0  0  0  0  0  0
  -29.9560  -21.7292   16.9967 C   0  0  0  0  0  0
  -29.6652  -20.7495   19.2452 C   0  0  0  0  0  0
  -30.3061  -17.7677   18.9849 C   0  0  0  0  0  0
  -28.5967  -17.5460   20.8455 C   0  0  0  0  0  0
  -30.0537  -25.0138   16.2795 C   0  0  0  0  0  0
  -32.3693  -24.7756   17.2466 C   0  0  0  0  0  0
  -30.1806  -16.2353   18.8849 C   0  0  0  0  0  0
  -29.6082  -16.4624   21.2988 C   0  0  0  0  0  0
  -29.5924  -25.8579   17.4842 C   0  0  0  0  0  0
  -32.0421  -26.2145   17.7220 C   0  0  0  0  0  0
  -31.1476  -24.0016   16.6662 C   0  0  1  0  0  0
  -29.0600  -18.4001   19.6362 C   0  0  0  0  0  0
  -29.7566  -21.5722   15.4952 C   0  0  0  0  0  0
  -29.0333  -23.0148   21.7532 C   0  0  0  0  0  0
  -31.5607  -22.7043   21.8368 C   0  0  0  0  0  0
  -30.4506  -27.5019   19.1650 C   0  0  0  0  0  0
  -29.6661  -27.1710   20.4432 C   0  0  0  0  0  0
  -30.2239  -22.1427   21.3219 C   0  0  0  0  0  0
  -29.9848  -15.5649   20.1939 N   0  0  0  0  0  0
  -30.7139  -26.2640   18.3803 N   0  3  1  0  0  0
  -29.3174  -19.7258   20.1117 O   0  0  0  0  0  0
  -31.4697  -12.3298   19.1349 H   0  0  0  0  0  0
  -30.2964  -11.2764   19.8701 H   0  0  0  0  0  0
  -29.7434  -11.7039   17.4474 H   0  0  0  0  0  0
  -29.6825  -13.4219   17.7378 H   0  0  0  0  0  0
  -27.8391  -11.2784   18.8440 H   0  0  0  0  0  0
  -27.3756  -12.5754   17.7766 H   0  0  0  0  0  0
  -27.6881  -14.2366   19.5104 H   0  0  0  0  0  0
  -28.6756  -12.0542   21.4144 H   0  0  0  0  0  0
  -28.5001  -13.7476   21.7927 H   0  0  0  0  0  0
  -25.2664   -9.5732   22.4790 H   0  0  0  0  0  0
  -23.9936   -7.4632   22.7482 H   0  0  0  0  0  0
  -21.0772   -8.8674   19.8984 H   0  0  0  0  0  0
  -22.3525  -10.9637   19.6142 H   0  0  0  0  0  0
  -21.1984   -7.6115   23.9688 H   0  0  0  0  0  0
  -21.1464   -6.0483   25.9053 H   0  0  0  0  0  0
  -22.0648   -2.7596   23.2818 H   0  0  0  0  0  0
  -22.3894  -11.9957   22.4699 H   0  0  0  0  0  0
  -21.1055  -13.1496   22.2396 H   0  0  0  0  0  0
  -24.7029  -15.8560   20.5457 H   0  0  0  0  0  0
  -26.3123  -15.6033   20.0898 H   0  0  0  0  0  0
  -26.7017  -32.5620   23.1200 H   0  0  0  0  0  0
  -24.9796  -33.9847   25.0346 H   0  0  0  0  0  0
  -22.6753  -31.3029   21.4068 H   0  0  0  0  0  0
  -23.3761  -35.9668   23.3219 H   0  0  0  0  0  0
  -24.3601  -36.9049   22.2061 H   0  0  0  0  0  0
  -23.7191  -37.6537   23.6677 H   0  0  0  0  0  0
  -26.0033  -31.6222   20.5803 H   0  0  0  0  0  0
  -26.7999  -30.9300   21.9628 H   0  0  0  0  0  0
  -28.0522  -29.2189   21.2006 H   0  0  0  0  0  0
  -26.1185  -25.9849   19.0654 H   0  0  0  0  0  0
  -24.0057  -27.2748   19.0542 H   0  0  0  0  0  0
  -23.6967  -30.5837   19.4008 H   0  0  0  0  0  0
  -22.7309  -29.2176   19.8779 H   0  0  0  0  0  0
  -25.1255  -36.2024   25.0830 H   0  0  0  0  0  0
  -20.9931  -28.3176   24.1485 H   0  0  0  0  0  0
  -20.5665  -26.2231   23.3589 H   0  0  0  0  0  0
  -21.6618  -26.7442   22.1199 H   0  0  0  0  0  0
  -19.6884  -25.6295   21.1232 H   0  0  0  0  0  0
  -19.6699  -27.3202   20.6767 H   0  0  0  0  0  0
  -17.4194  -26.6691   21.4002 H   0  0  0  0  0  0
  -18.0287  -26.0049   22.9003 H   0  0  0  0  0  0
  -19.7917  -30.7226   24.2299 H   0  0  0  0  0  0
  -17.5011  -31.6283   24.5127 H   0  0  0  0  0  0
  -15.5340  -30.2999   23.7640 H   0  0  0  0  0  0
  -15.8638  -28.0809   22.7096 H   0  0  0  0  0  0
  -24.5783  -30.7133   25.7728 H   0  0  0  0  0  0
  -24.8830  -32.2934   26.4845 H   0  0  0  0  0  0
  -25.7919  -30.8908   27.0197 H   0  0  0  0  0  0
  -26.2725  -29.6902   24.0971 H   0  0  0  0  0  0
  -27.3805  -29.7200   25.4505 H   0  0  0  0  0  0
  -27.8622  -30.4369   23.9270 H   0  0  0  0  0  0
  -27.2662  -33.3585   26.2087 H   0  0  0  0  0  0
  -28.3773  -32.6875   25.0223 H   0  0  0  0  0  0
  -28.0703  -31.8353   26.5283 H   0  0  0  0  0  0
  -28.2507  -38.0210   24.7665 H   0  0  0  0  0  0
  -28.1238  -36.2764   24.5977 H   0  0  0  0  0  0
  -27.2375  -37.1128   25.8819 H   0  0  0  0  0  0
  -20.9247  -29.8639   21.6911 H   0  0  0  0  0  0
  -26.0175  -38.2889   24.1567 H   0  0  0  0  0  0
  -31.0977  -23.8343   19.4172 H   0  0  0  0  0  0
  -29.0434  -19.8239   17.3825 H   0  0  0  0  0  0
  -30.4795  -18.1752   17.9893 H   0  0  0  0  0  0
  -31.1949  -18.0210   19.5651 H   0  0  0  0  0  0
  -28.3485  -18.1906   21.6901 H   0  0  0  0  0  0
  -27.6634  -17.0473   20.5812 H   0  0  0  0  0  0
  -30.4466  -25.6790   15.5096 H   0  0  0  0  0  0
  -29.1908  -24.5241   15.8311 H   0  0  0  0  0  0
  -32.8713  -24.2059   18.0280 H   0  0  0  0  0  0
  -33.1223  -24.8747   16.4623 H   0  0  0  0  0  0
  -31.0591  -15.8590   18.3531 H   0  0  0  0  0  0
  -29.3341  -15.9795   18.2452 H   0  0  0  0  0  0
  -29.1902  -15.8907   22.1268 H   0  0  0  0  0  0
  -30.5111  -16.9377   21.6917 H   0  0  0  0  0  0
  -28.8824  -25.2750   18.0698 H   0  0  0  0  0  0
  -29.0453  -26.7296   17.1230 H   0  0  0  0  0  0
  -32.0484  -26.9112   16.8819 H   0  0  0  0  0  0
  -32.8221  -26.5545   18.4064 H   0  0  0  0  0  0
  -31.5172  -23.5184   15.7594 H   0  0  0  0  0  0
  -28.2383  -18.4279   18.9180 H   0  0  0  0  0  0
  -28.9393  -20.8861   15.2759 H   0  0  0  0  0  0
  -30.6642  -21.1832   15.0351 H   0  0  0  0  0  0
  -29.5093  -22.5120   15.0054 H   0  0  0  0  0  0
  -28.0930  -22.5610   21.4375 H   0  0  0  0  0  0
  -29.0793  -24.0104   21.3107 H   0  0  0  0  0  0
  -28.9924  -23.1318   22.8363 H   0  0  0  0  0  0
  -32.3921  -22.0727   21.5215 H   0  0  0  0  0  0
  -31.5719  -22.7374   22.9261 H   0  0  0  0  0  0
  -31.7541  -23.7189   21.4882 H   0  0  0  0  0  0
  -31.3964  -27.9542   19.4693 H   0  0  0  0  0  0
  -29.9332  -28.2574   18.5713 H   0  0  0  0  0  0
  -29.6736  -28.0058   21.1392 H   0  0  0  0  0  0
  -30.1759  -26.3682   20.9754 H   0  0  0  0  0  0
  -30.1021  -21.1751   21.8085 H   0  0  0  0  0  0
  -30.7664  -25.5317   19.0725 H   0  0  0  0  0  0
  1 25  1  0  0  0
  1 30  2  0  0  0
  1 93  1  0  0  0
  2  3  1  0  0  0
  2 25  1  0  0  0
  2 96  1  0  0  0
  2 97  1  0  0  0
  3  4  1  0  0  0
  3 98  1  0  0  0
  3 99  1  0  0  0
  4  5  1  0  0  0
  4100  1  0  0  0
  4101  1  0  0  0
  5  6  1  0  0  0
  5 26  1  0  0  0
  5102  1  0  0  0
  6 25  1  0  0  0
  6103  1  0  0  0
  6104  1  0  0  0
  7  8  2  0  0  0
  7 26  1  0  0  0
  7 29  1  0  0  0
  8  9  1  0  0  0
  8 22  1  0  0  0
  9 10  1  0  0  0
  9 27  2  0  0  0
 10 11  2  0  0  0
 10 15  1  0  0  0
 11 12  1  0  0  0
 11105  1  0  0  0
 12 13  2  0  0  0
 12106  1  0  0  0
 13 14  1  0  0  0
 13 31  1  0  0  0
 14 15  2  0  0  0
 14107  1  0  0  0
 15108  1  0  0  0
 16 17  2  0  0  0
 16 21  1  0  0  0
 16 31  1  0  0  0
 17 18  1  0  0  0
 17109  1  0  0  0
 18 19  2  0  0  0
 18110  1  0  0  0
 19 20  1  0  0  0
 19 24  1  0  0  0
 20 21  2  0  0  0
 20111  1  0  0  0
 21 23  1  0  0  0
 22 28  1  0  0  0
 22 32  2  0  0  0
 26 27  1  0  0  0
 28112  1  0  0  0
 28113  1  0  0  0
 29114  1  0  0  0
 29115  1  0  0  0
 33 34  1  0  0  0
 33 66  1  0  0  0
 33 70  2  0  0  0
 34 36  1  0  0  0
 34 59  1  0  0  0
 34116  1  0  0  0
 35 44  2  0  0  0
 35 45  1  0  0  0
 35 68  1  0  0  0
 36 56  1  0  0  0
 36117  1  0  0  0
 37 39  1  0  0  0
 37 47  1  0  0  0
 37 66  1  0  0  0
 37118  1  0  0  0
 38 43  2  0  0  0
 38 46  1  0  0  0
 38 47  1  0  0  0
 39 64  1  0  0  0
 39 67  2  0  0  0
 40 52  1  0  0  0
 40 53  2  0  0  0
 40 58  1  0  0  0
 41119  1  0  0  0
 41120  1  0  0  0
 41121  1  0  0  0
 41 48  1  0  0  0
 42 43  1  0  0  0
 42 66  1  0  0  0
 42122  1  0  0  0
 42123  1  0  0  0
 43 44  1  0  0  0
 44124  1  0  0  0
 45 46  2  0  0  0
 45125  1  0  0  0
 46126  1  0  0  0
 47127  1  0  0  0
 47128  1  0  0  0
 48 56  1  0  0  0
 48 65  1  0  0  0
 48129  1  0  0  0
 49 50  1  0  0  0
 49 53  1  0  0  0
 49 64  1  0  0  0
 49130  1  0  0  0
 50 51  1  0  0  0
 50131  1  0  0  0
 50132  1  0  0  0
 51 52  1  0  0  0
 51133  1  0  0  0
 51134  1  0  0  0
 52135  1  0  0  0
 52136  1  0  0  0
 53 54  1  0  0  0
 54 55  2  0  0  0
 54137  1  0  0  0
 55 57  1  0  0  0
 55138  1  0  0  0
 56 69  2  0  0  0
 57 58  2  0  0  0
 57139  1  0  0  0
 58140  1  0  0  0
 59 60  1  0  0  0
 59 61  1  0  0  0
 59 62  1  0  0  0
 60141  1  0  0  0
 60142  1  0  0  0
 60143  1  0  0  0
 61144  1  0  0  0
 61145  1  0  0  0
 61146  1  0  0  0
 62147  1  0  0  0
 62148  1  0  0  0
 62149  1  0  0  0
 63 65  1  0  0  0
 63150  1  0  0  0
 63151  1  0  0  0
 63152  1  0  0  0
 64153  1  0  0  0
 65154  1  0  0  0
 68 91  1  0  0  0
 71 73  2  0  0  0
 71 74  1  0  0  0
 71155  1  0  0  0
 72 75  2  0  0  0
 72 76  1  0  0  0
 72156  1  0  0  0
 73 75  1  0  0  0
 73 85  1  0  0  0
 74 76  2  0  0  0
 74 92  1  0  0  0
 75 87  1  0  0  0
 76 95  1  0  0  0
 77 81  1  0  0  0
 77 86  1  0  0  0
 77157  1  0  0  0
 77158  1  0  0  0
 78 82  1  0  0  0
 78 86  1  0  0  0
 78159  1  0  0  0
 78160  1  0  0  0
 79 83  1  0  0  0
 79 85  1  0  0  0
 79161  1  0  0  0
 79162  1  0  0  0
 80 84  1  0  0  0
 80 85  1  0  0  0
 80163  1  0  0  0
 80164  1  0  0  0
 81 93  1  0  0  0
 81165  1  0  0  0
 81166  1  0  0  0
 82 93  1  0  0  0
 82167  1  0  0  0
 82168  1  0  0  0
 83 94  1  0  0  0
 83169  1  0  0  0
 83170  1  0  0  0
 84 94  1  0  0  0
 84171  1  0  0  0
 84172  1  0  0  0
 85173  1  0  0  0
 86 95  1  0  0  0
 86174  1  0  0  0
 87175  1  0  0  0
 87176  1  0  0  0
 87177  1  0  0  0
 88178  1  0  0  0
 88179  1  0  0  0
 88180  1  0  0  0
 88 92  1  0  0  0
 89 92  1  0  0  0
 89181  1  0  0  0
 89182  1  0  0  0
 89183  1  0  0  0
 90 91  1  0  0  0
 90184  1  0  0  0
 90185  1  0  0  0
 90 94  1  0  0  0
 91186  1  0  0  0
 91187  1  0  0  0
 92188  1  0  0  0
 94189  1  0  0  0
M  CHG  1  94   1
M  ISO  4   1 100  68 101  91 101  93 100
M  END
> <chiral flag>
0

> <version>
0

> <s_m_source_file>
/data/baiqing/PycharmProjects/Reinvent-master-3.2/result/LINK_invent/BTK/process_docking_weight1_custom_sum_contain_oxygen_bond_distance_aromatic_linkinvent_7_9_3/rearranged_h_0156.sdf

> <i_m_source_file_index>
7

> <r_mmod_Potential_Energy-OPLS-2005>
201.239700317383

> <r_mmod_Stretch_Energy-OPLS-2005>
43.7579612731934

> <r_mmod_Bend_Energy-OPLS-2005>
134.946838378906

> <r_mmod_Torsional_Energy-OPLS-2005>
416.107757568359

> <r_mmod_Improper_Torsional_Energy-OPLS-2005>
21.1172542572021

> <r_mmod_Van_der_Waal_Energy-OPLS-2005>
174.262359619141

> <r_mmod_Electrostatic_Energy-OPLS-2005>
-224.260238647461

> <r_mmod_Solvation_Energy-OPLS-2005>
-388.072418212891

> <b_mmod_Minimization_Converged-OPLS-2005>
0

> <r_mmod_RMS_Derivative-OPLS-2005>
3.75099325180054

$$$$
7
                    3D
 Structure written by MMmdl.
167176  0  0  1  0            999 V2000
  -30.5869  -14.7917   20.4811 C   0  0  0  0  0  0
  -30.4311  -12.4963   19.4787 C   0  0  0  0  0  0
  -29.5123  -12.5169   18.2352 C   0  0  0  0  0  0
  -28.0357  -12.3300   18.6436 C   0  0  0  0  0  0
  -27.6345  -13.2215   19.8483 C   0  0  2  0  0  0
  -28.6793  -13.1226   20.9775 C   0  0  0  0  0  0
  -25.2408  -13.8075   20.5617 C   0  0  0  0  0  0
  -24.1733  -13.0384   20.9185 C   0  0  0  0  0  0
  -24.6315  -11.6839   20.8727 C   0  0  0  0  0  0
  -23.8988  -10.4252   21.0373 C   0  0  0  0  0  0
  -24.3541   -9.4185   21.9180 C   0  0  0  0  0  0
  -23.6232   -8.2216   22.0772 C   0  0  0  0  0  0
  -22.4226   -8.0242   21.3542 C   0  0  0  0  0  0
  -21.9832   -9.0214   20.4647 C   0  0  0  0  0  0
  -22.7135  -10.2102   20.3059 C   0  0  0  0  0  0
  -21.6846   -6.0695   22.5268 C   0  0  0  0  0  0
  -21.4003   -6.5606   23.8191 C   0  0  0  0  0  0
  -21.3664   -5.6766   24.9155 C   0  0  0  0  0  0
  -21.6069   -4.3029   24.7228 C   0  0  0  0  0  0
  -21.8817   -3.8121   23.4350 C   0  0  0  0  0  0
  -21.9190   -4.6925   22.3404 C   0  0  0  0  0  0
  -22.7779  -13.5217   21.1831 C   0  0  0  0  0  0
  -22.1662   -4.2110   21.0980 F   0  0  0  0  0  0
  -21.5640   -3.4516   25.7736 F   0  0  0  0  0  0
  -29.9595  -13.5572   20.4034 N   0  0  0  0  0  0
  -26.2860  -12.9308   20.3225 N   0  0  0  0  0  0
  -25.9247  -11.6458   20.5711 N   0  0  0  0  0  0
  -22.0400  -12.8292   22.0411 N   0  0  0  0  0  0
  -25.3978  -15.1778   20.3916 N   0  0  0  0  0  0
  -31.7744  -14.8547   20.1407 O   0  0  0  0  0  0
  -21.6608   -6.8840   21.4236 O   0  0  0  0  0  0
  -22.3534  -14.5595   20.6707 O   0  0  0  0  0  0
  -24.6338  -31.8503   23.1911 C   0  0  0  0  0  0
  -25.9133  -32.4738   23.8302 C   0  0  1  0  0  0
  -27.2456  -27.2328   20.1530 C   0  0  0  0  0  0
  -25.5906  -33.8530   24.2216 N   0  0  0  0  0  0
  -23.4393  -30.4626   21.5306 C   0  0  2  0  0  0
  -24.8947  -28.8871   20.1268 C   0  0  0  0  0  0
  -22.7535  -29.4551   22.4877 C   0  0  0  0  0  0
  -18.0286  -28.1384   22.8480 C   0  0  0  0  0  0
  -24.1477  -36.7268   23.2644 C   0  0  0  0  0  0
  -25.9855  -30.7528   21.3778 C   0  0  0  0  0  0
  -26.0660  -29.3664   20.7318 C   0  0  0  0  0  0
  -27.2478  -28.5533   20.7248 C   0  0  0  0  0  0
  -26.0494  -26.8135   19.5402 C   0  0  0  0  0  0
  -24.8917  -27.6188   19.5209 C   0  0  0  0  0  0
  -23.6675  -29.7781   20.1560 C   0  0  0  0  0  0
  -25.4105  -36.3059   24.0327 C   0  0  1  0  0  0
  -20.5899  -28.3695   23.1246 C   0  0  2  0  0  0
  -20.6754  -26.9402   22.5397 C   0  0  0  0  0  0
  -19.5722  -26.6384   21.5195 C   0  0  0  0  0  0
  -18.1915  -26.7919   22.1632 C   0  0  0  0  0  0
  -19.1545  -28.8851   23.2856 C   0  0  0  0  0  0
  -18.9475  -30.1447   23.8883 C   0  0  0  0  0  0
  -17.6474  -30.6584   24.0553 C   0  0  0  0  0  0
  -25.9052  -34.9428   23.5088 C   0  0  0  0  0  0
  -16.5363  -29.9090   23.6329 C   0  0  0  0  0  0
  -16.7271  -28.6503   23.0367 C   0  0  0  0  0  0
  -26.4472  -31.6590   25.0718 C   0  0  0  0  0  0
  -25.3700  -31.3825   26.1464 C   0  0  0  0  0  0
  -27.0287  -30.2976   24.6273 C   0  0  0  0  0  0
  -27.6021  -32.4338   25.7487 C   0  0  0  0  0  0
  -27.5569  -37.1788   24.8457 C   0  0  0  0  0  0
  -21.4230  -29.3051   22.3647 N   0  0  0  0  0  0
  -26.4280  -37.3762   23.9425 N   0  0  0  0  0  0
  -24.7045  -31.0426   22.0895 N   0  0  0  0  0  0
  -23.4199  -28.8124   23.3021 O   0  0  0  0  0  0
  -28.3584  -26.3620   20.0707 O   0  0  0  0  0  0
  -26.5641  -34.8914   22.4668 O   0  0  0  0  0  0
  -23.5466  -32.1331   23.7157 O   0  0  0  0  0  0
  -28.4315  -23.5929   18.6894 C   0  0  0  0  0  0
  -28.5709  -22.4013   17.9402 C   0  0  0  0  0  0
  -28.6177  -23.6326   20.0791 C   0  0  0  0  0  0
  -29.0075  -21.1813   18.5385 C   0  0  0  0  0  0
  -28.9153  -22.3302   20.6943 C   0  0  0  0  0  0
  -29.1378  -21.0895   19.9567 C   0  0  0  0  0  0
  -28.6904  -17.8292   21.7176 C   0  0  0  0  0  0
  -28.7050  -16.2957   21.4617 C   0  0  0  0  0  0
  -30.2992  -17.3669   20.1258 C   0  0  0  0  0  0
  -29.2001  -18.4865   20.4276 C   0  0  2  0  0  0
  -28.2371  -22.4779   16.4569 C   0  0  0  0  0  0
  -29.4383  -20.0465   17.6093 C   0  0  0  0  0  0
  -29.0287  -22.2095   22.2020 C   0  0  0  0  0  0
  -29.5934  -25.3586   21.7774 C   0  0  0  0  0  0
  -28.4196  -25.0550   20.8245 C   0  0  1  0  0  0
  -29.8510  -15.9891   20.5863 N   0  0  0  0  0  0
  -29.6080  -19.9145   20.6398 O   0  0  0  0  0  0
  -31.4705  -12.6247   19.1752 H   0  0  0  0  0  0
  -30.3943  -11.5218   19.9685 H   0  0  0  0  0  0
  -29.8093  -11.7331   17.5389 H   0  0  0  0  0  0
  -29.6331  -13.4620   17.7002 H   0  0  0  0  0  0
  -27.9026  -11.2819   18.9090 H   0  0  0  0  0  0
  -27.3737  -12.5099   17.7972 H   0  0  0  0  0  0
  -27.6360  -14.2455   19.4784 H   0  0  0  0  0  0
  -28.7475  -12.0892   21.3241 H   0  0  0  0  0  0
  -28.3823  -13.6894   21.8556 H   0  0  0  0  0  0
  -25.2680   -9.5701   22.4735 H   0  0  0  0  0  0
  -23.9927   -7.4649   22.7548 H   0  0  0  0  0  0
  -21.0733   -8.8719   19.8998 H   0  0  0  0  0  0
  -22.3540  -10.9632   19.6176 H   0  0  0  0  0  0
  -21.1976   -7.6120   23.9650 H   0  0  0  0  0  0
  -21.1510   -6.0521   25.9044 H   0  0  0  0  0  0
  -22.0593   -2.7583   23.2873 H   0  0  0  0  0  0
  -22.3984  -11.9936   22.4798 H   0  0  0  0  0  0
  -21.1099  -13.1481   22.2705 H   0  0  0  0  0  0
  -24.6212  -15.8185   20.5099 H   0  0  0  0  0  0
  -26.2244  -15.6133   20.0099 H   0  0  0  0  0  0
  -26.7221  -32.5384   23.1059 H   0  0  0  0  0  0
  -25.0017  -33.9667   25.0345 H   0  0  0  0  0  0
  -22.7371  -31.2834   21.3648 H   0  0  0  0  0  0
  -23.3741  -35.9597   23.3301 H   0  0  0  0  0  0
  -24.3578  -36.8896   22.2062 H   0  0  0  0  0  0
  -23.7225  -37.6470   23.6662 H   0  0  0  0  0  0
  -26.1331  -31.5053   20.6019 H   0  0  0  0  0  0
  -26.8600  -30.8089   22.0165 H   0  0  0  0  0  0
  -28.1551  -28.9239   21.1810 H   0  0  0  0  0  0
  -26.0189  -25.8384   19.0755 H   0  0  0  0  0  0
  -23.9972  -27.2398   19.0449 H   0  0  0  0  0  0
  -23.8115  -30.5403   19.3885 H   0  0  0  0  0  0
  -22.7893  -29.2074   19.8468 H   0  0  0  0  0  0
  -25.1290  -36.1896   25.0818 H   0  0  0  0  0  0
  -20.9986  -28.3262   24.1366 H   0  0  0  0  0  0
  -20.5587  -26.2323   23.3622 H   0  0  0  0  0  0
  -21.6630  -26.7376   22.1233 H   0  0  0  0  0  0
  -19.6882  -25.6292   21.1230 H   0  0  0  0  0  0
  -19.6649  -27.3187   20.6716 H   0  0  0  0  0  0
  -17.4178  -26.6645   21.4046 H   0  0  0  0  0  0
  -18.0327  -26.0064   22.9030 H   0  0  0  0  0  0
  -19.7957  -30.7247   24.2262 H   0  0  0  0  0  0
  -17.5045  -31.6263   24.5160 H   0  0  0  0  0  0
  -15.5369  -30.3001   23.7649 H   0  0  0  0  0  0
  -15.8673  -28.0812   22.7114 H   0  0  0  0  0  0
  -24.5847  -30.7173   25.7861 H   0  0  0  0  0  0
  -24.8923  -32.3026   26.4826 H   0  0  0  0  0  0
  -25.8028  -30.9086   27.0284 H   0  0  0  0  0  0
  -26.2882  -29.6761   24.1224 H   0  0  0  0  0  0
  -27.3823  -29.7219   25.4839 H   0  0  0  0  0  0
  -27.8826  -30.4187   23.9610 H   0  0  0  0  0  0
  -27.2611  -33.3632   26.2058 H   0  0  0  0  0  0
  -28.3828  -32.6921   25.0320 H   0  0  0  0  0  0
  -28.0687  -31.8481   26.5420 H   0  0  0  0  0  0
  -28.2591  -38.0083   24.7513 H   0  0  0  0  0  0
  -28.1070  -36.2619   24.6258 H   0  0  0  0  0  0
  -27.2310  -37.1407   25.8870 H   0  0  0  0  0  0
  -20.9430  -29.8822   21.6894 H   0  0  0  0  0  0
  -26.0145  -38.2835   24.1451 H   0  0  0  0  0  0
  -28.1690  -24.5093   18.1815 H   0  0  0  0  0  0
  -29.3976  -18.0275   22.5270 H   0  0  0  0  0  0
  -27.7180  -18.2028   22.0472 H   0  0  0  0  0  0
  -27.7869  -16.0203   20.9519 H   0  0  0  0  0  0
  -28.7380  -15.7544   22.4077 H   0  0  0  0  0  0
  -31.2058  -17.6142   20.6862 H   0  0  0  0  0  0
  -30.5711  -17.3554   19.0710 H   0  0  0  0  0  0
  -28.3977  -18.4362   19.6869 H   0  0  0  0  0  0
  -27.9526  -23.4946   16.1788 H   0  0  0  0  0  0
  -27.3852  -21.8326   16.2300 H   0  0  0  0  0  0
  -29.0774  -22.1960   15.8240 H   0  0  0  0  0  0
  -30.0213  -19.2743   18.1033 H   0  0  0  0  0  0
  -30.1090  -20.4520   16.8501 H   0  0  0  0  0  0
  -28.5975  -19.5887   17.0859 H   0  0  0  0  0  0
  -30.0613  -22.3994   22.4912 H   0  0  0  0  0  0
  -28.7718  -21.2073   22.5466 H   0  0  0  0  0  0
  -28.3553  -22.8944   22.7163 H   0  0  0  0  0  0
  -29.7873  -24.5857   22.5124 H   0  0  0  0  0  0
  -29.4020  -26.2684   22.3459 H   0  0  0  0  0  0
  -30.5206  -25.5075   21.2235 H   0  0  0  0  0  0
  -27.5073  -24.9561   21.4133 H   0  0  0  0  0  0
  1 25  1  0  0  0
  1 30  2  0  0  0
  1 86  1  0  0  0
  2  3  1  0  0  0
  2 25  1  0  0  0
  2 88  1  0  0  0
  2 89  1  0  0  0
  3  4  1  0  0  0
  3 90  1  0  0  0
  3 91  1  0  0  0
  4  5  1  0  0  0
  4 92  1  0  0  0
  4 93  1  0  0  0
  5  6  1  0  0  0
  5 26  1  0  0  0
  5 94  1  0  0  0
  6 25  1  0  0  0
  6 95  1  0  0  0
  6 96  1  0  0  0
  7  8  2  0  0  0
  7 26  1  0  0  0
  7 29  1  0  0  0
  8  9  1  0  0  0
  8 22  1  0  0  0
  9 10  1  0  0  0
  9 27  2  0  0  0
 10 11  2  0  0  0
 10 15  1  0  0  0
 11 12  1  0  0  0
 11 97  1  0  0  0
 12 13  2  0  0  0
 12 98  1  0  0  0
 13 14  1  0  0  0
 13 31  1  0  0  0
 14 15  2  0  0  0
 14 99  1  0  0  0
 15100  1  0  0  0
 16 17  2  0  0  0
 16 21  1  0  0  0
 16 31  1  0  0  0
 17 18  1  0  0  0
 17101  1  0  0  0
 18 19  2  0  0  0
 18102  1  0  0  0
 19 20  1  0  0  0
 19 24  1  0  0  0
 20 21  2  0  0  0
 20103  1  0  0  0
 21 23  1  0  0  0
 22 28  1  0  0  0
 22 32  2  0  0  0
 26 27  1  0  0  0
 28104  1  0  0  0
 28105  1  0  0  0
 29106  1  0  0  0
 29107  1  0  0  0
 33 34  1  0  0  0
 33 66  1  0  0  0
 33 70  2  0  0  0
 34 36  1  0  0  0
 34 59  1  0  0  0
 34108  1  0  0  0
 35 44  2  0  0  0
 35 45  1  0  0  0
 35 68  1  0  0  0
 36 56  1  0  0  0
 36109  1  0  0  0
 37 39  1  0  0  0
 37 47  1  0  0  0
 37 66  1  0  0  0
 37110  1  0  0  0
 38 43  2  0  0  0
 38 46  1  0  0  0
 38 47  1  0  0  0
 39 64  1  0  0  0
 39 67  2  0  0  0
 40 52  1  0  0  0
 40 53  2  0  0  0
 40 58  1  0  0  0
 41111  1  0  0  0
 41112  1  0  0  0
 41113  1  0  0  0
 41 48  1  0  0  0
 42 43  1  0  0  0
 42 66  1  0  0  0
 42114  1  0  0  0
 42115  1  0  0  0
 43 44  1  0  0  0
 44116  1  0  0  0
 45 46  2  0  0  0
 45117  1  0  0  0
 46118  1  0  0  0
 47119  1  0  0  0
 47120  1  0  0  0
 48 56  1  0  0  0
 48 65  1  0  0  0
 48121  1  0  0  0
 49 50  1  0  0  0
 49 53  1  0  0  0
 49 64  1  0  0  0
 49122  1  0  0  0
 50 51  1  0  0  0
 50123  1  0  0  0
 50124  1  0  0  0
 51 52  1  0  0  0
 51125  1  0  0  0
 51126  1  0  0  0
 52127  1  0  0  0
 52128  1  0  0  0
 53 54  1  0  0  0
 54 55  2  0  0  0
 54129  1  0  0  0
 55 57  1  0  0  0
 55130  1  0  0  0
 56 69  2  0  0  0
 57 58  2  0  0  0
 57131  1  0  0  0
 58132  1  0  0  0
 59 60  1  0  0  0
 59 61  1  0  0  0
 59 62  1  0  0  0
 60133  1  0  0  0
 60134  1  0  0  0
 60135  1  0  0  0
 61136  1  0  0  0
 61137  1  0  0  0
 61138  1  0  0  0
 62139  1  0  0  0
 62140  1  0  0  0
 62141  1  0  0  0
 63 65  1  0  0  0
 63142  1  0  0  0
 63143  1  0  0  0
 63144  1  0  0  0
 64145  1  0  0  0
 65146  1  0  0  0
 68 85  1  0  0  0
 71 72  2  0  0  0
 71 73  1  0  0  0
 71147  1  0  0  0
 72 74  1  0  0  0
 72 81  1  0  0  0
 73 75  2  0  0  0
 73 85  1  0  0  0
 74 76  2  0  0  0
 74 82  1  0  0  0
 75 76  1  0  0  0
 75 83  1  0  0  0
 76 87  1  0  0  0
 77 78  1  0  0  0
 77 80  1  0  0  0
 77148  1  0  0  0
 77149  1  0  0  0
 78 86  1  0  0  0
 78150  1  0  0  0
 78151  1  0  0  0
 79 80  1  0  0  0
 79 86  1  0  0  0
 79152  1  0  0  0
 79153  1  0  0  0
 80 87  1  0  0  0
 80154  1  0  0  0
 81155  1  0  0  0
 81156  1  0  0  0
 81157  1  0  0  0
 82158  1  0  0  0
 82159  1  0  0  0
 82160  1  0  0  0
 83161  1  0  0  0
 83162  1  0  0  0
 83163  1  0  0  0
 84164  1  0  0  0
 84165  1  0  0  0
 84166  1  0  0  0
 84 85  1  0  0  0
 85167  1  0  0  0
M  ISO  4   1 100  68 101  85 101  86 100
M  END
> <chiral flag>
0

> <version>
0

> <s_m_source_file>
/data/baiqing/PycharmProjects/Reinvent-master-3.2/result/LINK_invent/BTK/process_docking_weight1_custom_sum_contain_oxygen_bond_distance_aromatic_linkinvent_7_9_3/rearranged_h_0156.sdf

> <i_m_source_file_index>
8

> <r_mmod_Potential_Energy-OPLS-2005>
429.179382324219

> <r_mmod_Stretch_Energy-OPLS-2005>
143.610214233398

> <r_mmod_Bend_Energy-OPLS-2005>
244.113571166992

> <r_mmod_Torsional_Energy-OPLS-2005>
353.814910888672

> <r_mmod_Improper_Torsional_Energy-OPLS-2005>
11.3870086669922

> <r_mmod_Van_der_Waal_Energy-OPLS-2005>
137.464248657227

> <r_mmod_Electrostatic_Energy-OPLS-2005>
-357.917297363281

> <r_mmod_Solvation_Energy-OPLS-2005>
-200.627197265625

> <b_mmod_Minimization_Converged-OPLS-2005>
0

> <r_mmod_RMS_Derivative-OPLS-2005>
6.798264503479

$$$$
8
                    3D
 Structure written by MMmdl.
162170  0  0  1  0            999 V2000
  -30.7384  -14.4169   20.5561 C   0  0  0  0  0  0
  -30.4084  -12.2612   19.4391 C   0  0  0  0  0  0
  -29.4973  -12.4849   18.2148 C   0  0  0  0  0  0
  -28.0148  -12.3689   18.6184 C   0  0  0  0  0  0
  -27.6630  -13.2099   19.8758 C   0  0  2  0  0  0
  -28.7001  -12.9962   21.0058 C   0  0  0  0  0  0
  -25.2584  -13.8167   20.5676 C   0  0  0  0  0  0
  -24.1843  -13.0447   20.9200 C   0  0  0  0  0  0
  -24.6394  -11.6916   20.8730 C   0  0  0  0  0  0
  -23.9056  -10.4304   21.0388 C   0  0  0  0  0  0
  -24.3607   -9.4219   21.9168 C   0  0  0  0  0  0
  -23.6283   -8.2252   22.0750 C   0  0  0  0  0  0
  -22.4261   -8.0287   21.3547 C   0  0  0  0  0  0
  -21.9890   -9.0259   20.4651 C   0  0  0  0  0  0
  -22.7219  -10.2136   20.3050 C   0  0  0  0  0  0
  -21.6859   -6.0729   22.5276 C   0  0  0  0  0  0
  -21.4025   -6.5637   23.8208 C   0  0  0  0  0  0
  -21.3656   -5.6786   24.9163 C   0  0  0  0  0  0
  -21.6037   -4.3049   24.7216 C   0  0  0  0  0  0
  -21.8823   -3.8143   23.4338 C   0  0  0  0  0  0
  -21.9197   -4.6958   22.3392 C   0  0  0  0  0  0
  -22.7857  -13.5241   21.1833 C   0  0  0  0  0  0
  -22.1667   -4.2149   21.0969 F   0  0  0  0  0  0
  -21.5617   -3.4532   25.7723 F   0  0  0  0  0  0
  -30.0417  -13.2542   20.4620 N   0  0  0  0  0  0
  -26.3024  -12.9349   20.3358 N   0  0  0  0  0  0
  -25.9325  -11.6513   20.5776 N   0  0  0  0  0  0
  -22.0485  -12.8261   22.0396 N   0  0  0  0  0  0
  -25.4299  -15.1886   20.4077 N   0  0  0  0  0  0
  -31.8466  -14.5849   20.0313 O   0  0  0  0  0  0
  -21.6647   -6.8868   21.4235 O   0  0  0  0  0  0
  -22.3542  -14.5525   20.6638 O   0  0  0  0  0  0
  -24.6094  -31.8711   23.2117 C   0  0  0  0  0  0
  -25.9003  -32.4838   23.8406 C   0  0  1  0  0  0
  -27.2463  -27.4734   20.1127 C   0  0  0  0  0  0
  -25.5877  -33.8638   24.2343 N   0  0  0  0  0  0
  -23.3964  -30.4922   21.5490 C   0  0  2  0  0  0
  -24.8475  -28.9632   20.1102 C   0  0  0  0  0  0
  -22.7377  -29.4673   22.4992 C   0  0  0  0  0  0
  -18.0266  -28.1387   22.8493 C   0  0  0  0  0  0
  -24.1486  -36.7325   23.2644 C   0  0  0  0  0  0
  -25.9177  -30.8541   21.3551 C   0  0  0  0  0  0
  -25.9994  -29.4913   20.7057 C   0  0  0  0  0  0
  -27.2012  -28.7572   20.7021 C   0  0  0  0  0  0
  -26.0883  -26.9605   19.4945 C   0  0  0  0  0  0
  -24.8861  -27.6959   19.4983 C   0  0  0  0  0  0
  -23.6030  -29.8199   20.1632 C   0  0  0  0  0  0
  -25.4106  -36.3119   24.0341 C   0  0  1  0  0  0
  -20.5847  -28.3662   23.1330 C   0  0  2  0  0  0
  -20.6752  -26.9400   22.5426 C   0  0  0  0  0  0
  -19.5731  -26.6386   21.5224 C   0  0  0  0  0  0
  -18.1910  -26.7930   22.1630 C   0  0  0  0  0  0
  -19.1513  -28.8838   23.2909 C   0  0  0  0  0  0
  -18.9452  -30.1443   23.8918 C   0  0  0  0  0  0
  -17.6460  -30.6590   24.0573 C   0  0  0  0  0  0
  -25.9027  -34.9483   23.5134 C   0  0  0  0  0  0
  -16.5347  -29.9099   23.6331 C   0  0  0  0  0  0
  -16.7255  -28.6518   23.0339 C   0  0  0  0  0  0
  -26.4454  -31.6594   25.0710 C   0  0  0  0  0  0
  -25.3749  -31.3675   26.1476 C   0  0  0  0  0  0
  -27.0278  -30.3046   24.6047 C   0  0  0  0  0  0
  -27.6030  -32.4306   25.7478 C   0  0  0  0  0  0
  -27.5582  -37.1812   24.8466 C   0  0  0  0  0  0
  -21.4106  -29.3037   22.3740 N   0  0  0  0  0  0
  -26.4298  -37.3791   23.9407 N   0  0  0  0  0  0
  -24.6589  -31.0856   22.0988 N   0  0  0  0  0  0
  -23.4172  -28.8235   23.3029 O   0  0  0  0  0  0
  -28.3778  -26.6891   20.1377 O   0  0  0  0  0  0
  -26.5587  -34.8920   22.4692 O   0  0  0  0  0  0
  -23.5296  -32.1437   23.7547 O   0  0  0  0  0  0
  -29.7218  -17.9357   21.3707 C   0  0  0  0  0  0
  -29.9492  -19.2175   21.0246 C   0  0  0  0  0  0
  -30.2936  -16.8439   20.6682 C   0  0  0  0  0  0
  -30.8004  -19.5947   19.8145 C   0  0  0  0  0  0
  -31.1795  -18.4119   18.9086 C   0  0  0  0  0  0
  -30.9941  -22.1609   21.5277 C   0  0  0  0  0  0
  -31.1639  -23.5381   22.1985 C   0  0  0  0  0  0
  -29.3019  -25.1728   21.8363 C   0  0  0  0  0  0
  -29.5541  -21.6025   21.4506 C   0  0  0  0  0  0
  -29.0367  -26.6298   21.4097 C   0  0  0  0  0  0
  -31.0499  -17.1123   19.5767 N   0  3  0  0  0  0
  -30.0575  -15.5671   21.0862 N   0  0  0  0  0  0
  -30.6369  -24.6833   21.4165 N   0  3  0  0  0  0
  -29.4352  -20.2216   21.8249 O   0  0  0  0  0  0
  -31.4589  -12.3193   19.1494 H   0  0  0  0  0  0
  -30.2712  -11.2544   19.8353 H   0  0  0  0  0  0
  -29.7281  -11.7539   17.4370 H   0  0  0  0  0  0
  -29.6899  -13.4662   17.7779 H   0  0  0  0  0  0
  -27.8092  -11.3147   18.8091 H   0  0  0  0  0  0
  -27.3742  -12.6545   17.7830 H   0  0  0  0  0  0
  -27.7059  -14.2573   19.5751 H   0  0  0  0  0  0
  -28.6519  -11.9695   21.3710 H   0  0  0  0  0  0
  -28.4715  -13.6238   21.8681 H   0  0  0  0  0  0
  -25.2752   -9.5700   22.4731 H   0  0  0  0  0  0
  -24.0003   -7.4646   22.7459 H   0  0  0  0  0  0
  -21.0826   -8.8763   19.8959 H   0  0  0  0  0  0
  -22.3671  -10.9660   19.6152 H   0  0  0  0  0  0
  -21.2033   -7.6147   23.9714 H   0  0  0  0  0  0
  -21.1467   -6.0512   25.9068 H   0  0  0  0  0  0
  -22.0607   -2.7610   23.2830 H   0  0  0  0  0  0
  -22.4098  -11.9944   22.4817 H   0  0  0  0  0  0
  -21.1082  -13.1283   22.2545 H   0  0  0  0  0  0
  -24.6545  -15.8349   20.5052 H   0  0  0  0  0  0
  -26.2636  -15.6270   20.0386 H   0  0  0  0  0  0
  -26.7086  -32.5579   23.1189 H   0  0  0  0  0  0
  -25.0028  -33.9815   25.0488 H   0  0  0  0  0  0
  -22.6831  -31.3072   21.4098 H   0  0  0  0  0  0
  -23.3736  -35.9673   23.3331 H   0  0  0  0  0  0
  -24.3581  -36.8911   22.2055 H   0  0  0  0  0  0
  -23.7250  -37.6545   23.6638 H   0  0  0  0  0  0
  -26.0197  -31.6211   20.5868 H   0  0  0  0  0  0
  -26.8082  -30.9133   21.9681 H   0  0  0  0  0  0
  -28.0850  -29.1804   21.1588 H   0  0  0  0  0  0
  -26.1131  -25.9825   19.0348 H   0  0  0  0  0  0
  -24.0018  -27.2822   19.0327 H   0  0  0  0  0  0
  -23.7026  -30.5939   19.4009 H   0  0  0  0  0  0
  -22.7304  -29.2311   19.8734 H   0  0  0  0  0  0
  -25.1288  -36.1993   25.0836 H   0  0  0  0  0  0
  -20.9941  -28.3226   24.1447 H   0  0  0  0  0  0
  -20.5662  -26.2273   23.3614 H   0  0  0  0  0  0
  -21.6630  -26.7449   22.1227 H   0  0  0  0  0  0
  -19.6899  -25.6302   21.1244 H   0  0  0  0  0  0
  -19.6684  -27.3210   20.6769 H   0  0  0  0  0  0
  -17.4191  -26.6687   21.4021 H   0  0  0  0  0  0
  -18.0303  -26.0070   22.9024 H   0  0  0  0  0  0
  -19.7927  -30.7245   24.2301 H   0  0  0  0  0  0
  -17.5020  -31.6269   24.5173 H   0  0  0  0  0  0
  -15.5347  -30.3017   23.7641 H   0  0  0  0  0  0
  -15.8648  -28.0853   22.7033 H   0  0  0  0  0  0
  -24.5890  -30.7057   25.7814 H   0  0  0  0  0  0
  -24.8982  -32.2836   26.4981 H   0  0  0  0  0  0
  -25.8132  -30.8794   27.0191 H   0  0  0  0  0  0
  -26.2797  -29.6783   24.1165 H   0  0  0  0  0  0
  -27.4125  -29.7302   25.4487 H   0  0  0  0  0  0
  -27.8591  -30.4388   23.9122 H   0  0  0  0  0  0
  -27.2639  -33.3573   26.2115 H   0  0  0  0  0  0
  -28.3812  -32.6913   25.0298 H   0  0  0  0  0  0
  -28.0730  -31.8397   26.5348 H   0  0  0  0  0  0
  -28.2606  -38.0099   24.7489 H   0  0  0  0  0  0
  -28.1060  -36.2626   24.6318 H   0  0  0  0  0  0
  -27.2298  -37.1505   25.8867 H   0  0  0  0  0  0
  -20.9257  -29.8756   21.6967 H   0  0  0  0  0  0
  -26.0189  -38.2874   24.1390 H   0  0  0  0  0  0
  -29.1284  -17.7109   22.2448 H   0  0  0  0  0  0
  -31.7359  -20.0250   20.1649 H   0  0  0  0  0  0
  -30.2946  -20.3461   19.2075 H   0  0  0  0  0  0
  -32.1896  -18.5322   18.5133 H   0  0  0  0  0  0
  -30.5129  -18.3971   18.0459 H   0  0  0  0  0  0
  -31.5998  -21.4585   22.1020 H   0  0  0  0  0  0
  -31.4408  -22.1935   20.5339 H   0  0  0  0  0  0
  -32.2350  -23.7134   22.3071 H   0  0  0  0  0  0
  -30.7744  -23.5234   23.2179 H   0  0  0  0  0  0
  -28.5098  -24.5100   21.4880 H   0  0  0  0  0  0
  -29.2599  -25.1524   22.9265 H   0  0  0  0  0  0
  -29.0982  -21.7926   20.4783 H   0  0  0  0  0  0
  -28.9325  -22.1429   22.1661 H   0  0  0  0  0  0
  -29.9529  -27.2212   21.3890 H   0  0  0  0  0  0
  -28.4203  -27.0655   22.1987 H   0  0  0  0  0  0
  -31.5788  -16.3416   19.1773 H   0  0  0  0  0  0
  -29.2658  -15.4656   21.6958 H   0  0  0  0  0  0
  -30.6579  -24.4899   20.4270 H   0  0  0  0  0  0
  -31.2866  -25.4399   21.5700 H   0  0  0  0  0  0
  1 25  1  0  0  0
  1 30  2  0  0  0
  1 82  1  0  0  0
  2  3  1  0  0  0
  2 25  1  0  0  0
  2 85  1  0  0  0
  2 86  1  0  0  0
  3  4  1  0  0  0
  3 87  1  0  0  0
  3 88  1  0  0  0
  4  5  1  0  0  0
  4 89  1  0  0  0
  4 90  1  0  0  0
  5  6  1  0  0  0
  5 26  1  0  0  0
  5 91  1  0  0  0
  6 25  1  0  0  0
  6 92  1  0  0  0
  6 93  1  0  0  0
  7  8  2  0  0  0
  7 26  1  0  0  0
  7 29  1  0  0  0
  8  9  1  0  0  0
  8 22  1  0  0  0
  9 10  1  0  0  0
  9 27  2  0  0  0
 10 11  2  0  0  0
 10 15  1  0  0  0
 11 12  1  0  0  0
 11 94  1  0  0  0
 12 13  2  0  0  0
 12 95  1  0  0  0
 13 14  1  0  0  0
 13 31  1  0  0  0
 14 15  2  0  0  0
 14 96  1  0  0  0
 15 97  1  0  0  0
 16 17  2  0  0  0
 16 21  1  0  0  0
 16 31  1  0  0  0
 17 18  1  0  0  0
 17 98  1  0  0  0
 18 19  2  0  0  0
 18 99  1  0  0  0
 19 20  1  0  0  0
 19 24  1  0  0  0
 20 21  2  0  0  0
 20100  1  0  0  0
 21 23  1  0  0  0
 22 28  1  0  0  0
 22 32  2  0  0  0
 26 27  1  0  0  0
 28101  1  0  0  0
 28102  1  0  0  0
 29103  1  0  0  0
 29104  1  0  0  0
 33 34  1  0  0  0
 33 66  1  0  0  0
 33 70  2  0  0  0
 34 36  1  0  0  0
 34 59  1  0  0  0
 34105  1  0  0  0
 35 44  2  0  0  0
 35 45  1  0  0  0
 35 68  1  0  0  0
 36 56  1  0  0  0
 36106  1  0  0  0
 37 39  1  0  0  0
 37 47  1  0  0  0
 37 66  1  0  0  0
 37107  1  0  0  0
 38 43  2  0  0  0
 38 46  1  0  0  0
 38 47  1  0  0  0
 39 64  1  0  0  0
 39 67  2  0  0  0
 40 52  1  0  0  0
 40 53  2  0  0  0
 40 58  1  0  0  0
 41108  1  0  0  0
 41109  1  0  0  0
 41110  1  0  0  0
 41 48  1  0  0  0
 42 43  1  0  0  0
 42 66  1  0  0  0
 42111  1  0  0  0
 42112  1  0  0  0
 43 44  1  0  0  0
 44113  1  0  0  0
 45 46  2  0  0  0
 45114  1  0  0  0
 46115  1  0  0  0
 47116  1  0  0  0
 47117  1  0  0  0
 48 56  1  0  0  0
 48 65  1  0  0  0
 48118  1  0  0  0
 49 50  1  0  0  0
 49 53  1  0  0  0
 49 64  1  0  0  0
 49119  1  0  0  0
 50 51  1  0  0  0
 50120  1  0  0  0
 50121  1  0  0  0
 51 52  1  0  0  0
 51122  1  0  0  0
 51123  1  0  0  0
 52124  1  0  0  0
 52125  1  0  0  0
 53 54  1  0  0  0
 54 55  2  0  0  0
 54126  1  0  0  0
 55 57  1  0  0  0
 55127  1  0  0  0
 56 69  2  0  0  0
 57 58  2  0  0  0
 57128  1  0  0  0
 58129  1  0  0  0
 59 60  1  0  0  0
 59 61  1  0  0  0
 59 62  1  0  0  0
 60130  1  0  0  0
 60131  1  0  0  0
 60132  1  0  0  0
 61133  1  0  0  0
 61134  1  0  0  0
 61135  1  0  0  0
 62136  1  0  0  0
 62137  1  0  0  0
 62138  1  0  0  0
 63 65  1  0  0  0
 63139  1  0  0  0
 63140  1  0  0  0
 63141  1  0  0  0
 64142  1  0  0  0
 65143  1  0  0  0
 68 80  1  0  0  0
 71 72  2  0  0  0
 71 73  1  0  0  0
 71144  1  0  0  0
 72 74  1  0  0  0
 72 84  1  0  0  0
 73 81  2  0  0  0
 73 82  1  0  0  0
 74 75  1  0  0  0
 74145  1  0  0  0
 74146  1  0  0  0
 75 81  1  0  0  0
 75147  1  0  0  0
 75148  1  0  0  0
 76 77  1  0  0  0
 76 79  1  0  0  0
 76149  1  0  0  0
 76150  1  0  0  0
 77 83  1  0  0  0
 77151  1  0  0  0
 77152  1  0  0  0
 78 80  1  0  0  0
 78 83  1  0  0  0
 78153  1  0  0  0
 78154  1  0  0  0
 79 84  1  0  0  0
 79155  1  0  0  0
 79156  1  0  0  0
 80157  1  0  0  0
 80158  1  0  0  0
 81159  1  0  0  0
 82160  1  0  0  0
 83161  1  0  0  0
 83162  1  0  0  0
M  CHG  2  81   1  83   1
M  ISO  4   1 100  68 101  80 101  82 100
M  END
> <chiral flag>
0

> <version>
0

> <s_m_source_file>
/data/baiqing/PycharmProjects/Reinvent-master-3.2/result/LINK_invent/BTK/process_docking_weight1_custom_sum_contain_oxygen_bond_distance_aromatic_linkinvent_7_9_3/rearranged_h_0156.sdf

> <i_m_source_file_index>
9

> <r_mmod_Potential_Energy-OPLS-2005>
-234.83805847168

> <r_mmod_Stretch_Energy-OPLS-2005>
35.7276191711426

> <r_mmod_Bend_Energy-OPLS-2005>
119.186264038086

> <r_mmod_Torsional_Energy-OPLS-2005>
266.788269042969

> <r_mmod_Improper_Torsional_Energy-OPLS-2005>
5.5911808013916

> <r_mmod_Van_der_Waal_Energy-OPLS-2005>
162.382766723633

> <r_mmod_Electrostatic_Energy-OPLS-2005>
1.59311652183533

> <r_mmod_Solvation_Energy-OPLS-2005>
-837.093872070312

> <b_mmod_Minimization_Converged-OPLS-2005>
0

> <r_mmod_RMS_Derivative-OPLS-2005>
1.98959767818451

$$$$
9
                    3D
 Structure written by MMmdl.
168177  0  0  1  0            999 V2000
  -30.6353  -14.6367   20.4626 C   0  0  0  0  0  0
  -30.4405  -12.3583   19.4869 C   0  0  0  0  0  0
  -29.5195  -12.3756   18.2453 C   0  0  0  0  0  0
  -28.0317  -12.2931   18.6538 C   0  0  0  0  0  0
  -27.6487  -13.2036   19.8553 C   0  0  2  0  0  0
  -28.6911  -13.1011   20.9906 C   0  0  0  0  0  0
  -25.2555  -13.8145   20.5664 C   0  0  0  0  0  0
  -24.1815  -13.0434   20.9201 C   0  0  0  0  0  0
  -24.6359  -11.6899   20.8762 C   0  0  0  0  0  0
  -23.9028  -10.4287   21.0423 C   0  0  0  0  0  0
  -24.3596   -9.4199   21.9191 C   0  0  0  0  0  0
  -23.6278   -8.2232   22.0756 C   0  0  0  0  0  0
  -22.4257   -8.0269   21.3546 C   0  0  0  0  0  0
  -21.9884   -9.0240   20.4647 C   0  0  0  0  0  0
  -22.7208  -10.2120   20.3063 C   0  0  0  0  0  0
  -21.6852   -6.0718   22.5274 C   0  0  0  0  0  0
  -21.4018   -6.5626   23.8204 C   0  0  0  0  0  0
  -21.3658   -5.6780   24.9170 C   0  0  0  0  0  0
  -21.6045   -4.3046   24.7218 C   0  0  0  0  0  0
  -21.8828   -3.8136   23.4343 C   0  0  0  0  0  0
  -21.9191   -4.6950   22.3394 C   0  0  0  0  0  0
  -22.7843  -13.5242   21.1851 C   0  0  0  0  0  0
  -22.1669   -4.2145   21.0971 F   0  0  0  0  0  0
  -21.5618   -3.4528   25.7729 F   0  0  0  0  0  0
  -30.0080  -13.4199   20.4199 N   0  0  0  0  0  0
  -26.2958  -12.9292   20.3299 N   0  0  0  0  0  0
  -25.9278  -11.6471   20.5808 N   0  0  0  0  0  0
  -22.0475  -12.8244   22.0407 N   0  0  0  0  0  0
  -25.4291  -15.1860   20.4005 N   0  0  0  0  0  0
  -31.8062  -14.7701   20.0985 O   0  0  0  0  0  0
  -21.6634   -6.8863   21.4236 O   0  0  0  0  0  0
  -22.3537  -14.5545   20.6690 O   0  0  0  0  0  0
  -24.6211  -31.8647   23.2080 C   0  0  0  0  0  0
  -25.9087  -32.4806   23.8388 C   0  0  1  0  0  0
  -27.2270  -27.3586   20.1411 C   0  0  0  0  0  0
  -25.5930  -33.8605   24.2325 N   0  0  0  0  0  0
  -23.4144  -30.4884   21.5475 C   0  0  2  0  0  0
  -24.8675  -28.9529   20.1117 C   0  0  0  0  0  0
  -22.7449  -29.4635   22.4933 C   0  0  0  0  0  0
  -18.0284  -28.1388   22.8473 C   0  0  0  0  0  0
  -24.1485  -36.7300   23.2628 C   0  0  0  0  0  0
  -25.9501  -30.8084   21.3761 C   0  0  0  0  0  0
  -26.0282  -29.4349   20.7309 C   0  0  0  0  0  0
  -27.2100  -28.6434   20.7510 C   0  0  0  0  0  0
  -26.0696  -26.9493   19.4455 C   0  0  0  0  0  0
  -24.8873  -27.7100   19.4604 C   0  0  0  0  0  0
  -23.6320  -29.8264   20.1605 C   0  0  0  0  0  0
  -25.4101  -36.3097   24.0335 C   0  0  1  0  0  0
  -20.5877  -28.3685   23.1285 C   0  0  2  0  0  0
  -20.6772  -26.9411   22.5411 C   0  0  0  0  0  0
  -19.5753  -26.6387   21.5203 C   0  0  0  0  0  0
  -18.1927  -26.7934   22.1611 C   0  0  0  0  0  0
  -19.1532  -28.8856   23.2881 C   0  0  0  0  0  0
  -18.9460  -30.1454   23.8898 C   0  0  0  0  0  0
  -17.6462  -30.6586   24.0568 C   0  0  0  0  0  0
  -25.9043  -34.9464   23.5127 C   0  0  0  0  0  0
  -16.5351  -29.9090   23.6328 C   0  0  0  0  0  0
  -16.7270  -28.6515   23.0333 C   0  0  0  0  0  0
  -26.4496  -31.6583   25.0724 C   0  0  0  0  0  0
  -25.3757  -31.3712   26.1473 C   0  0  0  0  0  0
  -27.0305  -30.3006   24.6123 C   0  0  0  0  0  0
  -27.6071  -32.4297   25.7489 C   0  0  0  0  0  0
  -27.5582  -37.1795   24.8459 C   0  0  0  0  0  0
  -21.4169  -29.3044   22.3676 N   0  0  0  0  0  0
  -26.4282  -37.3790   23.9424 N   0  0  0  0  0  0
  -24.6800  -31.0693   22.1015 N   0  0  0  0  0  0
  -23.4188  -28.8154   23.2989 O   0  0  0  0  0  0
  -28.3299  -26.5054   20.1746 O   0  0  0  0  0  0
  -26.5586  -34.8923   22.4675 O   0  0  0  0  0  0
  -23.5386  -32.1427   23.7427 O   0  0  0  0  0  0
  -29.6147  -18.4264   18.0654 C   0  0  0  0  0  0
  -30.1094  -18.2692   20.8032 C   0  0  0  0  0  0
  -29.5545  -17.1759   18.7017 C   0  0  0  0  0  0
  -29.9035  -19.6024   18.7670 C   0  0  0  0  0  0
  -29.8861  -17.0405   20.0814 C   0  0  0  0  0  0
  -30.0791  -19.5645   20.1690 C   0  0  0  0  0  0
  -29.4892  -24.3810   21.0909 C   0  0  0  0  0  0
  -27.1374  -24.3331   20.8700 C   0  0  0  0  0  0
  -28.2637  -25.3602   21.1040 C   0  0  2  0  0  0
  -29.0808  -23.0609   20.3386 C   0  0  1  0  0  0
  -30.0377  -20.8769   17.9595 C   0  0  0  0  0  0
  -27.2277  -15.4063   16.4691 C   0  0  0  0  0  0
  -29.0602  -16.0535   17.8174 C   0  0  0  0  0  0
  -29.1642  -21.6554   21.0859 C   0  0  0  0  0  0
  -29.8524  -15.7291   20.7356 N   0  0  0  0  0  0
  -27.6843  -23.3314   19.9345 N   0  3  0  0  0  0
  -30.2980  -20.7629   20.8581 O   0  0  0  0  0  0
  -27.6734  -16.2082   17.5498 O   0  0  0  0  0  0
  -31.4849  -12.4660   19.1897 H   0  0  0  0  0  0
  -30.3756  -11.3895   19.9843 H   0  0  0  0  0  0
  -29.7595  -11.5190   17.6134 H   0  0  0  0  0  0
  -29.7252  -13.2334   17.6130 H   0  0  0  0  0  0
  -27.8484  -11.2538   18.9280 H   0  0  0  0  0  0
  -27.3817  -12.4818   17.8002 H   0  0  0  0  0  0
  -27.6455  -14.2284   19.4937 H   0  0  0  0  0  0
  -28.6962  -12.0961   21.4138 H   0  0  0  0  0  0
  -28.4382  -13.7696   21.8148 H   0  0  0  0  0  0
  -25.2754   -9.5679   22.4753 H   0  0  0  0  0  0
  -23.9990   -7.4624   22.7479 H   0  0  0  0  0  0
  -21.0811   -8.8750   19.8958 H   0  0  0  0  0  0
  -22.3672  -10.9651   19.6160 H   0  0  0  0  0  0
  -21.2028   -7.6135   23.9708 H   0  0  0  0  0  0
  -21.1467   -6.0511   25.9070 H   0  0  0  0  0  0
  -22.0614   -2.7599   23.2844 H   0  0  0  0  0  0
  -22.4052  -11.9875   22.4777 H   0  0  0  0  0  0
  -21.1107  -13.1307   22.2618 H   0  0  0  0  0  0
  -24.6550  -15.8365   20.4774 H   0  0  0  0  0  0
  -26.2548  -15.6093   19.9957 H   0  0  0  0  0  0
  -26.7151  -32.5522   23.1141 H   0  0  0  0  0  0
  -25.0126  -33.9763   25.0503 H   0  0  0  0  0  0
  -22.7068  -31.3077   21.4059 H   0  0  0  0  0  0
  -23.3756  -35.9622   23.3272 H   0  0  0  0  0  0
  -24.3597  -36.8929   22.2048 H   0  0  0  0  0  0
  -23.7218  -37.6492   23.6652 H   0  0  0  0  0  0
  -26.0678  -31.5670   20.6008 H   0  0  0  0  0  0
  -26.8360  -30.8686   21.9961 H   0  0  0  0  0  0
  -28.0966  -29.0024   21.2551 H   0  0  0  0  0  0
  -26.0701  -26.0208   18.8939 H   0  0  0  0  0  0
  -24.0059  -27.3435   18.9528 H   0  0  0  0  0  0
  -23.7517  -30.6057   19.4068 H   0  0  0  0  0  0
  -22.7545  -29.2541   19.8544 H   0  0  0  0  0  0
  -25.1263  -36.1952   25.0823 H   0  0  0  0  0  0
  -20.9973  -28.3272   24.1406 H   0  0  0  0  0  0
  -20.5658  -26.2296   23.3609 H   0  0  0  0  0  0
  -21.6648  -26.7438   22.1217 H   0  0  0  0  0  0
  -19.6918  -25.6299   21.1233 H   0  0  0  0  0  0
  -19.6694  -27.3197   20.6732 H   0  0  0  0  0  0
  -17.4195  -26.6668   21.4018 H   0  0  0  0  0  0
  -18.0332  -26.0082   22.9012 H   0  0  0  0  0  0
  -19.7941  -30.7269   24.2262 H   0  0  0  0  0  0
  -17.5022  -31.6267   24.5173 H   0  0  0  0  0  0
  -15.5355  -30.2990   23.7667 H   0  0  0  0  0  0
  -15.8668  -28.0848   22.7029 H   0  0  0  0  0  0
  -24.5944  -30.7028   25.7836 H   0  0  0  0  0  0
  -24.8937  -32.2875   26.4893 H   0  0  0  0  0  0
  -25.8122  -30.8922   27.0247 H   0  0  0  0  0  0
  -26.2847  -29.6785   24.1156 H   0  0  0  0  0  0
  -27.4023  -29.7225   25.4594 H   0  0  0  0  0  0
  -27.8718  -30.4292   23.9306 H   0  0  0  0  0  0
  -27.2690  -33.3589   26.2089 H   0  0  0  0  0  0
  -28.3874  -32.6866   25.0312 H   0  0  0  0  0  0
  -28.0746  -31.8405   26.5389 H   0  0  0  0  0  0
  -28.2573  -38.0119   24.7547 H   0  0  0  0  0  0
  -28.1100  -36.2654   24.6217 H   0  0  0  0  0  0
  -27.2318  -37.1373   25.8865 H   0  0  0  0  0  0
  -20.9325  -29.8803   21.6929 H   0  0  0  0  0  0
  -26.0163  -38.2858   24.1461 H   0  0  0  0  0  0
  -29.4129  -18.4794   17.0047 H   0  0  0  0  0  0
  -30.2997  -18.2227   21.8660 H   0  0  0  0  0  0
  -29.7681  -24.1403   22.1170 H   0  0  0  0  0  0
  -30.3627  -24.8536   20.6422 H   0  0  0  0  0  0
  -26.1693  -24.7181   20.5734 H   0  0  0  0  0  0
  -26.9483  -23.8180   21.8144 H   0  0  0  0  0  0
  -28.1604  -25.7857   22.1032 H   0  0  0  0  0  0
  -29.6632  -23.0198   19.4253 H   0  0  0  0  0  0
  -30.2861  -20.6576   16.9210 H   0  0  0  0  0  0
  -30.8442  -21.4983   18.3476 H   0  0  0  0  0  0
  -29.1002  -21.4305   17.9564 H   0  0  0  0  0  0
  -26.1432  -15.4752   16.3801 H   0  0  0  0  0  0
  -27.4899  -14.3596   16.6095 H   0  0  0  0  0  0
  -27.6663  -15.7457   15.5302 H   0  0  0  0  0  0
  -29.2262  -15.0986   18.2797 H   0  0  0  0  0  0
  -29.6410  -16.0602   16.8933 H   0  0  0  0  0  0
  -28.2614  -21.0856   20.8568 H   0  0  0  0  0  0
  -29.1017  -21.8257   22.1610 H   0  0  0  0  0  0
  -28.9620  -15.4896   21.1458 H   0  0  0  0  0  0
  -27.6907  -23.7313   19.0066 H   0  0  0  0  0  0
  -27.1224  -22.4924   19.9051 H   0  0  0  0  0  0
  1 25  1  0  0  0
  1 30  2  0  0  0
  1 85  1  0  0  0
  2  3  1  0  0  0
  2 25  1  0  0  0
  2 89  1  0  0  0
  2 90  1  0  0  0
  3  4  1  0  0  0
  3 91  1  0  0  0
  3 92  1  0  0  0
  4  5  1  0  0  0
  4 93  1  0  0  0
  4 94  1  0  0  0
  5  6  1  0  0  0
  5 26  1  0  0  0
  5 95  1  0  0  0
  6 25  1  0  0  0
  6 96  1  0  0  0
  6 97  1  0  0  0
  7  8  2  0  0  0
  7 26  1  0  0  0
  7 29  1  0  0  0
  8  9  1  0  0  0
  8 22  1  0  0  0
  9 10  1  0  0  0
  9 27  2  0  0  0
 10 11  2  0  0  0
 10 15  1  0  0  0
 11 12  1  0  0  0
 11 98  1  0  0  0
 12 13  2  0  0  0
 12 99  1  0  0  0
 13 14  1  0  0  0
 13 31  1  0  0  0
 14 15  2  0  0  0
 14100  1  0  0  0
 15101  1  0  0  0
 16 17  2  0  0  0
 16 21  1  0  0  0
 16 31  1  0  0  0
 17 18  1  0  0  0
 17102  1  0  0  0
 18 19  2  0  0  0
 18103  1  0  0  0
 19 20  1  0  0  0
 19 24  1  0  0  0
 20 21  2  0  0  0
 20104  1  0  0  0
 21 23  1  0  0  0
 22 28  1  0  0  0
 22 32  2  0  0  0
 26 27  1  0  0  0
 28105  1  0  0  0
 28106  1  0  0  0
 29107  1  0  0  0
 29108  1  0  0  0
 33 34  1  0  0  0
 33 66  1  0  0  0
 33 70  2  0  0  0
 34 36  1  0  0  0
 34 59  1  0  0  0
 34109  1  0  0  0
 35 44  2  0  0  0
 35 45  1  0  0  0
 35 68  1  0  0  0
 36 56  1  0  0  0
 36110  1  0  0  0
 37 39  1  0  0  0
 37 47  1  0  0  0
 37 66  1  0  0  0
 37111  1  0  0  0
 38 43  2  0  0  0
 38 46  1  0  0  0
 38 47  1  0  0  0
 39 64  1  0  0  0
 39 67  2  0  0  0
 40 52  1  0  0  0
 40 53  2  0  0  0
 40 58  1  0  0  0
 41112  1  0  0  0
 41113  1  0  0  0
 41114  1  0  0  0
 41 48  1  0  0  0
 42 43  1  0  0  0
 42 66  1  0  0  0
 42115  1  0  0  0
 42116  1  0  0  0
 43 44  1  0  0  0
 44117  1  0  0  0
 45 46  2  0  0  0
 45118  1  0  0  0
 46119  1  0  0  0
 47120  1  0  0  0
 47121  1  0  0  0
 48 56  1  0  0  0
 48 65  1  0  0  0
 48122  1  0  0  0
 49 50  1  0  0  0
 49 53  1  0  0  0
 49 64  1  0  0  0
 49123  1  0  0  0
 50 51  1  0  0  0
 50124  1  0  0  0
 50125  1  0  0  0
 51 52  1  0  0  0
 51126  1  0  0  0
 51127  1  0  0  0
 52128  1  0  0  0
 52129  1  0  0  0
 53 54  1  0  0  0
 54 55  2  0  0  0
 54130  1  0  0  0
 55 57  1  0  0  0
 55131  1  0  0  0
 56 69  2  0  0  0
 57 58  2  0  0  0
 57132  1  0  0  0
 58133  1  0  0  0
 59 60  1  0  0  0
 59 61  1  0  0  0
 59 62  1  0  0  0
 60134  1  0  0  0
 60135  1  0  0  0
 60136  1  0  0  0
 61137  1  0  0  0
 61138  1  0  0  0
 61139  1  0  0  0
 62140  1  0  0  0
 62141  1  0  0  0
 62142  1  0  0  0
 63 65  1  0  0  0
 63143  1  0  0  0
 63144  1  0  0  0
 63145  1  0  0  0
 64146  1  0  0  0
 65147  1  0  0  0
 68 79  1  0  0  0
 71 73  2  0  0  0
 71 74  1  0  0  0
 71148  1  0  0  0
 72 75  2  0  0  0
 72 76  1  0  0  0
 72149  1  0  0  0
 73 75  1  0  0  0
 73 83  1  0  0  0
 74 76  2  0  0  0
 74 81  1  0  0  0
 75 85  1  0  0  0
 76 87  1  0  0  0
 77 79  1  0  0  0
 77 80  1  0  0  0
 77150  1  0  0  0
 77151  1  0  0  0
 78 79  1  0  0  0
 78 86  1  0  0  0
 78152  1  0  0  0
 78153  1  0  0  0
 79154  1  0  0  0
 80 84  1  0  0  0
 80 86  1  0  0  0
 80155  1  0  0  0
 81156  1  0  0  0
 81157  1  0  0  0
 81158  1  0  0  0
 82 88  1  0  0  0
 82159  1  0  0  0
 82160  1  0  0  0
 82161  1  0  0  0
 83 88  1  0  0  0
 83162  1  0  0  0
 83163  1  0  0  0
 84 87  1  0  0  0
 84164  1  0  0  0
 84165  1  0  0  0
 85166  1  0  0  0
 86167  1  0  0  0
 86168  1  0  0  0
M  CHG  1  86   1
M  ISO  4   1 100  68 101  79 101  85 100
M  END
> <chiral flag>
0

> <version>
0

> <s_m_source_file>
/data/baiqing/PycharmProjects/Reinvent-master-3.2/result/LINK_invent/BTK/process_docking_weight1_custom_sum_contain_oxygen_bond_distance_aromatic_linkinvent_7_9_3/rearranged_h_0156.sdf

> <i_m_source_file_index>
10

> <r_mmod_Potential_Energy-OPLS-2005>
126.480751037598

> <r_mmod_Stretch_Energy-OPLS-2005>
73.0373153686523

> <r_mmod_Bend_Energy-OPLS-2005>
164.280731201172

> <r_mmod_Torsional_Energy-OPLS-2005>
393.868316650391

> <r_mmod_Improper_Torsional_Energy-OPLS-2005>
6.93157291412354

> <r_mmod_Van_der_Waal_Energy-OPLS-2005>
143.124282836914

> <r_mmod_Electrostatic_Energy-OPLS-2005>
-261.629211425781

> <r_mmod_Solvation_Energy-OPLS-2005>
-441.690093994141

> <b_mmod_Minimization_Converged-OPLS-2005>
0

> <r_mmod_RMS_Derivative-OPLS-2005>
1.80906915664673

$$$$
10
                    3D
 Structure written by MMmdl.
158166  0  0  1  0            999 V2000
  -30.6719  -14.6238   20.4978 C   0  0  0  0  0  0
  -30.4179  -12.3796   19.4596 C   0  0  0  0  0  0
  -29.4977  -12.4932   18.2262 C   0  0  0  0  0  0
  -28.0223  -12.3371   18.6409 C   0  0  0  0  0  0
  -27.6472  -13.2214   19.8600 C   0  0  2  0  0  0
  -28.6913  -13.1141   20.9934 C   0  0  0  0  0  0
  -25.2540  -13.8178   20.5704 C   0  0  0  0  0  0
  -24.1808  -13.0435   20.9176 C   0  0  0  0  0  0
  -24.6378  -11.6913   20.8727 C   0  0  0  0  0  0
  -23.9048  -10.4290   21.0381 C   0  0  0  0  0  0
  -24.3603   -9.4211   21.9158 C   0  0  0  0  0  0
  -23.6284   -8.2248   22.0757 C   0  0  0  0  0  0
  -22.4270   -8.0271   21.3548 C   0  0  0  0  0  0
  -21.9898   -9.0230   20.4641 C   0  0  0  0  0  0
  -22.7218  -10.2113   20.3037 C   0  0  0  0  0  0
  -21.6852   -6.0722   22.5265 C   0  0  0  0  0  0
  -21.4010   -6.5631   23.8192 C   0  0  0  0  0  0
  -21.3663   -5.6793   24.9157 C   0  0  0  0  0  0
  -21.6050   -4.3058   24.7213 C   0  0  0  0  0  0
  -21.8821   -3.8140   23.4338 C   0  0  0  0  0  0
  -21.9191   -4.6953   22.3391 C   0  0  0  0  0  0
  -22.7837  -13.5217   21.1834 C   0  0  0  0  0  0
  -22.1664   -4.2144   21.0973 F   0  0  0  0  0  0
  -21.5632   -3.4548   25.7730 F   0  0  0  0  0  0
  -30.0046  -13.4296   20.4162 N   0  0  0  0  0  0
  -26.2966  -12.9370   20.3338 N   0  0  0  0  0  0
  -25.9309  -11.6518   20.5773 N   0  0  0  0  0  0
  -22.0510  -12.8194   22.0406 N   0  0  0  0  0  0
  -25.4251  -15.1902   20.4132 N   0  0  0  0  0  0
  -31.8469  -14.7184   20.1388 O   0  0  0  0  0  0
  -21.6646   -6.8862   21.4231 O   0  0  0  0  0  0
  -22.3517  -14.5521   20.6681 O   0  0  0  0  0  0
  -24.6249  -31.8596   23.2033 C   0  0  0  0  0  0
  -25.9094  -32.4776   23.8358 C   0  0  1  0  0  0
  -27.2221  -27.3286   20.1254 C   0  0  0  0  0  0
  -25.5911  -33.8583   24.2290 N   0  0  0  0  0  0
  -23.4209  -30.4841   21.5442 C   0  0  2  0  0  0
  -24.8719  -28.9456   20.1045 C   0  0  0  0  0  0
  -22.7488  -29.4623   22.4925 C   0  0  0  0  0  0
  -18.0291  -28.1384   22.8480 C   0  0  0  0  0  0
  -24.1478  -36.7285   23.2643 C   0  0  0  0  0  0
  -25.9617  -30.7940   21.3742 C   0  0  0  0  0  0
  -26.0380  -29.4236   20.7156 C   0  0  0  0  0  0
  -27.2219  -28.6280   20.7160 C   0  0  0  0  0  0
  -26.0428  -26.9068   19.4752 C   0  0  0  0  0  0
  -24.8754  -27.6939   19.4714 C   0  0  0  0  0  0
  -23.6352  -29.8211   20.1577 C   0  0  0  0  0  0
  -25.4105  -36.3083   24.0341 C   0  0  1  0  0  0
  -20.5900  -28.3686   23.1277 C   0  0  2  0  0  0
  -20.6780  -26.9400   22.5407 C   0  0  0  0  0  0
  -19.5742  -26.6368   21.5212 C   0  0  0  0  0  0
  -18.1919  -26.7926   22.1615 C   0  0  0  0  0  0
  -19.1552  -28.8851   23.2871 C   0  0  0  0  0  0
  -18.9477  -30.1460   23.8872 C   0  0  0  0  0  0
  -17.6476  -30.6581   24.0572 C   0  0  0  0  0  0
  -25.9050  -34.9453   23.5122 C   0  0  0  0  0  0
  -16.5366  -29.9085   23.6351 C   0  0  0  0  0  0
  -16.7284  -28.6514   23.0343 C   0  0  0  0  0  0
  -26.4489  -31.6603   25.0731 C   0  0  0  0  0  0
  -25.3720  -31.3725   26.1460 C   0  0  0  0  0  0
  -27.0368  -30.3043   24.6179 C   0  0  0  0  0  0
  -27.6046  -32.4359   25.7490 C   0  0  0  0  0  0
  -27.5586  -37.1769   24.8450 C   0  0  0  0  0  0
  -21.4196  -29.3052   22.3680 N   0  0  0  0  0  0
  -26.4272  -37.3783   23.9444 N   0  0  0  0  0  0
  -24.6876  -31.0628   22.0974 N   0  0  0  0  0  0
  -23.4216  -28.8159   23.3005 O   0  0  0  0  0  0
  -28.2905  -26.4267   20.1884 O   0  0  0  0  0  0
  -26.5620  -34.8916   22.4689 O   0  0  0  0  0  0
  -23.5415  -32.1371   23.7374 O   0  0  0  0  0  0
  -28.1496  -22.8573   19.8003 C   0  0  0  0  0  0
  -29.6987  -23.3480   21.5638 C   0  0  0  0  0  0
  -28.6703  -23.8165   20.7094 C   0  0  0  0  0  0
  -28.6092  -21.5013   19.7514 C   0  0  0  0  0  0
  -30.1648  -21.9987   21.5359 C   0  0  0  0  0  0
  -29.6251  -21.0309   20.6381 C   0  0  0  0  0  0
  -27.9929  -20.5809   18.7117 C   0  0  0  0  0  0
  -31.2484  -21.5920   22.5262 C   0  0  0  0  0  0
  -27.9702  -25.2043   20.9577 C   0  0  0  0  0  0
  -29.4931  -18.3963   20.7184 C   0  0  0  0  0  0
  -30.4942  -17.1587   20.7074 C   0  0  0  0  0  0
  -30.1946  -19.7115   20.6240 N   0  0  0  0  0  0
  -29.9562  -15.7565   20.7861 N   0  0  0  0  0  0
  -31.4629  -12.4746   19.1582 H   0  0  0  0  0  0
  -30.3268  -11.3922   19.9175 H   0  0  0  0  0  0
  -29.7578  -11.7334   17.4885 H   0  0  0  0  0  0
  -29.6451  -13.4580   17.7388 H   0  0  0  0  0  0
  -27.8562  -11.2860   18.8825 H   0  0  0  0  0  0
  -27.3668  -12.5609   17.7984 H   0  0  0  0  0  0
  -27.6590  -14.2508   19.5021 H   0  0  0  0  0  0
  -28.6995  -12.1111   21.4226 H   0  0  0  0  0  0
  -28.4462  -13.7934   21.8115 H   0  0  0  0  0  0
  -25.2740   -9.5705   22.4735 H   0  0  0  0  0  0
  -23.9993   -7.4655   22.7491 H   0  0  0  0  0  0
  -21.0830   -8.8717   19.8951 H   0  0  0  0  0  0
  -22.3639  -10.9642   19.6155 H   0  0  0  0  0  0
  -21.1999   -7.6141   23.9686 H   0  0  0  0  0  0
  -21.1491   -6.0530   25.9061 H   0  0  0  0  0  0
  -22.0598   -2.7604   23.2832 H   0  0  0  0  0  0
  -22.4169  -11.9847   22.4741 H   0  0  0  0  0  0
  -21.1130  -13.1196   22.2649 H   0  0  0  0  0  0
  -24.6559  -15.8434   20.5149 H   0  0  0  0  0  0
  -26.2712  -15.6298   20.0745 H   0  0  0  0  0  0
  -26.7175  -32.5438   23.1121 H   0  0  0  0  0  0
  -25.0105  -33.9744   25.0468 H   0  0  0  0  0  0
  -22.7118  -31.3028   21.4014 H   0  0  0  0  0  0
  -23.3753  -35.9597   23.3264 H   0  0  0  0  0  0
  -24.3580  -36.8935   22.2060 H   0  0  0  0  0  0
  -23.7194  -37.6462   23.6693 H   0  0  0  0  0  0
  -26.0911  -31.5570   20.6053 H   0  0  0  0  0  0
  -26.8421  -30.8429   22.0034 H   0  0  0  0  0  0
  -28.1134  -28.9853   21.2111 H   0  0  0  0  0  0
  -26.0119  -25.9395   18.9934 H   0  0  0  0  0  0
  -23.9844  -27.3253   18.9834 H   0  0  0  0  0  0
  -23.7455  -30.5975   19.3993 H   0  0  0  0  0  0
  -22.7555  -29.2461   19.8615 H   0  0  0  0  0  0
  -25.1264  -36.1925   25.0827 H   0  0  0  0  0  0
  -21.0002  -28.3256   24.1397 H   0  0  0  0  0  0
  -20.5682  -26.2293   23.3614 H   0  0  0  0  0  0
  -21.6645  -26.7415   22.1188 H   0  0  0  0  0  0
  -19.6910  -25.6276   21.1231 H   0  0  0  0  0  0
  -19.6689  -27.3190   20.6751 H   0  0  0  0  0  0
  -17.4200  -26.6713   21.3998 H   0  0  0  0  0  0
  -18.0292  -26.0062   22.8997 H   0  0  0  0  0  0
  -19.7956  -30.7292   24.2207 H   0  0  0  0  0  0
  -17.5031  -31.6258   24.5174 H   0  0  0  0  0  0
  -15.5368  -30.2970   23.7695 H   0  0  0  0  0  0
  -15.8688  -28.0841   22.7041 H   0  0  0  0  0  0
  -24.5945  -30.7010   25.7806 H   0  0  0  0  0  0
  -24.8851  -32.2869   26.4861 H   0  0  0  0  0  0
  -25.8044  -30.8947   27.0257 H   0  0  0  0  0  0
  -26.2965  -29.6757   24.1220 H   0  0  0  0  0  0
  -27.4125  -29.7328   25.4676 H   0  0  0  0  0  0
  -27.8784  -30.4371   23.9377 H   0  0  0  0  0  0
  -27.2681  -33.3705   26.2001 H   0  0  0  0  0  0
  -28.3881  -32.6845   25.0318 H   0  0  0  0  0  0
  -28.0686  -31.8520   26.5451 H   0  0  0  0  0  0
  -28.2522  -38.0145   24.7632 H   0  0  0  0  0  0
  -28.1164  -36.2688   24.6101 H   0  0  0  0  0  0
  -27.2329  -37.1205   25.8850 H   0  0  0  0  0  0
  -20.9379  -29.8800   21.6902 H   0  0  0  0  0  0
  -26.0137  -38.2831   24.1530 H   0  0  0  0  0  0
  -27.3424  -23.1595   19.1470 H   0  0  0  0  0  0
  -30.1049  -24.0286   22.2982 H   0  0  0  0  0  0
  -27.5679  -21.1485   17.8839 H   0  0  0  0  0  0
  -27.1967  -19.9854   19.1575 H   0  0  0  0  0  0
  -28.7403  -19.9091   18.2904 H   0  0  0  0  0  0
  -31.4599  -22.3851   23.2436 H   0  0  0  0  0  0
  -32.1774  -21.3579   22.0051 H   0  0  0  0  0  0
  -30.9422  -20.7116   23.0944 H   0  0  0  0  0  0
  -28.1413  -25.4620   22.0033 H   0  0  0  0  0  0
  -26.9028  -24.9851   20.9191 H   0  0  0  0  0  0
  -28.9148  -18.3838   21.6449 H   0  0  0  0  0  0
  -28.7733  -18.2918   19.9073 H   0  0  0  0  0  0
  -31.1982  -17.2741   21.5335 H   0  0  0  0  0  0
  -31.0943  -17.2255   19.7978 H   0  0  0  0  0  0
  -31.0944  -19.6825   21.0937 H   0  0  0  0  0  0
  -28.9836  -15.6409   21.0305 H   0  0  0  0  0  0
  1 25  1  0  0  0
  1 30  2  0  0  0
  1 83  1  0  0  0
  2  3  1  0  0  0
  2 25  1  0  0  0
  2 84  1  0  0  0
  2 85  1  0  0  0
  3  4  1  0  0  0
  3 86  1  0  0  0
  3 87  1  0  0  0
  4  5  1  0  0  0
  4 88  1  0  0  0
  4 89  1  0  0  0
  5  6  1  0  0  0
  5 26  1  0  0  0
  5 90  1  0  0  0
  6 25  1  0  0  0
  6 91  1  0  0  0
  6 92  1  0  0  0
  7  8  2  0  0  0
  7 26  1  0  0  0
  7 29  1  0  0  0
  8  9  1  0  0  0
  8 22  1  0  0  0
  9 10  1  0  0  0
  9 27  2  0  0  0
 10 11  2  0  0  0
 10 15  1  0  0  0
 11 12  1  0  0  0
 11 93  1  0  0  0
 12 13  2  0  0  0
 12 94  1  0  0  0
 13 14  1  0  0  0
 13 31  1  0  0  0
 14 15  2  0  0  0
 14 95  1  0  0  0
 15 96  1  0  0  0
 16 17  2  0  0  0
 16 21  1  0  0  0
 16 31  1  0  0  0
 17 18  1  0  0  0
 17 97  1  0  0  0
 18 19  2  0  0  0
 18 98  1  0  0  0
 19 20  1  0  0  0
 19 24  1  0  0  0
 20 21  2  0  0  0
 20 99  1  0  0  0
 21 23  1  0  0  0
 22 28  1  0  0  0
 22 32  2  0  0  0
 26 27  1  0  0  0
 28100  1  0  0  0
 28101  1  0  0  0
 29102  1  0  0  0
 29103  1  0  0  0
 33 34  1  0  0  0
 33 66  1  0  0  0
 33 70  2  0  0  0
 34 36  1  0  0  0
 34 59  1  0  0  0
 34104  1  0  0  0
 35 44  2  0  0  0
 35 45  1  0  0  0
 35 68  1  0  0  0
 36 56  1  0  0  0
 36105  1  0  0  0
 37 39  1  0  0  0
 37 47  1  0  0  0
 37 66  1  0  0  0
 37106  1  0  0  0
 38 43  2  0  0  0
 38 46  1  0  0  0
 38 47  1  0  0  0
 39 64  1  0  0  0
 39 67  2  0  0  0
 40 52  1  0  0  0
 40 53  2  0  0  0
 40 58  1  0  0  0
 41107  1  0  0  0
 41108  1  0  0  0
 41109  1  0  0  0
 41 48  1  0  0  0
 42 43  1  0  0  0
 42 66  1  0  0  0
 42110  1  0  0  0
 42111  1  0  0  0
 43 44  1  0  0  0
 44112  1  0  0  0
 45 46  2  0  0  0
 45113  1  0  0  0
 46114  1  0  0  0
 47115  1  0  0  0
 47116  1  0  0  0
 48 56  1  0  0  0
 48 65  1  0  0  0
 48117  1  0  0  0
 49 50  1  0  0  0
 49 53  1  0  0  0
 49 64  1  0  0  0
 49118  1  0  0  0
 50 51  1  0  0  0
 50119  1  0  0  0
 50120  1  0  0  0
 51 52  1  0  0  0
 51121  1  0  0  0
 51122  1  0  0  0
 52123  1  0  0  0
 52124  1  0  0  0
 53 54  1  0  0  0
 54 55  2  0  0  0
 54125  1  0  0  0
 55 57  1  0  0  0
 55126  1  0  0  0
 56 69  2  0  0  0
 57 58  2  0  0  0
 57127  1  0  0  0
 58128  1  0  0  0
 59 60  1  0  0  0
 59 61  1  0  0  0
 59 62  1  0  0  0
 60129  1  0  0  0
 60130  1  0  0  0
 60131  1  0  0  0
 61132  1  0  0  0
 61133  1  0  0  0
 61134  1  0  0  0
 62135  1  0  0  0
 62136  1  0  0  0
 62137  1  0  0  0
 63 65  1  0  0  0
 63138  1  0  0  0
 63139  1  0  0  0
 63140  1  0  0  0
 64141  1  0  0  0
 65142  1  0  0  0
 68 79  1  0  0  0
 71 73  2  0  0  0
 71 74  1  0  0  0
 71143  1  0  0  0
 72 73  1  0  0  0
 72 75  2  0  0  0
 72144  1  0  0  0
 73 79  1  0  0  0
 74 76  2  0  0  0
 74 77  1  0  0  0
 75 76  1  0  0  0
 75 78  1  0  0  0
 76 82  1  0  0  0
 77145  1  0  0  0
 77146  1  0  0  0
 77147  1  0  0  0
 78148  1  0  0  0
 78149  1  0  0  0
 78150  1  0  0  0
 79151  1  0  0  0
 79152  1  0  0  0
 80 81  1  0  0  0
 80 82  1  0  0  0
 80153  1  0  0  0
 80154  1  0  0  0
 81 83  1  0  0  0
 81155  1  0  0  0
 81156  1  0  0  0
 82157  1  0  0  0
 83158  1  0  0  0
M  ISO  4   1 100  68 101  79 101  83 100
M  END
> <chiral flag>
0

> <version>
0

> <s_m_source_file>
/data/baiqing/PycharmProjects/Reinvent-master-3.2/result/LINK_invent/BTK/process_docking_weight1_custom_sum_contain_oxygen_bond_distance_aromatic_linkinvent_7_9_3/rearranged_h_0156.sdf

> <i_m_source_file_index>
11

> <r_mmod_Potential_Energy-OPLS-2005>
-18.0038452148438

> <r_mmod_Stretch_Energy-OPLS-2005>
74.6704483032227

> <r_mmod_Bend_Energy-OPLS-2005>
144.644439697266

> <r_mmod_Torsional_Energy-OPLS-2005>
241.395141601562

> <r_mmod_Improper_Torsional_Energy-OPLS-2005>
9.12840557098389

> <r_mmod_Van_der_Waal_Energy-OPLS-2005>
146.818008422852

> <r_mmod_Electrostatic_Energy-OPLS-2005>
-469.458679199219

> <r_mmod_Solvation_Energy-OPLS-2005>
-216.307189941406

> <b_mmod_Minimization_Converged-OPLS-2005>
0

> <r_mmod_RMS_Derivative-OPLS-2005>
2.34213519096375

$$$$
11
                    3D
 Structure written by MMmdl.
177187  0  0  1  0            999 V2000
  -30.7083  -14.7380   20.4877 C   0  0  0  0  0  0
  -30.4081  -12.4657   19.4805 C   0  0  0  0  0  0
  -29.4982  -12.4899   18.2370 C   0  0  0  0  0  0
  -28.0347  -12.2830   18.6609 C   0  0  0  0  0  0
  -27.6287  -13.2106   19.8323 C   0  0  2  0  0  0
  -28.6761  -13.2211   20.9725 C   0  0  0  0  0  0
  -25.2491  -13.8121   20.5701 C   0  0  0  0  0  0
  -24.1771  -13.0397   20.9221 C   0  0  0  0  0  0
  -24.6341  -11.6868   20.8769 C   0  0  0  0  0  0
  -23.9021  -10.4263   21.0436 C   0  0  0  0  0  0
  -24.3582   -9.4178   21.9206 C   0  0  0  0  0  0
  -23.6267   -8.2207   22.0766 C   0  0  0  0  0  0
  -22.4254   -8.0242   21.3544 C   0  0  0  0  0  0
  -21.9883   -9.0222   20.4660 C   0  0  0  0  0  0
  -22.7203  -10.2103   20.3078 C   0  0  0  0  0  0
  -21.6840   -6.0706   22.5266 C   0  0  0  0  0  0
  -21.4008   -6.5621   23.8196 C   0  0  0  0  0  0
  -21.3672   -5.6782   24.9167 C   0  0  0  0  0  0
  -21.6048   -4.3043   24.7226 C   0  0  0  0  0  0
  -21.8822   -3.8124   23.4350 C   0  0  0  0  0  0
  -21.9195   -4.6936   22.3401 C   0  0  0  0  0  0
  -22.7807  -13.5215   21.1884 C   0  0  0  0  0  0
  -22.1672   -4.2121   21.0981 F   0  0  0  0  0  0
  -21.5637   -3.4536   25.7745 F   0  0  0  0  0  0
  -29.9754  -13.5677   20.3834 N   0  0  0  0  0  0
  -26.2867  -12.9280   20.3233 N   0  0  0  0  0  0
  -25.9255  -11.6449   20.5752 N   0  0  0  0  0  0
  -22.0431  -12.8218   22.0427 N   0  0  0  0  0  0
  -25.4220  -15.1833   20.4139 N   0  0  0  0  0  0
  -31.8916  -14.6962   20.1400 O   0  0  0  0  0  0
  -21.6625   -6.8834   21.4221 O   0  0  0  0  0  0
  -22.3516  -14.5533   20.6736 O   0  0  0  0  0  0
  -24.6302  -31.8580   23.2002 C   0  0  0  0  0  0
  -25.9141  -32.4771   23.8339 C   0  0  1  0  0  0
  -27.2048  -27.2732   20.1321 C   0  0  0  0  0  0
  -25.5945  -33.8567   24.2282 N   0  0  0  0  0  0
  -23.4252  -30.4833   21.5436 C   0  0  2  0  0  0
  -24.8744  -28.9372   20.1058 C   0  0  0  0  0  0
  -22.7496  -29.4619   22.4911 C   0  0  0  0  0  0
  -18.0301  -28.1349   22.8485 C   0  0  0  0  0  0
  -24.1496  -36.7279   23.2633 C   0  0  0  0  0  0
  -25.9732  -30.7720   21.3838 C   0  0  0  0  0  0
  -26.0464  -29.3978   20.7227 C   0  0  0  0  0  0
  -27.2198  -28.5761   20.7299 C   0  0  0  0  0  0
  -26.0263  -26.8962   19.4602 C   0  0  0  0  0  0
  -24.8674  -27.6924   19.4629 C   0  0  0  0  0  0
  -23.6446  -29.8233   20.1576 C   0  0  0  0  0  0
  -25.4114  -36.3071   24.0331 C   0  0  1  0  0  0
  -20.5901  -28.3688   23.1268 C   0  0  2  0  0  0
  -20.6794  -26.9415   22.5406 C   0  0  0  0  0  0
  -19.5784  -26.6381   21.5195 C   0  0  0  0  0  0
  -18.1948  -26.7908   22.1582 C   0  0  0  0  0  0
  -19.1547  -28.8830   23.2876 C   0  0  0  0  0  0
  -18.9467  -30.1426   23.8915 C   0  0  0  0  0  0
  -17.6463  -30.6563   24.0560 C   0  0  0  0  0  0
  -25.9055  -34.9441   23.5105 C   0  0  0  0  0  0
  -16.5360  -29.9058   23.6321 C   0  0  0  0  0  0
  -16.7286  -28.6459   23.0365 C   0  0  0  0  0  0
  -26.4504  -31.6577   25.0721 C   0  0  0  0  0  0
  -25.3726  -31.3730   26.1448 C   0  0  0  0  0  0
  -27.0351  -30.2992   24.6200 C   0  0  0  0  0  0
  -27.6062  -32.4304   25.7485 C   0  0  0  0  0  0
  -27.5584  -37.1790   24.8466 C   0  0  0  0  0  0
  -21.4200  -29.3062   22.3662 N   0  0  0  0  0  0
  -26.4296  -37.3761   23.9415 N   0  0  0  0  0  0
  -24.6946  -31.0547   22.0990 N   0  0  0  0  0  0
  -23.4202  -28.8149   23.2989 O   0  0  0  0  0  0
  -28.2325  -26.3083   20.2085 O   0  0  0  0  0  0
  -26.5617  -34.8907   22.4674 O   0  0  0  0  0  0
  -23.5450  -32.1412   23.7298 O   0  0  0  0  0  0
  -27.9566  -21.1271   20.4049 C   0  0  0  0  0  0
  -29.7171  -23.1783   21.0052 C   0  0  0  0  0  0
  -29.2413  -20.6983   20.8424 C   0  0  0  0  0  0
  -30.1275  -21.8029   21.1191 C   0  0  0  0  0  0
  -28.4078  -23.5884   20.6408 C   0  0  0  0  0  0
  -27.5478  -22.4981   20.2894 C   0  0  0  0  0  0
  -28.6101  -18.0630   20.4533 C   0  0  0  0  0  0
  -30.9310  -18.5110   20.9155 C   0  0  0  0  0  0
  -26.2581  -21.8952   17.5879 C   0  0  0  0  0  0
  -28.8076  -16.5307   20.8473 C   0  0  0  0  0  0
  -31.0977  -17.0374   21.4493 C   0  0  0  0  0  0
  -24.9387  -21.6854   16.8355 C   0  0  0  0  0  0
  -24.5266  -23.4088   18.3959 C   0  0  0  0  0  0
  -29.5220  -19.1320   21.1507 C   0  0  0  0  0  0
  -26.0112  -23.0527   18.5751 C   0  0  1  0  0  0
  -31.5384  -21.5878   21.6346 C   0  0  0  0  0  0
  -28.0926  -25.3873   22.4329 C   0  0  0  0  0  0
  -27.8467  -25.0587   20.9500 C   0  0  1  0  0  0
  -30.1919  -15.9821   20.8986 N   0  0  0  0  0  0
  -24.1363  -22.8935   17.0720 N   0  3  0  0  0  0
  -26.2367  -22.7120   19.9442 O   0  0  0  0  0  0
  -31.4513  -12.5429   19.1693 H   0  0  0  0  0  0
  -30.3327  -11.5039   19.9902 H   0  0  0  0  0  0
  -29.7952  -11.7114   17.5331 H   0  0  0  0  0  0
  -29.6074  -13.4396   17.7118 H   0  0  0  0  0  0
  -27.9231  -11.2406   18.9616 H   0  0  0  0  0  0
  -27.3679  -12.4251   17.8098 H   0  0  0  0  0  0
  -27.5878  -14.1898   19.3699 H   0  0  0  0  0  0
  -28.7249  -12.2456   21.4589 H   0  0  0  0  0  0
  -28.3984  -13.9330   21.7488 H   0  0  0  0  0  0
  -25.2727   -9.5648   22.4784 H   0  0  0  0  0  0
  -23.9981   -7.4595   22.7482 H   0  0  0  0  0  0
  -21.0819   -8.8733   19.8968 H   0  0  0  0  0  0
  -22.3669  -10.9638   19.6189 H   0  0  0  0  0  0
  -21.1984   -7.6126   23.9686 H   0  0  0  0  0  0
  -21.1512   -6.0518   25.9069 H   0  0  0  0  0  0
  -22.0598   -2.7582   23.2857 H   0  0  0  0  0  0
  -22.4058  -11.9892   22.4828 H   0  0  0  0  0  0
  -21.1050  -13.1258   22.2638 H   0  0  0  0  0  0
  -24.6567  -15.8381   20.5313 H   0  0  0  0  0  0
  -26.2759  -15.6205   20.0963 H   0  0  0  0  0  0
  -26.7213  -32.5424   23.1078 H   0  0  0  0  0  0
  -25.0106  -33.9700   25.0437 H   0  0  0  0  0  0
  -22.7196  -31.3052   21.4012 H   0  0  0  0  0  0
  -23.3761  -35.9610   23.3294 H   0  0  0  0  0  0
  -24.3586  -36.8906   22.2048 H   0  0  0  0  0  0
  -23.7258  -37.6481   23.6658 H   0  0  0  0  0  0
  -26.1161  -31.5340   20.6163 H   0  0  0  0  0  0
  -26.8477  -30.8166   22.0213 H   0  0  0  0  0  0
  -28.1106  -28.9083   21.2434 H   0  0  0  0  0  0
  -25.9862  -25.9448   18.9593 H   0  0  0  0  0  0
  -23.9731  -27.3389   18.9678 H   0  0  0  0  0  0
  -23.7671  -30.6035   19.4054 H   0  0  0  0  0  0
  -22.7637  -29.2567   19.8513 H   0  0  0  0  0  0
  -25.1292  -36.1914   25.0822 H   0  0  0  0  0  0
  -20.9976  -28.3261   24.1390 H   0  0  0  0  0  0
  -20.5680  -26.2326   23.3617 H   0  0  0  0  0  0
  -21.6673  -26.7435   22.1225 H   0  0  0  0  0  0
  -19.6988  -25.6307   21.1208 H   0  0  0  0  0  0
  -19.6739  -27.3213   20.6737 H   0  0  0  0  0  0
  -17.4231  -26.6694   21.3964 H   0  0  0  0  0  0
  -18.0304  -26.0018   22.8934 H   0  0  0  0  0  0
  -19.7953  -30.7232   24.2288 H   0  0  0  0  0  0
  -17.5015  -31.6248   24.5146 H   0  0  0  0  0  0
  -15.5352  -30.2960   23.7626 H   0  0  0  0  0  0
  -15.8687  -28.0782   22.7078 H   0  0  0  0  0  0
  -24.5894  -30.7086   25.7778 H   0  0  0  0  0  0
  -24.8911  -32.2898   26.4857 H   0  0  0  0  0  0
  -25.8028  -30.8921   27.0244 H   0  0  0  0  0  0
  -26.2939  -29.6736   24.1215 H   0  0  0  0  0  0
  -27.4040  -29.7244   25.4704 H   0  0  0  0  0  0
  -27.8815  -30.4263   23.9447 H   0  0  0  0  0  0
  -27.2687  -33.3607   26.2056 H   0  0  0  0  0  0
  -28.3864  -32.6862   25.0308 H   0  0  0  0  0  0
  -28.0748  -31.8445   26.5403 H   0  0  0  0  0  0
  -28.2586  -38.0094   24.7502 H   0  0  0  0  0  0
  -28.1088  -36.2623   24.6294 H   0  0  0  0  0  0
  -27.2300  -37.1445   25.8865 H   0  0  0  0  0  0
  -20.9378  -29.8779   21.6859 H   0  0  0  0  0  0
  -26.0184  -38.2839   24.1407 H   0  0  0  0  0  0
  -27.2033  -20.3815   20.2045 H   0  0  0  0  0  0
  -30.4092  -23.9538   21.3029 H   0  0  0  0  0  0
  -27.5649  -18.3001   20.6462 H   0  0  0  0  0  0
  -28.7358  -18.1605   19.3740 H   0  0  0  0  0  0
  -31.1906  -18.5591   19.8580 H   0  0  0  0  0  0
  -31.6947  -19.0772   21.4339 H   0  0  0  0  0  0
  -27.0512  -22.1728   16.8926 H   0  0  0  0  0  0
  -26.5658  -20.9701   18.0709 H   0  0  0  0  0  0
  -28.2303  -15.9632   20.1325 H   0  0  0  0  0  0
  -28.3515  -16.3562   21.8229 H   0  0  0  0  0  0
  -30.9502  -17.0429   22.5303 H   0  0  0  0  0  0
  -32.1473  -16.7713   21.3248 H   0  0  0  0  0  0
  -24.4098  -20.8264   17.2517 H   0  0  0  0  0  0
  -25.0862  -21.4998   15.7710 H   0  0  0  0  0  0
  -24.3224  -24.4751   18.4873 H   0  0  0  0  0  0
  -23.9275  -22.8965   19.1496 H   0  0  0  0  0  0
  -29.3277  -19.0511   22.2215 H   0  0  0  0  0  0
  -26.6334  -23.9026   18.2906 H   0  0  0  0  0  0
  -32.0041  -22.5255   21.9406 H   0  0  0  0  0  0
  -32.1675  -21.1592   20.8538 H   0  0  0  0  0  0
  -31.5396  -20.9456   22.5151 H   0  0  0  0  0  0
  -29.1554  -25.5022   22.6450 H   0  0  0  0  0  0
  -27.7080  -24.5960   23.0768 H   0  0  0  0  0  0
  -27.5956  -26.3122   22.7269 H   0  0  0  0  0  0
  -26.7666  -24.9387   20.8784 H   0  0  0  0  0  0
  -23.1493  -22.6936   17.0152 H   0  0  0  0  0  0
  -24.3611  -23.5750   16.3628 H   0  0  0  0  0  0
  1 25  1  0  0  0
  1 30  2  0  0  0
  1 89  1  0  0  0
  2  3  1  0  0  0
  2 25  1  0  0  0
  2 92  1  0  0  0
  2 93  1  0  0  0
  3  4  1  0  0  0
  3 94  1  0  0  0
  3 95  1  0  0  0
  4  5  1  0  0  0
  4 96  1  0  0  0
  4 97  1  0  0  0
  5  6  1  0  0  0
  5 26  1  0  0  0
  5 98  1  0  0  0
  6 25  1  0  0  0
  6 99  1  0  0  0
  6100  1  0  0  0
  7  8  2  0  0  0
  7 26  1  0  0  0
  7 29  1  0  0  0
  8  9  1  0  0  0
  8 22  1  0  0  0
  9 10  1  0  0  0
  9 27  2  0  0  0
 10 11  2  0  0  0
 10 15  1  0  0  0
 11 12  1  0  0  0
 11101  1  0  0  0
 12 13  2  0  0  0
 12102  1  0  0  0
 13 14  1  0  0  0
 13 31  1  0  0  0
 14 15  2  0  0  0
 14103  1  0  0  0
 15104  1  0  0  0
 16 17  2  0  0  0
 16 21  1  0  0  0
 16 31  1  0  0  0
 17 18  1  0  0  0
 17105  1  0  0  0
 18 19  2  0  0  0
 18106  1  0  0  0
 19 20  1  0  0  0
 19 24  1  0  0  0
 20 21  2  0  0  0
 20107  1  0  0  0
 21 23  1  0  0  0
 22 28  1  0  0  0
 22 32  2  0  0  0
 26 27  1  0  0  0
 28108  1  0  0  0
 28109  1  0  0  0
 29110  1  0  0  0
 29111  1  0  0  0
 33 34  1  0  0  0
 33 66  1  0  0  0
 33 70  2  0  0  0
 34 36  1  0  0  0
 34 59  1  0  0  0
 34112  1  0  0  0
 35 44  2  0  0  0
 35 45  1  0  0  0
 35 68  1  0  0  0
 36 56  1  0  0  0
 36113  1  0  0  0
 37 39  1  0  0  0
 37 47  1  0  0  0
 37 66  1  0  0  0
 37114  1  0  0  0
 38 43  2  0  0  0
 38 46  1  0  0  0
 38 47  1  0  0  0
 39 64  1  0  0  0
 39 67  2  0  0  0
 40 52  1  0  0  0
 40 53  2  0  0  0
 40 58  1  0  0  0
 41115  1  0  0  0
 41116  1  0  0  0
 41117  1  0  0  0
 41 48  1  0  0  0
 42 43  1  0  0  0
 42 66  1  0  0  0
 42118  1  0  0  0
 42119  1  0  0  0
 43 44  1  0  0  0
 44120  1  0  0  0
 45 46  2  0  0  0
 45121  1  0  0  0
 46122  1  0  0  0
 47123  1  0  0  0
 47124  1  0  0  0
 48 56  1  0  0  0
 48 65  1  0  0  0
 48125  1  0  0  0
 49 50  1  0  0  0
 49 53  1  0  0  0
 49 64  1  0  0  0
 49126  1  0  0  0
 50 51  1  0  0  0
 50127  1  0  0  0
 50128  1  0  0  0
 51 52  1  0  0  0
 51129  1  0  0  0
 51130  1  0  0  0
 52131  1  0  0  0
 52132  1  0  0  0
 53 54  1  0  0  0
 54 55  2  0  0  0
 54133  1  0  0  0
 55 57  1  0  0  0
 55134  1  0  0  0
 56 69  2  0  0  0
 57 58  2  0  0  0
 57135  1  0  0  0
 58136  1  0  0  0
 59 60  1  0  0  0
 59 61  1  0  0  0
 59 62  1  0  0  0
 60137  1  0  0  0
 60138  1  0  0  0
 60139  1  0  0  0
 61140  1  0  0  0
 61141  1  0  0  0
 61142  1  0  0  0
 62143  1  0  0  0
 62144  1  0  0  0
 62145  1  0  0  0
 63 65  1  0  0  0
 63146  1  0  0  0
 63147  1  0  0  0
 63148  1  0  0  0
 64149  1  0  0  0
 65150  1  0  0  0
 68 88  1  0  0  0
 71 73  2  0  0  0
 71 76  1  0  0  0
 71151  1  0  0  0
 72 74  2  0  0  0
 72 75  1  0  0  0
 72152  1  0  0  0
 73 74  1  0  0  0
 73 84  1  0  0  0
 74 86  1  0  0  0
 75 76  2  0  0  0
 75 88  1  0  0  0
 76 91  1  0  0  0
 77 80  1  0  0  0
 77 84  1  0  0  0
 77153  1  0  0  0
 77154  1  0  0  0
 78 81  1  0  0  0
 78 84  1  0  0  0
 78155  1  0  0  0
 78156  1  0  0  0
 79 82  1  0  0  0
 79 85  1  0  0  0
 79157  1  0  0  0
 79158  1  0  0  0
 80 89  1  0  0  0
 80159  1  0  0  0
 80160  1  0  0  0
 81 89  1  0  0  0
 81161  1  0  0  0
 81162  1  0  0  0
 82 90  1  0  0  0
 82163  1  0  0  0
 82164  1  0  0  0
 83 85  1  0  0  0
 83 90  1  0  0  0
 83165  1  0  0  0
 83166  1  0  0  0
 84167  1  0  0  0
 85 91  1  0  0  0
 85168  1  0  0  0
 86169  1  0  0  0
 86170  1  0  0  0
 86171  1  0  0  0
 87172  1  0  0  0
 87173  1  0  0  0
 87174  1  0  0  0
 87 88  1  0  0  0
 88175  1  0  0  0
 90176  1  0  0  0
 90177  1  0  0  0
M  CHG  1  90   1
M  ISO  4   1 100  68 101  88 101  89 100
M  END
> <chiral flag>
0

> <version>
0

> <s_m_source_file>
/data/baiqing/PycharmProjects/Reinvent-master-3.2/result/LINK_invent/BTK/process_docking_weight1_custom_sum_contain_oxygen_bond_distance_aromatic_linkinvent_7_9_3/rearranged_h_0156.sdf

> <i_m_source_file_index>
12

> <r_mmod_Potential_Energy-OPLS-2005>
391.494720458984

> <r_mmod_Stretch_Energy-OPLS-2005>
123.469886779785

> <r_mmod_Bend_Energy-OPLS-2005>
240.103363037109

> <r_mmod_Torsional_Energy-OPLS-2005>
442.637939453125

> <r_mmod_Improper_Torsional_Energy-OPLS-2005>
5.58125972747803

> <r_mmod_Van_der_Waal_Energy-OPLS-2005>
150.45573425293

> <r_mmod_Electrostatic_Energy-OPLS-2005>
-210.327041625977

> <r_mmod_Solvation_Energy-OPLS-2005>
-455.405151367188

> <b_mmod_Minimization_Converged-OPLS-2005>
0

> <r_mmod_RMS_Derivative-OPLS-2005>
2.06246781349182

$$$$
12
                    3D
 Structure written by MMmdl.
168177  0  0  1  0            999 V2000
  -29.0257  -16.3233   20.8703 C   0  0  0  0  0  0
  -30.0702  -13.7953   19.8095 C   0  0  0  0  0  0
  -29.5014  -13.0139   18.5543 C   0  0  0  0  0  0
  -28.1612  -12.3463   18.8828 C   0  0  0  0  0  0
  -27.4405  -13.3026   19.8398 C   0  0  2  0  0  0
  -28.2042  -13.7300   21.0970 C   0  0  0  0  0  0
  -25.1409  -13.7996   20.5510 C   0  0  0  0  0  0
  -24.0989  -13.0175   20.9239 C   0  0  0  0  0  0
  -24.5757  -11.6703   20.8662 C   0  0  0  0  0  0
  -23.8654  -10.4134   21.0476 C   0  0  0  0  0  0
  -24.3369   -9.4152   21.9264 C   0  0  0  0  0  0
  -23.6181   -8.2114   22.0765 C   0  0  0  0  0  0
  -22.4181   -8.0111   21.3506 C   0  0  0  0  0  0
  -21.9704   -9.0033   20.4605 C   0  0  0  0  0  0
  -22.6893  -10.1969   20.3082 C   0  0  0  0  0  0
  -21.6812   -6.0638   22.5290 C   0  0  0  0  0  0
  -21.3987   -6.5589   23.8202 C   0  0  0  0  0  0
  -21.3653   -5.6773   24.9180 C   0  0  0  0  0  0
  -21.6043   -4.3028   24.7257 C   0  0  0  0  0  0
  -21.8817   -3.8090   23.4384 C   0  0  0  0  0  0
  -21.9171   -4.6882   22.3425 C   0  0  0  0  0  0
  -22.7147  -13.5034   21.2070 C   0  0  0  0  0  0
  -22.1637   -4.2070   21.1001 F   0  0  0  0  0  0
  -21.5637   -3.4523   25.7778 F   0  0  0  0  0  0
  -29.0567  -14.8058   20.6012 N   0  0  0  0  0  0
  -26.1501  -12.9163   20.2619 N   0  0  0  0  0  0
  -25.8554  -11.6289   20.5278 N   0  0  0  0  0  0
  -21.9875  -12.8034   22.0663 N   0  0  0  0  0  0
  -25.3271  -15.1725   20.4107 N   0  0  0  0  0  0
  -30.2748  -16.4278   20.6138 O   0  0  0  0  0  0
  -21.6555   -6.8717   21.4225 O   0  0  0  0  0  0
  -22.2928  -14.5427   20.7016 O   0  0  0  0  0  0
  -24.6384  -31.8188   23.1846 C   0  0  0  0  0  0
  -25.9130  -32.4740   23.8255 C   0  0  1  0  0  0
  -27.0652  -27.4170   20.2374 C   0  0  0  0  0  0
  -25.5920  -33.8693   24.2266 N   0  0  0  0  0  0
  -23.4782  -30.5953   21.3936 C   0  0  2  0  0  0
  -24.9035  -29.1074   19.9444 C   0  0  0  0  0  0
  -22.7409  -29.5182   22.1580 C   0  0  0  0  0  0
  -17.8572  -28.1969   22.1623 C   0  0  0  0  0  0
  -24.1494  -36.7379   23.2605 C   0  0  0  0  0  0
  -25.9917  -30.8631   21.3702 C   0  0  0  0  0  0
  -26.0568  -29.5521   20.6031 C   0  0  0  0  0  0
  -27.1946  -28.7482   20.6752 C   0  0  0  0  0  0
  -26.0088  -27.0194   19.3973 C   0  0  0  0  0  0
  -24.8780  -27.8580   19.2923 C   0  0  0  0  0  0
  -23.7225  -30.0277   20.0024 C   0  0  0  0  0  0
  -25.4111  -36.3245   24.0277 C   0  0  1  0  0  0
  -20.5049  -28.2179   22.2784 C   0  0  2  0  0  0
  -20.4432  -27.0740   21.2476 C   0  0  0  0  0  0
  -19.1000  -27.0652   20.3831 C   0  0  0  0  0  0
  -17.9101  -26.8341   21.2742 C   0  0  0  0  0  0
  -19.1191  -28.7197   22.6709 C   0  0  0  0  0  0
  -18.8593  -29.5375   23.7583 C   0  0  0  0  0  0
  -17.6469  -30.0049   24.1692 C   0  0  0  0  0  0
  -25.8997  -34.9509   23.5038 C   0  0  0  0  0  0
  -16.4550  -29.6578   23.4741 C   0  0  0  0  0  0
  -16.6037  -28.5296   22.5970 C   0  0  0  0  0  0
  -26.4800  -31.6693   25.0621 C   0  0  0  0  0  0
  -25.3955  -31.3739   26.1005 C   0  0  0  0  0  0
  -27.0568  -30.3114   24.5903 C   0  0  0  0  0  0
  -27.6343  -32.4212   25.7714 C   0  0  0  0  0  0
  -27.5625  -37.1933   24.8475 C   0  0  0  0  0  0
  -21.3829  -29.3310   21.8203 N   0  0  0  0  0  0
  -26.4308  -37.3938   23.9464 N   0  0  0  0  0  0
  -24.7390  -31.0237   22.0991 N   0  0  0  0  0  0
  -23.4120  -28.6900   22.7621 O   0  0  0  0  0  0
  -27.3041  -26.5126   21.2457 O   0  0  0  0  0  0
  -26.5558  -34.8991   22.4657 O   0  0  0  0  0  0
  -23.5435  -32.0918   23.6887 O   0  0  0  0  0  0
  -24.6101  -26.6371   25.2884 C   0  0  0  0  0  0
  -22.5440  -25.6671   24.0591 C   0  0  0  0  0  0
  -23.3790  -27.3584   25.6685 C   0  0  0  0  0  0
  -24.7690  -25.5239   24.3214 C   0  0  0  0  0  0
  -22.3775  -27.1304   24.7838 C   0  0  0  0  0  0
  -23.7212  -24.6171   23.7255 C   0  0  0  0  0  0
  -26.4677  -20.9314   21.3684 C   0  0  0  0  0  0
  -25.5403  -19.7897   22.7557 C   0  0  0  0  0  0
  -27.7681  -19.4620   21.3436 C   0  0  0  0  0  0
  -26.2323  -18.2650   21.7284 C   0  0  0  0  0  0
  -25.1708  -21.5517   22.4602 C   0  0  0  0  0  0
  -23.2369  -28.5012   26.7586 C   0  0  0  0  0  0
  -21.5564  -28.6376   24.8643 C   0  0  0  0  0  0
  -26.2639  -26.6302   22.3184 C   0  0  0  0  0  0
  -26.0379  -25.5448   23.5293 C   0  0  1  0  0  0
  -27.8525  -17.6848   21.2446 N   0  0  0  0  0  0
  -26.9169  -25.6805   24.5624 O   0  0  0  0  0  0
  -24.0305  -23.1163   22.9285 O   0  0  0  0  0  0
  -30.8971  -14.4026   19.4459 H   0  0  0  0  0  0
  -30.5324  -13.1050   20.5084 H   0  0  0  0  0  0
  -30.2142  -12.2830   18.1601 H   0  0  0  0  0  0
  -29.3446  -13.7537   17.7630 H   0  0  0  0  0  0
  -28.3370  -11.3894   19.3819 H   0  0  0  0  0  0
  -27.5935  -12.1445   17.9717 H   0  0  0  0  0  0
  -27.2650  -14.1704   19.2035 H   0  0  0  0  0  0
  -28.6903  -12.9162   21.6138 H   0  0  0  0  0  0
  -27.5293  -14.1779   21.8275 H   0  0  0  0  0  0
  -25.2501   -9.5710   22.4827 H   0  0  0  0  0  0
  -23.9920   -7.4491   22.7475 H   0  0  0  0  0  0
  -21.0647   -8.8465   19.8893 H   0  0  0  0  0  0
  -22.3331  -10.9482   19.6176 H   0  0  0  0  0  0
  -21.1982   -7.6097   23.9687 H   0  0  0  0  0  0
  -21.1493   -6.0509   25.9082 H   0  0  0  0  0  0
  -22.0620   -2.7550   23.2910 H   0  0  0  0  0  0
  -22.3477  -11.9649   22.4930 H   0  0  0  0  0  0
  -21.0532  -13.1049   22.2991 H   0  0  0  0  0  0
  -24.6002  -15.8523   20.6132 H   0  0  0  0  0  0
  -26.1629  -15.5734   20.0125 H   0  0  0  0  0  0
  -26.7279  -32.5617   23.1122 H   0  0  0  0  0  0
  -25.0648  -33.9975   25.0780 H   0  0  0  0  0  0
  -22.8044  -31.4084   21.2682 H   0  0  0  0  0  0
  -23.3870  -35.9627   23.3199 H   0  0  0  0  0  0
  -24.3606  -36.9075   22.2059 H   0  0  0  0  0  0
  -23.7155  -37.6498   23.6680 H   0  0  0  0  0  0
  -26.1510  -31.7163   20.7006 H   0  0  0  0  0  0
  -26.8840  -30.8678   21.9872 H   0  0  0  0  0  0
  -27.9589  -29.0467   21.3972 H   0  0  0  0  0  0
  -25.8696  -25.9873   19.0701 H   0  0  0  0  0  0
  -23.9954  -27.5381   18.7546 H   0  0  0  0  0  0
  -23.9486  -30.9066   19.4260 H   0  0  0  0  0  0
  -22.8191  -29.5715   19.5736 H   0  0  0  0  0  0
  -25.1330  -36.2000   25.0747 H   0  0  0  0  0  0
  -20.7369  -27.5976   23.1266 H   0  0  0  0  0  0
  -20.6760  -26.0764   21.6578 H   0  0  0  0  0  0
  -21.1673  -27.1861   20.4702 H   0  0  0  0  0  0
  -19.1176  -26.7555   19.2300 H   0  0  0  0  0  0
  -18.8779  -28.0703   19.8857 H   0  0  0  0  0  0
  -17.0523  -26.5771   20.5875 H   0  0  0  0  0  0
  -18.2042  -25.8784   21.7229 H   0  0  0  0  0  0
  -19.1141  -28.7376   24.4354 H   0  0  0  0  0  0
  -17.4457  -30.1582   25.2097 H   0  0  0  0  0  0
  -15.4748  -29.8477   23.7999 H   0  0  0  0  0  0
  -15.7296  -28.0441   22.2166 H   0  0  0  0  0  0
  -24.6484  -30.7779   25.6080 H   0  0  0  0  0  0
  -24.9154  -32.2763   26.4714 H   0  0  0  0  0  0
  -25.7662  -30.7999   26.9429 H   0  0  0  0  0  0
  -26.3170  -29.7081   24.0603 H   0  0  0  0  0  0
  -27.4050  -29.7098   25.4266 H   0  0  0  0  0  0
  -27.9148  -30.4416   23.9313 H   0  0  0  0  0  0
  -27.3096  -33.3621   26.2106 H   0  0  0  0  0  0
  -28.4607  -32.6281   25.0943 H   0  0  0  0  0  0
  -28.0373  -31.8168   26.5804 H   0  0  0  0  0  0
  -28.2486  -38.0385   24.7750 H   0  0  0  0  0  0
  -28.1271  -36.2923   24.6045 H   0  0  0  0  0  0
  -27.2355  -37.1277   25.8867 H   0  0  0  0  0  0
  -21.2222  -29.7812   20.8796 H   0  0  0  0  0  0
  -26.0135  -38.2955   24.1721 H   0  0  0  0  0  0
  -25.3577  -27.1093   25.8892 H   0  0  0  0  0  0
  -21.5958  -25.6132   23.6928 H   0  0  0  0  0  0
  -25.9844  -20.9197   20.3738 H   0  0  0  0  0  0
  -27.0575  -21.8475   21.2776 H   0  0  0  0  0  0
  -26.2334  -19.9375   23.6059 H   0  0  0  0  0  0
  -24.6158  -19.3729   23.2083 H   0  0  0  0  0  0
  -28.2813  -19.6443   22.3032 H   0  0  0  0  0  0
  -28.4883  -19.7895   20.5712 H   0  0  0  0  0  0
  -25.7345  -18.3437   20.7248 H   0  0  0  0  0  0
  -25.7035  -17.3779   22.1536 H   0  0  0  0  0  0
  -24.2834  -21.4447   21.8349 H   0  0  0  0  0  0
  -23.9834  -28.4960   27.6047 H   0  0  0  0  0  0
  -22.1919  -28.3049   27.2564 H   0  0  0  0  0  0
  -23.3129  -29.5247   26.3692 H   0  0  0  0  0  0
  -21.0595  -29.4274   24.1511 H   0  0  0  0  0  0
  -22.4041  -29.4543   24.9268 H   0  0  0  0  0  0
  -21.1567  -29.0829   25.7306 H   0  0  0  0  0  0
  -26.3757  -27.6070   22.7757 H   0  0  0  0  0  0
  -25.3065  -26.7659   21.8213 H   0  0  0  0  0  0
  -25.9420  -24.5453   23.0464 H   0  0  0  0  0  0
  -26.3253  -25.9465   25.2569 H   0  0  0  0  0  0
  1 25  1  0  0  0
  1 30  2  0  0  0
  1 86  1  0  0  0
  2  3  1  0  0  0
  2 25  1  0  0  0
  2 89  1  0  0  0
  2 90  1  0  0  0
  3  4  1  0  0  0
  3 91  1  0  0  0
  3 92  1  0  0  0
  4  5  1  0  0  0
  4 93  1  0  0  0
  4 94  1  0  0  0
  5  6  1  0  0  0
  5 26  1  0  0  0
  5 95  1  0  0  0
  6 25  1  0  0  0
  6 96  1  0  0  0
  6 97  1  0  0  0
  7  8  2  0  0  0
  7 26  1  0  0  0
  7 29  1  0  0  0
  8  9  1  0  0  0
  8 22  1  0  0  0
  9 10  1  0  0  0
  9 27  2  0  0  0
 10 11  2  0  0  0
 10 15  1  0  0  0
 11 12  1  0  0  0
 11 98  1  0  0  0
 12 13  2  0  0  0
 12 99  1  0  0  0
 13 14  1  0  0  0
 13 31  1  0  0  0
 14 15  2  0  0  0
 14100  1  0  0  0
 15101  1  0  0  0
 16 17  2  0  0  0
 16 21  1  0  0  0
 16 31  1  0  0  0
 17 18  1  0  0  0
 17102  1  0  0  0
 18 19  2  0  0  0
 18103  1  0  0  0
 19 20  1  0  0  0
 19 24  1  0  0  0
 20 21  2  0  0  0
 20104  1  0  0  0
 21 23  1  0  0  0
 22 28  1  0  0  0
 22 32  2  0  0  0
 26 27  1  0  0  0
 28105  1  0  0  0
 28106  1  0  0  0
 29107  1  0  0  0
 29108  1  0  0  0
 33 34  1  0  0  0
 33 66  1  0  0  0
 33 70  2  0  0  0
 34 36  1  0  0  0
 34 59  1  0  0  0
 34109  1  0  0  0
 35 44  2  0  0  0
 35 45  1  0  0  0
 35 68  1  0  0  0
 36 56  1  0  0  0
 36110  1  0  0  0
 37 39  1  0  0  0
 37 47  1  0  0  0
 37 66  1  0  0  0
 37111  1  0  0  0
 38 43  2  0  0  0
 38 46  1  0  0  0
 38 47  1  0  0  0
 39 64  1  0  0  0
 39 67  2  0  0  0
 40 52  1  0  0  0
 40 53  2  0  0  0
 40 58  1  0  0  0
 41112  1  0  0  0
 41113  1  0  0  0
 41114  1  0  0  0
 41 48  1  0  0  0
 42 43  1  0  0  0
 42 66  1  0  0  0
 42115  1  0  0  0
 42116  1  0  0  0
 43 44  1  0  0  0
 44117  1  0  0  0
 45 46  2  0  0  0
 45118  1  0  0  0
 46119  1  0  0  0
 47120  1  0  0  0
 47121  1  0  0  0
 48 56  1  0  0  0
 48 65  1  0  0  0
 48122  1  0  0  0
 49 50  1  0  0  0
 49 53  1  0  0  0
 49 64  1  0  0  0
 49123  1  0  0  0
 50 51  1  0  0  0
 50124  1  0  0  0
 50125  1  0  0  0
 51 52  1  0  0  0
 51126  1  0  0  0
 51127  1  0  0  0
 52128  1  0  0  0
 52129  1  0  0  0
 53 54  1  0  0  0
 54 55  2  0  0  0
 54130  1  0  0  0
 55 57  1  0  0  0
 55131  1  0  0  0
 56 69  2  0  0  0
 57 58  2  0  0  0
 57132  1  0  0  0
 58133  1  0  0  0
 59 60  1  0  0  0
 59 61  1  0  0  0
 59 62  1  0  0  0
 60134  1  0  0  0
 60135  1  0  0  0
 60136  1  0  0  0
 61137  1  0  0  0
 61138  1  0  0  0
 61139  1  0  0  0
 62140  1  0  0  0
 62141  1  0  0  0
 62142  1  0  0  0
 63 65  1  0  0  0
 63143  1  0  0  0
 63144  1  0  0  0
 63145  1  0  0  0
 64146  1  0  0  0
 65147  1  0  0  0
 68 84  1  0  0  0
 71 73  2  0  0  0
 71 74  1  0  0  0
 71148  1  0  0  0
 72 75  2  0  0  0
 72 76  1  0  0  0
 72149  1  0  0  0
 73 75  1  0  0  0
 73 82  1  0  0  0
 74 76  2  0  0  0
 74 85  1  0  0  0
 75 83  1  0  0  0
 76 88  1  0  0  0
 77 79  1  0  0  0
 77 81  1  0  0  0
 77150  1  0  0  0
 77151  1  0  0  0
 78 80  1  0  0  0
 78 81  1  0  0  0
 78152  1  0  0  0
 78153  1  0  0  0
 79 86  1  0  0  0
 79154  1  0  0  0
 79155  1  0  0  0
 80 86  1  0  0  0
 80156  1  0  0  0
 80157  1  0  0  0
 81 88  1  0  0  0
 81158  1  0  0  0
 82159  1  0  0  0
 82160  1  0  0  0
 82161  1  0  0  0
 83162  1  0  0  0
 83163  1  0  0  0
 83164  1  0  0  0
 84 85  1  0  0  0
 84165  1  0  0  0
 84166  1  0  0  0
 85 87  1  0  0  0
 85167  1  0  0  0
 87168  1  0  0  0
M  ISO  4   1 100  68 101  84 101  86 100
M  END
> <chiral flag>
0

> <version>
0

> <s_m_source_file>
/data/baiqing/PycharmProjects/Reinvent-master-3.2/result/LINK_invent/BTK/process_docking_weight1_custom_sum_contain_oxygen_bond_distance_aromatic_linkinvent_7_9_3/rearranged_h_0156.sdf

> <i_m_source_file_index>
13

> <r_mmod_Potential_Energy-OPLS-2005>
8752.6298828125

> <r_mmod_Stretch_Energy-OPLS-2005>
2789.45629882812

> <r_mmod_Bend_Energy-OPLS-2005>
2144.87890625

> <r_mmod_Torsional_Energy-OPLS-2005>
715.112060546875

> <r_mmod_Improper_Torsional_Energy-OPLS-2005>
49.8853416442871

> <r_mmod_Van_der_Waal_Energy-OPLS-2005>
440.864379882812

> <r_mmod_Electrostatic_Energy-OPLS-2005>
-289.102386474609

> <r_mmod_Solvation_Energy-OPLS-2005>
-234.453247070312

> <b_mmod_Minimization_Converged-OPLS-2005>
0

> <r_mmod_RMS_Derivative-OPLS-2005>
99.9990005493164

$$$$
13
                    3D
 Structure written by MMmdl.
160169  0  0  1  0            999 V2000
  -30.7076  -14.4588   20.5802 C   0  0  0  0  0  0
  -30.4200  -12.3047   19.4153 C   0  0  0  0  0  0
  -29.4898  -12.5044   18.2015 C   0  0  0  0  0  0
  -28.0120  -12.3646   18.6168 C   0  0  0  0  0  0
  -27.6600  -13.2057   19.8733 C   0  0  2  0  0  0
  -28.7019  -12.9854   20.9923 C   0  0  0  0  0  0
  -25.2585  -13.8163   20.5680 C   0  0  0  0  0  0
  -24.1833  -13.0442   20.9172 C   0  0  0  0  0  0
  -24.6386  -11.6905   20.8732 C   0  0  0  0  0  0
  -23.9053  -10.4292   21.0405 C   0  0  0  0  0  0
  -24.3607   -9.4211   21.9185 C   0  0  0  0  0  0
  -23.6286   -8.2243   22.0755 C   0  0  0  0  0  0
  -22.4271   -8.0279   21.3541 C   0  0  0  0  0  0
  -21.9906   -9.0249   20.4642 C   0  0  0  0  0  0
  -22.7228  -10.2131   20.3052 C   0  0  0  0  0  0
  -21.6851   -6.0735   22.5275 C   0  0  0  0  0  0
  -21.4009   -6.5637   23.8208 C   0  0  0  0  0  0
  -21.3654   -5.6791   24.9171 C   0  0  0  0  0  0
  -21.6044   -4.3055   24.7224 C   0  0  0  0  0  0
  -21.8823   -3.8148   23.4345 C   0  0  0  0  0  0
  -21.9194   -4.6964   22.3401 C   0  0  0  0  0  0
  -22.7858  -13.5241   21.1841 C   0  0  0  0  0  0
  -22.1664   -4.2151   21.0979 F   0  0  0  0  0  0
  -21.5627   -3.4540   25.7737 F   0  0  0  0  0  0
  -30.0316  -13.2882   20.4367 N   0  0  0  0  0  0
  -26.3014  -12.9326   20.3362 N   0  0  0  0  0  0
  -25.9312  -11.6487   20.5765 N   0  0  0  0  0  0
  -22.0499  -12.8228   22.0395 N   0  0  0  0  0  0
  -25.4326  -15.1879   20.4093 N   0  0  0  0  0  0
  -31.8345  -14.6455   20.1124 O   0  0  0  0  0  0
  -21.6635   -6.8877   21.4237 O   0  0  0  0  0  0
  -22.3548  -14.5550   20.6696 O   0  0  0  0  0  0
  -24.6141  -31.8678   23.2090 C   0  0  0  0  0  0
  -25.9039  -32.4818   23.8385 C   0  0  1  0  0  0
  -27.2349  -27.4382   20.0969 C   0  0  0  0  0  0
  -25.5898  -33.8615   24.2320 N   0  0  0  0  0  0
  -23.4008  -30.4906   21.5499 C   0  0  2  0  0  0
  -24.8466  -28.9526   20.1172 C   0  0  0  0  0  0
  -22.7401  -29.4661   22.5000 C   0  0  0  0  0  0
  -18.0270  -28.1379   22.8494 C   0  0  0  0  0  0
  -24.1472  -36.7292   23.2644 C   0  0  0  0  0  0
  -25.9285  -30.8354   21.3593 C   0  0  0  0  0  0
  -26.0064  -29.4696   20.7075 C   0  0  0  0  0  0
  -27.2053  -28.7221   20.6868 C   0  0  0  0  0  0
  -26.0570  -26.9284   19.5100 C   0  0  0  0  0  0
  -24.8666  -27.6816   19.5152 C   0  0  0  0  0  0
  -23.6082  -29.8189   20.1657 C   0  0  0  0  0  0
  -25.4100  -36.3104   24.0340 C   0  0  1  0  0  0
  -20.5857  -28.3658   23.1324 C   0  0  2  0  0  0
  -20.6757  -26.9395   22.5424 C   0  0  0  0  0  0
  -19.5740  -26.6384   21.5214 C   0  0  0  0  0  0
  -18.1913  -26.7931   22.1613 C   0  0  0  0  0  0
  -19.1520  -28.8835   23.2907 C   0  0  0  0  0  0
  -18.9454  -30.1441   23.8920 C   0  0  0  0  0  0
  -17.6458  -30.6586   24.0571 C   0  0  0  0  0  0
  -25.9034  -34.9473   23.5127 C   0  0  0  0  0  0
  -16.5346  -29.9089   23.6335 C   0  0  0  0  0  0
  -16.7261  -28.6507   23.0354 C   0  0  0  0  0  0
  -26.4471  -31.6595   25.0712 C   0  0  0  0  0  0
  -25.3740  -31.3691   26.1461 C   0  0  0  0  0  0
  -27.0304  -30.3044   24.6077 C   0  0  0  0  0  0
  -27.6040  -32.4322   25.7483 C   0  0  0  0  0  0
  -27.5571  -37.1801   24.8474 C   0  0  0  0  0  0
  -21.4131  -29.3026   22.3733 N   0  0  0  0  0  0
  -26.4284  -37.3793   23.9420 N   0  0  0  0  0  0
  -24.6661  -31.0788   22.0981 N   0  0  0  0  0  0
  -23.4179  -28.8213   23.3046 O   0  0  0  0  0  0
  -28.4140  -26.7261   20.0764 O   0  0  0  0  0  0
  -26.5598  -34.8927   22.4689 O   0  0  0  0  0  0
  -23.5340  -32.1427   23.7498 O   0  0  0  0  0  0
  -28.3959  -22.3173   20.9588 C   0  0  0  0  0  0
  -29.8293  -22.1713   19.0212 C   0  0  0  0  0  0
  -29.7411  -20.2724   20.5965 C   0  0  0  0  0  0
  -28.9185  -22.9158   19.7950 C   0  0  0  0  0  0
  -28.8054  -21.0251   21.3698 C   0  0  0  0  0  0
  -30.2444  -20.8794   19.4089 C   0  0  0  0  0  0
  -29.4908  -17.8347   21.8719 C   0  0  0  0  0  0
  -30.6891  -17.7165   20.1819 C   0  0  0  0  0  0
  -30.2970  -18.9107   21.0935 C   0  0  1  0  0  0
  -30.5421  -16.8097   21.4163 C   0  0  2  0  0  0
  -28.2462  -20.5123   22.6860 C   0  0  0  0  0  0
  -28.5384  -24.3402   19.3635 C   0  0  0  0  0  0
  -28.3679  -25.3592   20.5162 C   0  0  0  0  0  0
  -30.0229  -15.4595   21.1636 N   0  0  0  0  0  0
  -31.4275  -20.1202   18.4033 Cl  0  0  0  0  0  0
  -31.4641  -12.4038   19.1135 H   0  0  0  0  0  0
  -30.3208  -11.2939   19.8135 H   0  0  0  0  0  0
  -29.7277  -11.7798   17.4216 H   0  0  0  0  0  0
  -29.6565  -13.4906   17.7650 H   0  0  0  0  0  0
  -27.8236  -11.3087   18.8143 H   0  0  0  0  0  0
  -27.3595  -12.6382   17.7865 H   0  0  0  0  0  0
  -27.7045  -14.2534   19.5755 H   0  0  0  0  0  0
  -28.6779  -11.9496   21.3340 H   0  0  0  0  0  0
  -28.4643  -13.5855   21.8717 H   0  0  0  0  0  0
  -25.2754   -9.5689   22.4759 H   0  0  0  0  0  0
  -23.9996   -7.4638   22.7477 H   0  0  0  0  0  0
  -21.0839   -8.8763   19.8947 H   0  0  0  0  0  0
  -22.3690  -10.9666   19.6158 H   0  0  0  0  0  0
  -21.1996   -7.6147   23.9712 H   0  0  0  0  0  0
  -21.1469   -6.0521   25.9072 H   0  0  0  0  0  0
  -22.0607   -2.7610   23.2843 H   0  0  0  0  0  0
  -22.4109  -11.9879   22.4766 H   0  0  0  0  0  0
  -21.1120  -13.1258   22.2609 H   0  0  0  0  0  0
  -24.6691  -15.8467   20.5156 H   0  0  0  0  0  0
  -26.2892  -15.6246   20.0925 H   0  0  0  0  0  0
  -26.7110  -32.5530   23.1151 H   0  0  0  0  0  0
  -25.0066  -33.9777   25.0475 H   0  0  0  0  0  0
  -22.6888  -31.3065   21.4092 H   0  0  0  0  0  0
  -23.3743  -35.9618   23.3332 H   0  0  0  0  0  0
  -24.3560  -36.8883   22.2054 H   0  0  0  0  0  0
  -23.7214  -37.6496   23.6646 H   0  0  0  0  0  0
  -26.0389  -31.6016   20.5905 H   0  0  0  0  0  0
  -26.8172  -30.8897   21.9765 H   0  0  0  0  0  0
  -28.1056  -29.1220   21.1321 H   0  0  0  0  0  0
  -26.0549  -25.9578   19.0369 H   0  0  0  0  0  0
  -23.9745  -27.2779   19.0562 H   0  0  0  0  0  0
  -23.7145  -30.5919   19.4034 H   0  0  0  0  0  0
  -22.7321  -29.2378   19.8719 H   0  0  0  0  0  0
  -25.1279  -36.1964   25.0833 H   0  0  0  0  0  0
  -20.9946  -28.3223   24.1446 H   0  0  0  0  0  0
  -20.5653  -26.2267   23.3612 H   0  0  0  0  0  0
  -21.6630  -26.7433   22.1224 H   0  0  0  0  0  0
  -19.6901  -25.6300   21.1235 H   0  0  0  0  0  0
  -19.6691  -27.3207   20.6757 H   0  0  0  0  0  0
  -17.4191  -26.6704   21.4003 H   0  0  0  0  0  0
  -18.0291  -26.0059   22.8992 H   0  0  0  0  0  0
  -19.7928  -30.7249   24.2299 H   0  0  0  0  0  0
  -17.5015  -31.6272   24.5165 H   0  0  0  0  0  0
  -15.5351  -30.3002   23.7654 H   0  0  0  0  0  0
  -15.8657  -28.0840   22.7059 H   0  0  0  0  0  0
  -24.5941  -30.7001   25.7806 H   0  0  0  0  0  0
  -24.8897  -32.2837   26.4893 H   0  0  0  0  0  0
  -25.8104  -30.8889   27.0228 H   0  0  0  0  0  0
  -26.2837  -29.6797   24.1156 H   0  0  0  0  0  0
  -27.4116  -29.7285   25.4519 H   0  0  0  0  0  0
  -27.8651  -30.4375   23.9188 H   0  0  0  0  0  0
  -27.2655  -33.3621   26.2065 H   0  0  0  0  0  0
  -28.3852  -32.6882   25.0314 H   0  0  0  0  0  0
  -28.0701  -31.8442   26.5401 H   0  0  0  0  0  0
  -28.2607  -38.0080   24.7511 H   0  0  0  0  0  0
  -28.1045  -36.2613   24.6312 H   0  0  0  0  0  0
  -27.2292  -37.1468   25.8879 H   0  0  0  0  0  0
  -20.9295  -29.8736   21.6943 H   0  0  0  0  0  0
  -26.0168  -38.2867   24.1437 H   0  0  0  0  0  0
  -27.6916  -22.8679   21.5672 H   0  0  0  0  0  0
  -30.2455  -22.6032   18.1220 H   0  0  0  0  0  0
  -28.4999  -17.6571   21.4477 H   0  0  0  0  0  0
  -29.4431  -17.9748   22.9519 H   0  0  0  0  0  0
  -31.7016  -17.7524   19.7782 H   0  0  0  0  0  0
  -29.9548  -17.5137   19.3991 H   0  0  0  0  0  0
  -31.1698  -19.1854   21.6910 H   0  0  0  0  0  0
  -31.4332  -16.8233   22.0492 H   0  0  0  0  0  0
  -27.6704  -21.2798   23.2038 H   0  0  0  0  0  0
  -29.0508  -20.2135   23.3572 H   0  0  0  0  0  0
  -27.5794  -19.6666   22.5212 H   0  0  0  0  0  0
  -27.6298  -24.2928   18.7641 H   0  0  0  0  0  0
  -29.3179  -24.7104   18.6962 H   0  0  0  0  0  0
  -29.2023  -25.2429   21.2088 H   0  0  0  0  0  0
  -27.4683  -25.1478   21.0968 H   0  0  0  0  0  0
  -29.0967  -15.2392   21.4984 H   0  0  0  0  0  0
  1 25  1  0  0  0
  1 30  2  0  0  0
  1 84  1  0  0  0
  2  3  1  0  0  0
  2 25  1  0  0  0
  2 86  1  0  0  0
  2 87  1  0  0  0
  3  4  1  0  0  0
  3 88  1  0  0  0
  3 89  1  0  0  0
  4  5  1  0  0  0
  4 90  1  0  0  0
  4 91  1  0  0  0
  5  6  1  0  0  0
  5 26  1  0  0  0
  5 92  1  0  0  0
  6 25  1  0  0  0
  6 93  1  0  0  0
  6 94  1  0  0  0
  7  8  2  0  0  0
  7 26  1  0  0  0
  7 29  1  0  0  0
  8  9  1  0  0  0
  8 22  1  0  0  0
  9 10  1  0  0  0
  9 27  2  0  0  0
 10 11  2  0  0  0
 10 15  1  0  0  0
 11 12  1  0  0  0
 11 95  1  0  0  0
 12 13  2  0  0  0
 12 96  1  0  0  0
 13 14  1  0  0  0
 13 31  1  0  0  0
 14 15  2  0  0  0
 14 97  1  0  0  0
 15 98  1  0  0  0
 16 17  2  0  0  0
 16 21  1  0  0  0
 16 31  1  0  0  0
 17 18  1  0  0  0
 17 99  1  0  0  0
 18 19  2  0  0  0
 18100  1  0  0  0
 19 20  1  0  0  0
 19 24  1  0  0  0
 20 21  2  0  0  0
 20101  1  0  0  0
 21 23  1  0  0  0
 22 28  1  0  0  0
 22 32  2  0  0  0
 26 27  1  0  0  0
 28102  1  0  0  0
 28103  1  0  0  0
 29104  1  0  0  0
 29105  1  0  0  0
 33 34  1  0  0  0
 33 66  1  0  0  0
 33 70  2  0  0  0
 34 36  1  0  0  0
 34 59  1  0  0  0
 34106  1  0  0  0
 35 44  2  0  0  0
 35 45  1  0  0  0
 35 68  1  0  0  0
 36 56  1  0  0  0
 36107  1  0  0  0
 37 39  1  0  0  0
 37 47  1  0  0  0
 37 66  1  0  0  0
 37108  1  0  0  0
 38 43  2  0  0  0
 38 46  1  0  0  0
 38 47  1  0  0  0
 39 64  1  0  0  0
 39 67  2  0  0  0
 40 52  1  0  0  0
 40 53  2  0  0  0
 40 58  1  0  0  0
 41109  1  0  0  0
 41110  1  0  0  0
 41111  1  0  0  0
 41 48  1  0  0  0
 42 43  1  0  0  0
 42 66  1  0  0  0
 42112  1  0  0  0
 42113  1  0  0  0
 43 44  1  0  0  0
 44114  1  0  0  0
 45 46  2  0  0  0
 45115  1  0  0  0
 46116  1  0  0  0
 47117  1  0  0  0
 47118  1  0  0  0
 48 56  1  0  0  0
 48 65  1  0  0  0
 48119  1  0  0  0
 49 50  1  0  0  0
 49 53  1  0  0  0
 49 64  1  0  0  0
 49120  1  0  0  0
 50 51  1  0  0  0
 50121  1  0  0  0
 50122  1  0  0  0
 51 52  1  0  0  0
 51123  1  0  0  0
 51124  1  0  0  0
 52125  1  0  0  0
 52126  1  0  0  0
 53 54  1  0  0  0
 54 55  2  0  0  0
 54127  1  0  0  0
 55 57  1  0  0  0
 55128  1  0  0  0
 56 69  2  0  0  0
 57 58  2  0  0  0
 57129  1  0  0  0
 58130  1  0  0  0
 59 60  1  0  0  0
 59 61  1  0  0  0
 59 62  1  0  0  0
 60131  1  0  0  0
 60132  1  0  0  0
 60133  1  0  0  0
 61134  1  0  0  0
 61135  1  0  0  0
 61136  1  0  0  0
 62137  1  0  0  0
 62138  1  0  0  0
 62139  1  0  0  0
 63 65  1  0  0  0
 63140  1  0  0  0
 63141  1  0  0  0
 63142  1  0  0  0
 64143  1  0  0  0
 65144  1  0  0  0
 68 83  1  0  0  0
 71 74  2  0  0  0
 71 75  1  0  0  0
 71145  1  0  0  0
 72 74  1  0  0  0
 72 76  2  0  0  0
 72146  1  0  0  0
 73 75  2  0  0  0
 73 76  1  0  0  0
 73 79  1  0  0  0
 74 82  1  0  0  0
 75 81  1  0  0  0
 76 85  1  0  0  0
 77 79  1  0  0  0
 77 80  1  0  0  0
 77147  1  0  0  0
 77148  1  0  0  0
 78 79  1  0  0  0
 78 80  1  0  0  0
 78149  1  0  0  0
 78150  1  0  0  0
 79151  1  0  0  0
 80 84  1  0  0  0
 80152  1  0  0  0
 81153  1  0  0  0
 81154  1  0  0  0
 81155  1  0  0  0
 82 83  1  0  0  0
 82156  1  0  0  0
 82157  1  0  0  0
 83158  1  0  0  0
 83159  1  0  0  0
 84160  1  0  0  0
M  ISO  4   1 100  68 101  83 101  84 100
M  END
> <chiral flag>
0

> <version>
0

> <s_m_source_file>
/data/baiqing/PycharmProjects/Reinvent-master-3.2/result/LINK_invent/BTK/process_docking_weight1_custom_sum_contain_oxygen_bond_distance_aromatic_linkinvent_7_9_3/rearranged_h_0156.sdf

> <i_m_source_file_index>
14

> <r_mmod_Potential_Energy-OPLS-2005>
21.0014591217041

> <r_mmod_Stretch_Energy-OPLS-2005>
40.1475715637207

> <r_mmod_Bend_Energy-OPLS-2005>
123.241798400879

> <r_mmod_Torsional_Energy-OPLS-2005>
224.433609008789

> <r_mmod_Improper_Torsional_Energy-OPLS-2005>
3.2462637424469

> <r_mmod_Van_der_Waal_Energy-OPLS-2005>
157.461181640625

> <r_mmod_Electrostatic_Energy-OPLS-2005>
-335.577087402344

> <r_mmod_Solvation_Energy-OPLS-2005>
-203.334609985352

> <b_mmod_Minimization_Converged-OPLS-2005>
0

> <r_mmod_RMS_Derivative-OPLS-2005>
0.665913283824921

$$$$
14
                    3D
 Structure written by MMmdl.
170179  0  0  1  0            999 V2000
  -30.7006  -14.4700   20.6143 C   0  0  0  0  0  0
  -30.4162  -12.3191   19.4232 C   0  0  0  0  0  0
  -29.4906  -12.5050   18.2056 C   0  0  0  0  0  0
  -28.0121  -12.3610   18.6167 C   0  0  0  0  0  0
  -27.6535  -13.2079   19.8675 C   0  0  2  0  0  0
  -28.6893  -12.9940   20.9916 C   0  0  0  0  0  0
  -25.2543  -13.8168   20.5677 C   0  0  0  0  0  0
  -24.1797  -13.0429   20.9171 C   0  0  0  0  0  0
  -24.6360  -11.6901   20.8699 C   0  0  0  0  0  0
  -23.9036  -10.4283   21.0370 C   0  0  0  0  0  0
  -24.3596   -9.4205   21.9154 C   0  0  0  0  0  0
  -23.6278   -8.2234   22.0738 C   0  0  0  0  0  0
  -22.4263   -8.0267   21.3527 C   0  0  0  0  0  0
  -21.9888   -9.0227   20.4623 C   0  0  0  0  0  0
  -22.7202  -10.2117   20.3023 C   0  0  0  0  0  0
  -21.6860   -6.0725   22.5275 C   0  0  0  0  0  0
  -21.4016   -6.5636   23.8203 C   0  0  0  0  0  0
  -21.3655   -5.6788   24.9163 C   0  0  0  0  0  0
  -21.6060   -4.3052   24.7224 C   0  0  0  0  0  0
  -21.8813   -3.8133   23.4344 C   0  0  0  0  0  0
  -21.9190   -4.6950   22.3398 C   0  0  0  0  0  0
  -22.7831  -13.5219   21.1867 C   0  0  0  0  0  0
  -22.1661   -4.2135   21.0975 F   0  0  0  0  0  0
  -21.5630   -3.4533   25.7730 F   0  0  0  0  0  0
  -30.0177  -13.3060   20.4396 N   0  0  0  0  0  0
  -26.2960  -12.9328   20.3316 N   0  0  0  0  0  0
  -25.9277  -11.6490   20.5712 N   0  0  0  0  0  0
  -22.0497  -12.8170   22.0423 N   0  0  0  0  0  0
  -25.4304  -15.1875   20.4130 N   0  0  0  0  0  0
  -31.8271  -14.6529   20.1459 O   0  0  0  0  0  0
  -21.6633   -6.8861   21.4232 O   0  0  0  0  0  0
  -22.3495  -14.5520   20.6741 O   0  0  0  0  0  0
  -24.6168  -31.8678   23.2090 C   0  0  0  0  0  0
  -25.9078  -32.4823   23.8364 C   0  0  1  0  0  0
  -27.2245  -27.4125   20.0952 C   0  0  0  0  0  0
  -25.5902  -33.8604   24.2312 N   0  0  0  0  0  0
  -23.4014  -30.4947   21.5537 C   0  0  2  0  0  0
  -24.8461  -28.9609   20.1059 C   0  0  0  0  0  0
  -22.7417  -29.4674   22.5007 C   0  0  0  0  0  0
  -18.0254  -28.1427   22.8450 C   0  0  0  0  0  0
  -24.1482  -36.7327   23.2634 C   0  0  0  0  0  0
  -25.9347  -30.8247   21.3655 C   0  0  0  0  0  0
  -26.0083  -29.4605   20.7069 C   0  0  0  0  0  0
  -27.1998  -28.6961   20.6978 C   0  0  0  0  0  0
  -26.0467  -26.9413   19.4706 C   0  0  0  0  0  0
  -24.8620  -27.7041   19.4785 C   0  0  0  0  0  0
  -23.6058  -29.8279   20.1675 C   0  0  0  0  0  0
  -25.4094  -36.3101   24.0336 C   0  0  1  0  0  0
  -20.5831  -28.3735   23.1297 C   0  0  2  0  0  0
  -20.6766  -26.9464   22.5414 C   0  0  0  0  0  0
  -19.5768  -26.6410   21.5200 C   0  0  0  0  0  0
  -18.1934  -26.7959   22.1594 C   0  0  0  0  0  0
  -19.1493  -28.8888   23.2871 C   0  0  0  0  0  0
  -18.9437  -30.1488   23.8893 C   0  0  0  0  0  0
  -17.6447  -30.6624   24.0571 C   0  0  0  0  0  0
  -25.9023  -34.9477   23.5132 C   0  0  0  0  0  0
  -16.5338  -29.9122   23.6359 C   0  0  0  0  0  0
  -16.7234  -28.6554   23.0332 C   0  0  0  0  0  0
  -26.4485  -31.6601   25.0717 C   0  0  0  0  0  0
  -25.3729  -31.3730   26.1467 C   0  0  0  0  0  0
  -27.0348  -30.3028   24.6158 C   0  0  0  0  0  0
  -27.6025  -32.4354   25.7489 C   0  0  0  0  0  0
  -27.5596  -37.1798   24.8453 C   0  0  0  0  0  0
  -21.4136  -29.3089   22.3735 N   0  0  0  0  0  0
  -26.4296  -37.3776   23.9416 N   0  0  0  0  0  0
  -24.6700  -31.0763   22.1011 N   0  0  0  0  0  0
  -23.4185  -28.8199   23.3055 O   0  0  0  0  0  0
  -28.3848  -26.6571   20.1251 O   0  0  0  0  0  0
  -26.5601  -34.8954   22.4701 O   0  0  0  0  0  0
  -23.5364  -32.1430   23.7503 O   0  0  0  0  0  0
  -29.4111  -18.8650   21.8926 C   0  0  0  0  0  0
  -30.8885  -19.8242   19.7213 C   0  0  0  0  0  0
  -29.2449  -20.2045   21.4661 C   0  0  0  0  0  0
  -30.0139  -20.7239   20.3918 C   0  0  0  0  0  0
  -30.3436  -18.0063   21.2730 C   0  0  0  0  0  0
  -31.0671  -18.4826   20.1573 C   0  0  0  0  0  0
  -28.2782  -21.0986   22.2303 C   0  0  0  0  0  0
  -28.0444  -22.4643   21.5654 C   0  0  0  0  0  0
  -29.8871  -22.2234   19.9757 C   0  0  2  0  0  0
  -31.2101  -22.7971   19.4162 C   0  0  0  0  0  0
  -29.3394  -25.1735   22.4450 C   0  0  0  0  0  0
  -32.1543  -17.6923   18.1725 C   0  0  0  0  0  0
  -30.6518  -16.6336   21.8966 C   0  0  0  0  0  0
  -28.2463  -25.2155   20.1502 C   0  0  0  0  0  0
  -29.3575  -24.5628   21.0266 C   0  0  2  0  0  0
  -30.0467  -15.4397   21.2853 N   0  0  0  0  0  0
  -29.3314  -23.0469   21.1107 N   0  3  1  0  0  0
  -31.9841  -17.6307   19.5838 O   0  0  0  0  0  0
  -31.4602  -12.4240   19.1263 H   0  0  0  0  0  0
  -30.3221  -11.3108   19.8282 H   0  0  0  0  0  0
  -29.7337  -11.7776   17.4303 H   0  0  0  0  0  0
  -29.6563  -13.4899   17.7682 H   0  0  0  0  0  0
  -27.8247  -11.3056   18.8212 H   0  0  0  0  0  0
  -27.3612  -12.6269   17.7831 H   0  0  0  0  0  0
  -27.6969  -14.2545   19.5624 H   0  0  0  0  0  0
  -28.6687  -11.9585   21.3343 H   0  0  0  0  0  0
  -28.4393  -13.5919   21.8684 H   0  0  0  0  0  0
  -25.2740   -9.5699   22.4723 H   0  0  0  0  0  0
  -23.9996   -7.4636   22.7457 H   0  0  0  0  0  0
  -21.0825   -8.8722   19.8927 H   0  0  0  0  0  0
  -22.3637  -10.9645   19.6129 H   0  0  0  0  0  0
  -21.2012   -7.6146   23.9702 H   0  0  0  0  0  0
  -21.1497   -6.0519   25.9069 H   0  0  0  0  0  0
  -22.0602   -2.7597   23.2841 H   0  0  0  0  0  0
  -22.4156  -11.9819   22.4748 H   0  0  0  0  0  0
  -21.1111  -13.1147   22.2666 H   0  0  0  0  0  0
  -24.6747  -15.8510   20.5394 H   0  0  0  0  0  0
  -26.2875  -15.6229   20.0980 H   0  0  0  0  0  0
  -26.7162  -32.5537   23.1126 H   0  0  0  0  0  0
  -24.9972  -33.9696   25.0410 H   0  0  0  0  0  0
  -22.6857  -31.3097   21.4218 H   0  0  0  0  0  0
  -23.3744  -35.9662   23.3272 H   0  0  0  0  0  0
  -24.3531  -36.8956   22.2041 H   0  0  0  0  0  0
  -23.7249  -37.6526   23.6679 H   0  0  0  0  0  0
  -26.0529  -31.5927   20.5990 H   0  0  0  0  0  0
  -26.8158  -30.8684   21.9951 H   0  0  0  0  0  0
  -28.0931  -29.0744   21.1763 H   0  0  0  0  0  0
  -26.0268  -25.9864   18.9650 H   0  0  0  0  0  0
  -23.9738  -27.3170   18.9968 H   0  0  0  0  0  0
  -23.6989  -30.6051   19.4082 H   0  0  0  0  0  0
  -22.7297  -29.2430   19.8861 H   0  0  0  0  0  0
  -25.1269  -36.1937   25.0821 H   0  0  0  0  0  0
  -20.9880  -28.3347   24.1423 H   0  0  0  0  0  0
  -20.5695  -26.2324   23.3590 H   0  0  0  0  0  0
  -21.6647  -26.7534   22.1208 H   0  0  0  0  0  0
  -19.6939  -25.6308   21.1264 H   0  0  0  0  0  0
  -19.6765  -27.3207   20.6725 H   0  0  0  0  0  0
  -17.4203  -26.6664   21.4020 H   0  0  0  0  0  0
  -18.0358  -26.0117   22.9002 H   0  0  0  0  0  0
  -19.7926  -30.7290   24.2265 H   0  0  0  0  0  0
  -17.5024  -31.6290   24.5229 H   0  0  0  0  0  0
  -15.5354  -30.3035   23.7725 H   0  0  0  0  0  0
  -15.8603  -28.0917   22.7020 H   0  0  0  0  0  0
  -24.5863  -30.7132   25.7786 H   0  0  0  0  0  0
  -24.8978  -32.2902   26.4974 H   0  0  0  0  0  0
  -25.8049  -30.8834   27.0199 H   0  0  0  0  0  0
  -26.2931  -29.6739   24.1236 H   0  0  0  0  0  0
  -27.4089  -29.7333   25.4665 H   0  0  0  0  0  0
  -27.8758  -30.4306   23.9340 H   0  0  0  0  0  0
  -27.2613  -33.3623   26.2124 H   0  0  0  0  0  0
  -28.3816  -32.6972   25.0319 H   0  0  0  0  0  0
  -28.0748  -31.8470   26.5375 H   0  0  0  0  0  0
  -28.2585  -38.0132   24.7511 H   0  0  0  0  0  0
  -28.1127  -36.2649   24.6250 H   0  0  0  0  0  0
  -27.2301  -37.1369   25.8851 H   0  0  0  0  0  0
  -20.9311  -29.8764   21.6898 H   0  0  0  0  0  0
  -26.0205  -38.2858   24.1401 H   0  0  0  0  0  0
  -28.8519  -18.5058   22.7464 H   0  0  0  0  0  0
  -31.4750  -20.1763   18.8887 H   0  0  0  0  0  0
  -28.6582  -21.2275   23.2449 H   0  0  0  0  0  0
  -27.3216  -20.5845   22.3270 H   0  0  0  0  0  0
  -27.5294  -23.1073   22.2774 H   0  0  0  0  0  0
  -27.3714  -22.3569   20.7139 H   0  0  0  0  0  0
  -29.1634  -22.2554   19.1603 H   0  0  0  0  0  0
  -31.9881  -22.8189   20.1788 H   0  0  0  0  0  0
  -31.0915  -23.8008   19.0149 H   0  0  0  0  0  0
  -31.5818  -22.2265   18.5678 H   0  0  0  0  0  0
  -29.5409  -26.2448   22.4057 H   0  0  0  0  0  0
  -30.1014  -24.7376   23.0919 H   0  0  0  0  0  0
  -28.3753  -25.0557   22.9390 H   0  0  0  0  0  0
  -32.8494  -16.9082   17.8682 H   0  0  0  0  0  0
  -32.5797  -18.6379   17.8352 H   0  0  0  0  0  0
  -31.2094  -17.5104   17.6564 H   0  0  0  0  0  0
  -30.3172  -16.6528   22.9349 H   0  0  0  0  0  0
  -31.7361  -16.5215   21.9550 H   0  0  0  0  0  0
  -27.2810  -24.9291   20.5698 H   0  0  0  0  0  0
  -28.2749  -24.8395   19.1271 H   0  0  0  0  0  0
  -30.3134  -24.8901   20.6258 H   0  0  0  0  0  0
  -29.1021  -15.2244   21.5672 H   0  0  0  0  0  0
  -29.9689  -22.8410   21.8663 H   0  0  0  0  0  0
  1 25  1  0  0  0
  1 30  2  0  0  0
  1 86  1  0  0  0
  2  3  1  0  0  0
  2 25  1  0  0  0
  2 89  1  0  0  0
  2 90  1  0  0  0
  3  4  1  0  0  0
  3 91  1  0  0  0
  3 92  1  0  0  0
  4  5  1  0  0  0
  4 93  1  0  0  0
  4 94  1  0  0  0
  5  6  1  0  0  0
  5 26  1  0  0  0
  5 95  1  0  0  0
  6 25  1  0  0  0
  6 96  1  0  0  0
  6 97  1  0  0  0
  7  8  2  0  0  0
  7 26  1  0  0  0
  7 29  1  0  0  0
  8  9  1  0  0  0
  8 22  1  0  0  0
  9 10  1  0  0  0
  9 27  2  0  0  0
 10 11  2  0  0  0
 10 15  1  0  0  0
 11 12  1  0  0  0
 11 98  1  0  0  0
 12 13  2  0  0  0
 12 99  1  0  0  0
 13 14  1  0  0  0
 13 31  1  0  0  0
 14 15  2  0  0  0
 14100  1  0  0  0
 15101  1  0  0  0
 16 17  2  0  0  0
 16 21  1  0  0  0
 16 31  1  0  0  0
 17 18  1  0  0  0
 17102  1  0  0  0
 18 19  2  0  0  0
 18103  1  0  0  0
 19 20  1  0  0  0
 19 24  1  0  0  0
 20 21  2  0  0  0
 20104  1  0  0  0
 21 23  1  0  0  0
 22 28  1  0  0  0
 22 32  2  0  0  0
 26 27  1  0  0  0
 28105  1  0  0  0
 28106  1  0  0  0
 29107  1  0  0  0
 29108  1  0  0  0
 33 34  1  0  0  0
 33 66  1  0  0  0
 33 70  2  0  0  0
 34 36  1  0  0  0
 34 59  1  0  0  0
 34109  1  0  0  0
 35 44  2  0  0  0
 35 45  1  0  0  0
 35 68  1  0  0  0
 36 56  1  0  0  0
 36110  1  0  0  0
 37 39  1  0  0  0
 37 47  1  0  0  0
 37 66  1  0  0  0
 37111  1  0  0  0
 38 43  2  0  0  0
 38 46  1  0  0  0
 38 47  1  0  0  0
 39 64  1  0  0  0
 39 67  2  0  0  0
 40 52  1  0  0  0
 40 53  2  0  0  0
 40 58  1  0  0  0
 41112  1  0  0  0
 41113  1  0  0  0
 41114  1  0  0  0
 41 48  1  0  0  0
 42 43  1  0  0  0
 42 66  1  0  0  0
 42115  1  0  0  0
 42116  1  0  0  0
 43 44  1  0  0  0
 44117  1  0  0  0
 45 46  2  0  0  0
 45118  1  0  0  0
 46119  1  0  0  0
 47120  1  0  0  0
 47121  1  0  0  0
 48 56  1  0  0  0
 48 65  1  0  0  0
 48122  1  0  0  0
 49 50  1  0  0  0
 49 53  1  0  0  0
 49 64  1  0  0  0
 49123  1  0  0  0
 50 51  1  0  0  0
 50124  1  0  0  0
 50125  1  0  0  0
 51 52  1  0  0  0
 51126  1  0  0  0
 51127  1  0  0  0
 52128  1  0  0  0
 52129  1  0  0  0
 53 54  1  0  0  0
 54 55  2  0  0  0
 54130  1  0  0  0
 55 57  1  0  0  0
 55131  1  0  0  0
 56 69  2  0  0  0
 57 58  2  0  0  0
 57132  1  0  0  0
 58133  1  0  0  0
 59 60  1  0  0  0
 59 61  1  0  0  0
 59 62  1  0  0  0
 60134  1  0  0  0
 60135  1  0  0  0
 60136  1  0  0  0
 61137  1  0  0  0
 61138  1  0  0  0
 61139  1  0  0  0
 62140  1  0  0  0
 62141  1  0  0  0
 62142  1  0  0  0
 63 65  1  0  0  0
 63143  1  0  0  0
 63144  1  0  0  0
 63145  1  0  0  0
 64146  1  0  0  0
 65147  1  0  0  0
 68 84  1  0  0  0
 71 73  2  0  0  0
 71 75  1  0  0  0
 71148  1  0  0  0
 72 74  2  0  0  0
 72 76  1  0  0  0
 72149  1  0  0  0
 73 74  1  0  0  0
 73 77  1  0  0  0
 74 79  1  0  0  0
 75 76  2  0  0  0
 75 83  1  0  0  0
 76 88  1  0  0  0
 77 78  1  0  0  0
 77150  1  0  0  0
 77151  1  0  0  0
 78152  1  0  0  0
 78153  1  0  0  0
 78 87  1  0  0  0
 79 80  1  0  0  0
 79 87  1  0  0  0
 79154  1  0  0  0
 80155  1  0  0  0
 80156  1  0  0  0
 80157  1  0  0  0
 81158  1  0  0  0
 81159  1  0  0  0
 81160  1  0  0  0
 81 85  1  0  0  0
 82 88  1  0  0  0
 82161  1  0  0  0
 82162  1  0  0  0
 82163  1  0  0  0
 83 86  1  0  0  0
 83164  1  0  0  0
 83165  1  0  0  0
 84 85  1  0  0  0
 84166  1  0  0  0
 84167  1  0  0  0
 85 87  1  0  0  0
 85168  1  0  0  0
 86169  1  0  0  0
 87170  1  0  0  0
M  CHG  1  87   1
M  ISO  4   1 100  68 101  84 101  86 100
M  END
> <chiral flag>
0

> <version>
0

> <s_m_source_file>
/data/baiqing/PycharmProjects/Reinvent-master-3.2/result/LINK_invent/BTK/process_docking_weight1_custom_sum_contain_oxygen_bond_distance_aromatic_linkinvent_7_9_3/rearranged_h_0156.sdf

> <i_m_source_file_index>
15

> <r_mmod_Potential_Energy-OPLS-2005>
-116.580337524414

> <r_mmod_Stretch_Energy-OPLS-2005>
50.0939445495605

> <r_mmod_Bend_Energy-OPLS-2005>
118.654006958008

> <r_mmod_Torsional_Energy-OPLS-2005>
250.659851074219

> <r_mmod_Improper_Torsional_Energy-OPLS-2005>
2.98098421096802

> <r_mmod_Van_der_Waal_Energy-OPLS-2005>
166.735458374023

> <r_mmod_Electrostatic_Energy-OPLS-2005>
-290.441619873047

> <r_mmod_Solvation_Energy-OPLS-2005>
-430.698699951172

> <b_mmod_Minimization_Converged-OPLS-2005>
0

> <r_mmod_RMS_Derivative-OPLS-2005>
3.65401268005371

$$$$
15
                    3D
 Structure written by MMmdl.
177187  0  0  1  0            999 V2000
  -30.7536  -14.4200   20.6660 C   0  0  0  0  0  0
  -30.4196  -12.3169   19.4051 C   0  0  0  0  0  0
  -29.4857  -12.5224   18.1966 C   0  0  0  0  0  0
  -28.0108  -12.3598   18.6113 C   0  0  0  0  0  0
  -27.6615  -13.1900   19.8721 C   0  0  2  0  0  0
  -28.7042  -12.9451   20.9904 C   0  0  0  0  0  0
  -25.2607  -13.8125   20.5663 C   0  0  0  0  0  0
  -24.1839  -13.0431   20.9175 C   0  0  0  0  0  0
  -24.6369  -11.6890   20.8742 C   0  0  0  0  0  0
  -23.9035  -10.4288   21.0415 C   0  0  0  0  0  0
  -24.3602   -9.4205   21.9188 C   0  0  0  0  0  0
  -23.6286   -8.2238   22.0754 C   0  0  0  0  0  0
  -22.4267   -8.0276   21.3548 C   0  0  0  0  0  0
  -21.9897   -9.0244   20.4648 C   0  0  0  0  0  0
  -22.7218  -10.2126   20.3057 C   0  0  0  0  0  0
  -21.6850   -6.0732   22.5282 C   0  0  0  0  0  0
  -21.4007   -6.5634   23.8215 C   0  0  0  0  0  0
  -21.3657   -5.6784   24.9177 C   0  0  0  0  0  0
  -21.6045   -4.3049   24.7225 C   0  0  0  0  0  0
  -21.8822   -3.8142   23.4347 C   0  0  0  0  0  0
  -21.9194   -4.6960   22.3404 C   0  0  0  0  0  0
  -22.7866  -13.5254   21.1842 C   0  0  0  0  0  0
  -22.1661   -4.2148   21.0984 F   0  0  0  0  0  0
  -21.5634   -3.4532   25.7735 F   0  0  0  0  0  0
  -30.0375  -13.2755   20.4584 N   0  0  0  0  0  0
  -26.3017  -12.9255   20.3341 N   0  0  0  0  0  0
  -25.9286  -11.6436   20.5754 N   0  0  0  0  0  0
  -22.0492  -12.8254   22.0389 N   0  0  0  0  0  0
  -25.4354  -15.1835   20.4047 N   0  0  0  0  0  0
  -31.8041  -14.6479   20.0556 O   0  0  0  0  0  0
  -21.6636   -6.8871   21.4244 O   0  0  0  0  0  0
  -22.3565  -14.5570   20.6698 O   0  0  0  0  0  0
  -24.6089  -31.8705   23.2130 C   0  0  0  0  0  0
  -25.9001  -32.4837   23.8414 C   0  0  1  0  0  0
  -27.2528  -27.4681   20.1004 C   0  0  0  0  0  0
  -25.5876  -33.8634   24.2346 N   0  0  0  0  0  0
  -23.3965  -30.4924   21.5512 C   0  0  2  0  0  0
  -24.8483  -28.9596   20.1193 C   0  0  0  0  0  0
  -22.7384  -29.4663   22.5005 C   0  0  0  0  0  0
  -18.0261  -28.1379   22.8495 C   0  0  0  0  0  0
  -24.1481  -36.7321   23.2634 C   0  0  0  0  0  0
  -25.9189  -30.8461   21.3623 C   0  0  0  0  0  0
  -26.0009  -29.4791   20.7203 C   0  0  0  0  0  0
  -27.2020  -28.7396   20.7221 C   0  0  0  0  0  0
  -26.0837  -26.9603   19.4973 C   0  0  0  0  0  0
  -24.8812  -27.6936   19.5087 C   0  0  0  0  0  0
  -23.6059  -29.8205   20.1666 C   0  0  0  0  0  0
  -25.4098  -36.3121   24.0345 C   0  0  1  0  0  0
  -20.5850  -28.3653   23.1334 C   0  0  2  0  0  0
  -20.6753  -26.9394   22.5429 C   0  0  0  0  0  0
  -19.5739  -26.6385   21.5219 C   0  0  0  0  0  0
  -18.1908  -26.7932   22.1613 C   0  0  0  0  0  0
  -19.1511  -28.8831   23.2913 C   0  0  0  0  0  0
  -18.9443  -30.1441   23.8916 C   0  0  0  0  0  0
  -17.6450  -30.6589   24.0562 C   0  0  0  0  0  0
  -25.9024  -34.9485   23.5143 C   0  0  0  0  0  0
  -16.5338  -29.9091   23.6328 C   0  0  0  0  0  0
  -16.7252  -28.6510   23.0348 C   0  0  0  0  0  0
  -26.4459  -31.6602   25.0719 C   0  0  0  0  0  0
  -25.3750  -31.3709   26.1490 C   0  0  0  0  0  0
  -27.0276  -30.3045   24.6059 C   0  0  0  0  0  0
  -27.6050  -32.4314   25.7468 C   0  0  0  0  0  0
  -27.5592  -37.1792   24.8447 C   0  0  0  0  0  0
  -21.4115  -29.3025   22.3745 N   0  0  0  0  0  0
  -26.4280  -37.3810   23.9429 N   0  0  0  0  0  0
  -24.6591  -31.0836   22.1014 N   0  0  0  0  0  0
  -23.4174  -28.8212   23.3038 O   0  0  0  0  0  0
  -28.3794  -26.6788   20.0212 O   0  0  0  0  0  0
  -26.5587  -34.8932   22.4703 O   0  0  0  0  0  0
  -23.5292  -32.1439   23.7547 O   0  0  0  0  0  0
  -29.8103  -23.6851   20.1710 C   0  0  0  0  0  0
  -30.4870  -22.8871   22.7664 C   0  0  0  0  0  0
  -30.3814  -24.6326   21.0501 C   0  0  0  0  0  0
  -30.7179  -24.2203   22.3645 C   0  0  0  0  0  0
  -29.9223  -21.9471   21.8792 C   0  0  0  0  0  0
  -29.5841  -22.3415   20.5655 C   0  0  0  0  0  0
  -31.3775  -26.1964   19.2235 C   0  0  0  0  0  0
  -32.0732  -26.5578   20.5060 C   0  0  0  0  0  0
  -31.6961  -17.2929   22.2074 C   0  0  0  0  0  0
  -29.3445  -17.4683   21.3622 C   0  0  0  0  0  0
  -31.4108  -15.8189   22.5831 C   0  0  0  0  0  0
  -29.1324  -15.9898   21.7508 C   0  0  0  0  0  0
  -30.4084  -18.1423   22.2538 C   0  0  0  0  0  0
  -30.6482  -26.0366   20.5454 C   0  0  0  0  0  0
  -31.3409  -25.1828   23.3629 C   0  0  0  0  0  0
  -28.7364  -21.7400   18.3960 C   0  0  0  0  0  0
  -29.6474  -20.5221   22.3561 C   0  0  0  0  0  0
  -29.4994  -26.9987   20.8382 C   0  0  0  0  0  0
  -30.3892  -15.2183   21.7067 N   0  0  0  0  0  0
  -30.6571  -19.5559   21.8683 N   0  3  0  0  0  0
  -29.0569  -21.3758   19.7337 O   0  0  0  0  0  0
  -31.4611  -12.4225   19.0961 H   0  0  0  0  0  0
  -30.3326  -11.2972   19.7828 H   0  0  0  0  0  0
  -29.7321  -11.8127   17.4057 H   0  0  0  0  0  0
  -29.6422  -13.5169   17.7749 H   0  0  0  0  0  0
  -27.8294  -11.3009   18.8011 H   0  0  0  0  0  0
  -27.3544  -12.6352   17.7845 H   0  0  0  0  0  0
  -27.7067  -14.2319   19.5615 H   0  0  0  0  0  0
  -28.6879  -11.8954   21.2870 H   0  0  0  0  0  0
  -28.4523  -13.4855   21.9016 H   0  0  0  0  0  0
  -25.2751   -9.5682   22.4753 H   0  0  0  0  0  0
  -24.0003   -7.4624   22.7463 H   0  0  0  0  0  0
  -21.0832   -8.8754   19.8952 H   0  0  0  0  0  0
  -22.3681  -10.9658   19.6157 H   0  0  0  0  0  0
  -21.1989   -7.6140   23.9718 H   0  0  0  0  0  0
  -21.1475   -6.0511   25.9078 H   0  0  0  0  0  0
  -22.0603   -2.7604   23.2842 H   0  0  0  0  0  0
  -22.4082  -11.9906   22.4779 H   0  0  0  0  0  0
  -21.1114  -13.1296   22.2590 H   0  0  0  0  0  0
  -24.6706  -15.8408   20.5120 H   0  0  0  0  0  0
  -26.2867  -15.6183   20.0733 H   0  0  0  0  0  0
  -26.7072  -32.5580   23.1190 H   0  0  0  0  0  0
  -25.0036  -33.9803   25.0497 H   0  0  0  0  0  0
  -22.6838  -31.3076   21.4110 H   0  0  0  0  0  0
  -23.3752  -35.9642   23.3282 H   0  0  0  0  0  0
  -24.3586  -36.8946   22.2052 H   0  0  0  0  0  0
  -23.7216  -37.6518   23.6651 H   0  0  0  0  0  0
  -26.0210  -31.6082   20.5886 H   0  0  0  0  0  0
  -26.8100  -30.9095   21.9747 H   0  0  0  0  0  0
  -28.0741  -29.1667   21.1949 H   0  0  0  0  0  0
  -26.1077  -25.9913   19.0188 H   0  0  0  0  0  0
  -23.9954  -27.2850   19.0419 H   0  0  0  0  0  0
  -23.7085  -30.5924   19.4032 H   0  0  0  0  0  0
  -22.7333  -29.2337   19.8745 H   0  0  0  0  0  0
  -25.1268  -36.1981   25.0836 H   0  0  0  0  0  0
  -20.9939  -28.3209   24.1455 H   0  0  0  0  0  0
  -20.5653  -26.2259   23.3612 H   0  0  0  0  0  0
  -21.6624  -26.7440   22.1217 H   0  0  0  0  0  0
  -19.6899  -25.6299   21.1239 H   0  0  0  0  0  0
  -19.6695  -27.3204   20.6759 H   0  0  0  0  0  0
  -17.4195  -26.6701   21.3997 H   0  0  0  0  0  0
  -18.0286  -26.0059   22.8987 H   0  0  0  0  0  0
  -19.7922  -30.7246   24.2294 H   0  0  0  0  0  0
  -17.5011  -31.6274   24.5153 H   0  0  0  0  0  0
  -15.5341  -30.3004   23.7650 H   0  0  0  0  0  0
  -15.8647  -28.0841   22.7054 H   0  0  0  0  0  0
  -24.5904  -30.7068   25.7847 H   0  0  0  0  0  0
  -24.8963  -32.2869   26.4965 H   0  0  0  0  0  0
  -25.8123  -30.8868   27.0230 H   0  0  0  0  0  0
  -26.2795  -29.6817   24.1137 H   0  0  0  0  0  0
  -27.4082  -29.7269   25.4492 H   0  0  0  0  0  0
  -27.8619  -30.4371   23.9167 H   0  0  0  0  0  0
  -27.2675  -33.3602   26.2084 H   0  0  0  0  0  0
  -28.3837  -32.6893   25.0279 H   0  0  0  0  0  0
  -28.0742  -31.8416   26.5353 H   0  0  0  0  0  0
  -28.2561  -38.0138   24.7574 H   0  0  0  0  0  0
  -28.1136  -36.2678   24.6160 H   0  0  0  0  0  0
  -27.2335  -37.1297   25.8851 H   0  0  0  0  0  0
  -20.9267  -29.8758   21.6982 H   0  0  0  0  0  0
  -26.0174  -38.2876   24.1492 H   0  0  0  0  0  0
  -29.5590  -24.0209   19.1757 H   0  0  0  0  0  0
  -30.7432  -22.5830   23.7725 H   0  0  0  0  0  0
  -31.7183  -25.2998   18.7103 H   0  0  0  0  0  0
  -31.0839  -27.0199   18.5746 H   0  0  0  0  0  0
  -32.2380  -27.6168   20.6947 H   0  0  0  0  0  0
  -32.8732  -25.8979   20.8356 H   0  0  0  0  0  0
  -32.1373  -17.3331   21.2102 H   0  0  0  0  0  0
  -32.4417  -17.7015   22.8911 H   0  0  0  0  0  0
  -28.3911  -17.9924   21.4369 H   0  0  0  0  0  0
  -29.6433  -17.5266   20.3142 H   0  0  0  0  0  0
  -31.0626  -15.7578   23.6151 H   0  0  0  0  0  0
  -32.3386  -15.2431   22.5543 H   0  0  0  0  0  0
  -28.3766  -15.5862   21.0861 H   0  0  0  0  0  0
  -28.7136  -15.9218   22.7560 H   0  0  0  0  0  0
  -30.0528  -18.1351   23.2861 H   0  0  0  0  0  0
  -31.2570  -24.8055   24.3824 H   0  0  0  0  0  0
  -30.8565  -26.1581   23.3394 H   0  0  0  0  0  0
  -32.4002  -25.3207   23.1473 H   0  0  0  0  0  0
  -28.3508  -20.8691   17.8657 H   0  0  0  0  0  0
  -29.6170  -22.0889   17.8548 H   0  0  0  0  0  0
  -27.9649  -22.5105   18.3650 H   0  0  0  0  0  0
  -28.6507  -20.2302   22.0255 H   0  0  0  0  0  0
  -29.6231  -20.5017   23.4466 H   0  0  0  0  0  0
  -29.8399  -28.0110   20.6185 H   0  0  0  0  0  0
  -29.2307  -26.9552   21.8942 H   0  0  0  0  0  0
  -30.7187  -19.6330   20.8660 H   0  0  0  0  0  0
  -31.5428  -19.8431   22.2515 H   0  0  0  0  0  0
  1 25  1  0  0  0
  1 30  2  0  0  0
  1 89  1  0  0  0
  2  3  1  0  0  0
  2 25  1  0  0  0
  2 92  1  0  0  0
  2 93  1  0  0  0
  3  4  1  0  0  0
  3 94  1  0  0  0
  3 95  1  0  0  0
  4  5  1  0  0  0
  4 96  1  0  0  0
  4 97  1  0  0  0
  5  6  1  0  0  0
  5 26  1  0  0  0
  5 98  1  0  0  0
  6 25  1  0  0  0
  6 99  1  0  0  0
  6100  1  0  0  0
  7  8  2  0  0  0
  7 26  1  0  0  0
  7 29  1  0  0  0
  8  9  1  0  0  0
  8 22  1  0  0  0
  9 10  1  0  0  0
  9 27  2  0  0  0
 10 11  2  0  0  0
 10 15  1  0  0  0
 11 12  1  0  0  0
 11101  1  0  0  0
 12 13  2  0  0  0
 12102  1  0  0  0
 13 14  1  0  0  0
 13 31  1  0  0  0
 14 15  2  0  0  0
 14103  1  0  0  0
 15104  1  0  0  0
 16 17  2  0  0  0
 16 21  1  0  0  0
 16 31  1  0  0  0
 17 18  1  0  0  0
 17105  1  0  0  0
 18 19  2  0  0  0
 18106  1  0  0  0
 19 20  1  0  0  0
 19 24  1  0  0  0
 20 21  2  0  0  0
 20107  1  0  0  0
 21 23  1  0  0  0
 22 28  1  0  0  0
 22 32  2  0  0  0
 26 27  1  0  0  0
 28108  1  0  0  0
 28109  1  0  0  0
 29110  1  0  0  0
 29111  1  0  0  0
 33 34  1  0  0  0
 33 66  1  0  0  0
 33 70  2  0  0  0
 34 36  1  0  0  0
 34 59  1  0  0  0
 34112  1  0  0  0
 35 44  2  0  0  0
 35 45  1  0  0  0
 35 68  1  0  0  0
 36 56  1  0  0  0
 36113  1  0  0  0
 37 39  1  0  0  0
 37 47  1  0  0  0
 37 66  1  0  0  0
 37114  1  0  0  0
 38 43  2  0  0  0
 38 46  1  0  0  0
 38 47  1  0  0  0
 39 64  1  0  0  0
 39 67  2  0  0  0
 40 52  1  0  0  0
 40 53  2  0  0  0
 40 58  1  0  0  0
 41115  1  0  0  0
 41116  1  0  0  0
 41117  1  0  0  0
 41 48  1  0  0  0
 42 43  1  0  0  0
 42 66  1  0  0  0
 42118  1  0  0  0
 42119  1  0  0  0
 43 44  1  0  0  0
 44120  1  0  0  0
 45 46  2  0  0  0
 45121  1  0  0  0
 46122  1  0  0  0
 47123  1  0  0  0
 47124  1  0  0  0
 48 56  1  0  0  0
 48 65  1  0  0  0
 48125  1  0  0  0
 49 50  1  0  0  0
 49 53  1  0  0  0
 49 64  1  0  0  0
 49126  1  0  0  0
 50 51  1  0  0  0
 50127  1  0  0  0
 50128  1  0  0  0
 51 52  1  0  0  0
 51129  1  0  0  0
 51130  1  0  0  0
 52131  1  0  0  0
 52132  1  0  0  0
 53 54  1  0  0  0
 54 55  2  0  0  0
 54133  1  0  0  0
 55 57  1  0  0  0
 55134  1  0  0  0
 56 69  2  0  0  0
 57 58  2  0  0  0
 57135  1  0  0  0
 58136  1  0  0  0
 59 60  1  0  0  0
 59 61  1  0  0  0
 59 62  1  0  0  0
 60137  1  0  0  0
 60138  1  0  0  0
 60139  1  0  0  0
 61140  1  0  0  0
 61141  1  0  0  0
 61142  1  0  0  0
 62143  1  0  0  0
 62144  1  0  0  0
 62145  1  0  0  0
 63 65  1  0  0  0
 63146  1  0  0  0
 63147  1  0  0  0
 63148  1  0  0  0
 64149  1  0  0  0
 65150  1  0  0  0
 68 88  1  0  0  0
 71 73  2  0  0  0
 71 76  1  0  0  0
 71151  1  0  0  0
 72 74  2  0  0  0
 72 75  1  0  0  0
 72152  1  0  0  0
 73 74  1  0  0  0
 73 84  1  0  0  0
 74 85  1  0  0  0
 75 76  2  0  0  0
 75 87  1  0  0  0
 76 91  1  0  0  0
 77 78  1  0  0  0
 77 84  1  0  0  0
 77153  1  0  0  0
 77154  1  0  0  0
 78 84  1  0  0  0
 78155  1  0  0  0
 78156  1  0  0  0
 79 81  1  0  0  0
 79 83  1  0  0  0
 79157  1  0  0  0
 79158  1  0  0  0
 80 82  1  0  0  0
 80 83  1  0  0  0
 80159  1  0  0  0
 80160  1  0  0  0
 81 89  1  0  0  0
 81161  1  0  0  0
 81162  1  0  0  0
 82 89  1  0  0  0
 82163  1  0  0  0
 82164  1  0  0  0
 83 90  1  0  0  0
 83165  1  0  0  0
 84 88  1  0  0  0
 85166  1  0  0  0
 85167  1  0  0  0
 85168  1  0  0  0
 86 91  1  0  0  0
 86169  1  0  0  0
 86170  1  0  0  0
 86171  1  0  0  0
 87 90  1  0  0  0
 87172  1  0  0  0
 87173  1  0  0  0
 88174  1  0  0  0
 88175  1  0  0  0
 90176  1  0  0  0
 90177  1  0  0  0
M  CHG  1  90   1
M  ISO  4   1 100  68 101  88 101  89 100
M  END
> <chiral flag>
0

> <version>
0

> <s_m_source_file>
/data/baiqing/PycharmProjects/Reinvent-master-3.2/result/LINK_invent/BTK/process_docking_weight1_custom_sum_contain_oxygen_bond_distance_aromatic_linkinvent_7_9_3/rearranged_h_0156.sdf

> <i_m_source_file_index>
16

> <r_mmod_Potential_Energy-OPLS-2005>
-18.5059356689453

> <r_mmod_Stretch_Energy-OPLS-2005>
39.7384872436523

> <r_mmod_Bend_Energy-OPLS-2005>
112.523788452148

> <r_mmod_Torsional_Energy-OPLS-2005>
327.502624511719

> <r_mmod_Improper_Torsional_Energy-OPLS-2005>
5.66559934616089

> <r_mmod_Van_der_Waal_Energy-OPLS-2005>
161.69319152832

> <r_mmod_Electrostatic_Energy-OPLS-2005>
-249.069076538086

> <r_mmod_Solvation_Energy-OPLS-2005>
-424.11181640625

> <b_mmod_Minimization_Converged-OPLS-2005>
0

> <r_mmod_RMS_Derivative-OPLS-2005>
0.829485237598419

$$$$
16
                    3D
 Structure written by MMmdl.
171180  0  0  1  0            999 V2000
  -30.6748  -14.6705   20.4864 C   0  0  0  0  0  0
  -30.4232  -12.4160   19.4599 C   0  0  0  0  0  0
  -29.5035  -12.5095   18.2243 C   0  0  0  0  0  0
  -28.0260  -12.3485   18.6352 C   0  0  0  0  0  0
  -27.6469  -13.2282   19.8580 C   0  0  2  0  0  0
  -28.6963  -13.1159   20.9861 C   0  0  0  0  0  0
  -25.2533  -13.8184   20.5715 C   0  0  0  0  0  0
  -24.1814  -13.0438   20.9203 C   0  0  0  0  0  0
  -24.6391  -11.6906   20.8736 C   0  0  0  0  0  0
  -23.9062  -10.4288   21.0405 C   0  0  0  0  0  0
  -24.3616   -9.4206   21.9184 C   0  0  0  0  0  0
  -23.6294   -8.2236   22.0745 C   0  0  0  0  0  0
  -22.4280   -8.0270   21.3537 C   0  0  0  0  0  0
  -21.9917   -9.0246   20.4650 C   0  0  0  0  0  0
  -22.7237  -10.2126   20.3057 C   0  0  0  0  0  0
  -21.6852   -6.0721   22.5265 C   0  0  0  0  0  0
  -21.4021   -6.5627   23.8197 C   0  0  0  0  0  0
  -21.3660   -5.6785   24.9162 C   0  0  0  0  0  0
  -21.6046   -4.3045   24.7219 C   0  0  0  0  0  0
  -21.8820   -3.8130   23.4337 C   0  0  0  0  0  0
  -21.9201   -4.6950   22.3392 C   0  0  0  0  0  0
  -22.7839  -13.5227   21.1853 C   0  0  0  0  0  0
  -22.1672   -4.2132   21.0974 F   0  0  0  0  0  0
  -21.5630   -3.4531   25.7730 F   0  0  0  0  0  0
  -29.9975  -13.4738   20.4040 N   0  0  0  0  0  0
  -26.2970  -12.9388   20.3341 N   0  0  0  0  0  0
  -25.9331  -11.6527   20.5767 N   0  0  0  0  0  0
  -22.0484  -12.8231   22.0411 N   0  0  0  0  0  0
  -25.4233  -15.1908   20.4142 N   0  0  0  0  0  0
  -31.8565  -14.7141   20.1283 O   0  0  0  0  0  0
  -21.6649   -6.8867   21.4226 O   0  0  0  0  0  0
  -22.3539  -14.5531   20.6688 O   0  0  0  0  0  0
  -24.6262  -31.8582   23.2009 C   0  0  0  0  0  0
  -25.9122  -32.4764   23.8329 C   0  0  1  0  0  0
  -27.2245  -27.3247   20.1220 C   0  0  0  0  0  0
  -25.5941  -33.8573   24.2272 N   0  0  0  0  0  0
  -23.4179  -30.4811   21.5447 C   0  0  2  0  0  0
  -24.8629  -28.9240   20.1202 C   0  0  0  0  0  0
  -22.7456  -29.4617   22.4953 C   0  0  0  0  0  0
  -18.0287  -28.1363   22.8494 C   0  0  0  0  0  0
  -24.1485  -36.7294   23.2633 C   0  0  0  0  0  0
  -25.9564  -30.7896   21.3673 C   0  0  0  0  0  0
  -26.0311  -29.4123   20.7209 C   0  0  0  0  0  0
  -27.2197  -28.6254   20.7097 C   0  0  0  0  0  0
  -26.0361  -26.8715   19.5162 C   0  0  0  0  0  0
  -24.8661  -27.6580   19.5076 C   0  0  0  0  0  0
  -23.6317  -29.8084   20.1628 C   0  0  0  0  0  0
  -25.4113  -36.3088   24.0328 C   0  0  1  0  0  0
  -20.5879  -28.3668   23.1293 C   0  0  2  0  0  0
  -20.6767  -26.9392   22.5412 C   0  0  0  0  0  0
  -19.5744  -26.6373   21.5204 C   0  0  0  0  0  0
  -18.1929  -26.7909   22.1619 C   0  0  0  0  0  0
  -19.1540  -28.8835   23.2883 C   0  0  0  0  0  0
  -18.9455  -30.1445   23.8884 C   0  0  0  0  0  0
  -17.6456  -30.6567   24.0561 C   0  0  0  0  0  0
  -25.9060  -34.9452   23.5097 C   0  0  0  0  0  0
  -16.5351  -29.9064   23.6321 C   0  0  0  0  0  0
  -16.7275  -28.6481   23.0348 C   0  0  0  0  0  0
  -26.4517  -31.6568   25.0697 C   0  0  0  0  0  0
  -25.3771  -31.3690   26.1437 C   0  0  0  0  0  0
  -27.0333  -30.2988   24.6135 C   0  0  0  0  0  0
  -27.6077  -32.4292   25.7465 C   0  0  0  0  0  0
  -27.5580  -37.1802   24.8466 C   0  0  0  0  0  0
  -21.4177  -29.3029   22.3698 N   0  0  0  0  0  0
  -26.4293  -37.3788   23.9415 N   0  0  0  0  0  0
  -24.6857  -31.0615   22.0950 N   0  0  0  0  0  0
  -23.4173  -28.8183   23.3053 O   0  0  0  0  0  0
  -28.3621  -26.5214   20.0239 O   0  0  0  0  0  0
  -26.5628  -34.8923   22.4662 O   0  0  0  0  0  0
  -23.5438  -32.1374   23.7367 O   0  0  0  0  0  0
  -31.8646  -19.3573   21.4312 C   0  0  0  0  0  0
  -30.6621  -19.6755   20.7631 C   0  0  0  0  0  0
  -32.7873  -21.5591   21.0455 C   0  0  0  0  0  0
  -31.5951  -21.9339   20.3625 C   0  0  0  0  0  0
  -32.8872  -20.2861   21.6274 C   0  0  0  0  0  0
  -30.4434  -21.0614   20.3448 C   0  0  0  0  0  0
  -29.2156  -17.7971   21.8775 C   0  0  0  0  0  0
  -29.0722  -16.2681   21.6536 C   0  0  0  0  0  0
  -30.4073  -17.1451   19.9117 C   0  0  0  0  0  0
  -29.7296  -18.4202   20.5696 C   0  0  2  0  0  0
  -33.9883  -22.5004   21.1657 C   0  0  0  0  0  0
  -31.6430  -23.2510   19.5896 C   0  0  0  0  0  0
  -33.8472  -20.0896   23.7289 C   0  0  0  0  0  0
  -28.0116  -23.8738   20.5797 C   0  0  0  0  0  0
  -28.5250  -25.3538   20.9010 C   0  0  0  0  0  0
  -28.7154  -22.8599   19.5725 C   0  0  0  0  0  0
  -29.9687  -15.8647   20.5658 N   0  0  0  0  0  0
  -34.0010  -19.9114   22.3289 O   0  0  0  0  0  0
  -29.1487  -21.4928   19.9713 O   0  0  0  0  0  0
  -31.4671  -12.5104   19.1552 H   0  0  0  0  0  0
  -30.3465  -11.4326   19.9257 H   0  0  0  0  0  0
  -29.7742  -11.7455   17.4942 H   0  0  0  0  0  0
  -29.6455  -13.4711   17.7270 H   0  0  0  0  0  0
  -27.8660  -11.2964   18.8737 H   0  0  0  0  0  0
  -27.3709  -12.5696   17.7918 H   0  0  0  0  0  0
  -27.6558  -14.2615   19.5079 H   0  0  0  0  0  0
  -28.7295  -12.1004   21.3843 H   0  0  0  0  0  0
  -28.4359  -13.7481   21.8315 H   0  0  0  0  0  0
  -25.2750   -9.5686   22.4775 H   0  0  0  0  0  0
  -24.0000   -7.4627   22.7457 H   0  0  0  0  0  0
  -21.0843   -8.8760   19.8964 H   0  0  0  0  0  0
  -22.3679  -10.9669   19.6173 H   0  0  0  0  0  0
  -21.2022   -7.6134   23.9698 H   0  0  0  0  0  0
  -21.1488   -6.0512   25.9066 H   0  0  0  0  0  0
  -22.0609   -2.7590   23.2835 H   0  0  0  0  0  0
  -22.4099  -11.9902   22.4819 H   0  0  0  0  0  0
  -21.1094  -13.1248   22.2590 H   0  0  0  0  0  0
  -24.6608  -15.8476   20.5368 H   0  0  0  0  0  0
  -26.2780  -15.6304   20.0988 H   0  0  0  0  0  0
  -26.7195  -32.5446   23.1077 H   0  0  0  0  0  0
  -25.0109  -33.9691   25.0435 H   0  0  0  0  0  0
  -22.7129  -31.3020   21.4006 H   0  0  0  0  0  0
  -23.3751  -35.9620   23.3291 H   0  0  0  0  0  0
  -24.3578  -36.8917   22.2047 H   0  0  0  0  0  0
  -23.7227  -37.6492   23.6657 H   0  0  0  0  0  0
  -26.0833  -31.5463   20.5922 H   0  0  0  0  0  0
  -26.8401  -30.8445   21.9912 H   0  0  0  0  0  0
  -28.1256  -29.0132   21.1541 H   0  0  0  0  0  0
  -26.0205  -25.9055   19.0316 H   0  0  0  0  0  0
  -23.9729  -27.2791   19.0305 H   0  0  0  0  0  0
  -23.7527  -30.5812   19.4024 H   0  0  0  0  0  0
  -22.7501  -29.2376   19.8647 H   0  0  0  0  0  0
  -25.1292  -36.1932   25.0822 H   0  0  0  0  0  0
  -20.9976  -28.3237   24.1409 H   0  0  0  0  0  0
  -20.5634  -26.2282   23.3611 H   0  0  0  0  0  0
  -21.6641  -26.7396   22.1225 H   0  0  0  0  0  0
  -19.6888  -25.6278   21.1230 H   0  0  0  0  0  0
  -19.6679  -27.3193   20.6737 H   0  0  0  0  0  0
  -17.4197  -26.6676   21.4017 H   0  0  0  0  0  0
  -18.0318  -26.0038   22.9001 H   0  0  0  0  0  0
  -19.7946  -30.7277   24.2222 H   0  0  0  0  0  0
  -17.5014  -31.6244   24.5176 H   0  0  0  0  0  0
  -15.5349  -30.2963   23.7636 H   0  0  0  0  0  0
  -15.8685  -28.0799   22.7046 H   0  0  0  0  0  0
  -24.5964  -30.7008   25.7790 H   0  0  0  0  0  0
  -24.8943  -32.2837   26.4871 H   0  0  0  0  0  0
  -25.8121  -30.8882   27.0203 H   0  0  0  0  0  0
  -26.2868  -29.6749   24.1205 H   0  0  0  0  0  0
  -27.4065  -29.7249   25.4627 H   0  0  0  0  0  0
  -27.8736  -30.4257   23.9308 H   0  0  0  0  0  0
  -27.2691  -33.3594   26.2034 H   0  0  0  0  0  0
  -28.3891  -32.6838   25.0294 H   0  0  0  0  0  0
  -28.0746  -31.8420   26.5380 H   0  0  0  0  0  0
  -28.2610  -38.0091   24.7533 H   0  0  0  0  0  0
  -28.1062  -36.2629   24.6270 H   0  0  0  0  0  0
  -27.2303  -37.1429   25.8870 H   0  0  0  0  0  0
  -20.9335  -29.8755   21.6931 H   0  0  0  0  0  0
  -26.0169  -38.2858   24.1426 H   0  0  0  0  0  0
  -32.0201  -18.3592   21.8138 H   0  0  0  0  0  0
  -29.9428  -17.9485   22.6753 H   0  0  0  0  0  0
  -28.2895  -18.2616   22.2166 H   0  0  0  0  0  0
  -28.0500  -16.0372   21.3573 H   0  0  0  0  0  0
  -29.2918  -15.7273   22.5748 H   0  0  0  0  0  0
  -31.4932  -17.2137   19.9601 H   0  0  0  0  0  0
  -30.1706  -17.1012   18.8483 H   0  0  0  0  0  0
  -28.8717  -18.7167   19.9637 H   0  0  0  0  0  0
  -33.6788  -23.5176   21.4096 H   0  0  0  0  0  0
  -34.5539  -22.5161   20.2336 H   0  0  0  0  0  0
  -34.6797  -22.2004   21.9508 H   0  0  0  0  0  0
  -32.6433  -23.6498   19.4476 H   0  0  0  0  0  0
  -31.0709  -24.0285   20.0892 H   0  0  0  0  0  0
  -31.3004  -23.0982   18.5672 H   0  0  0  0  0  0
  -34.7756  -19.8292   24.2381 H   0  0  0  0  0  0
  -33.0540  -19.4518   24.1221 H   0  0  0  0  0  0
  -33.6079  -21.1268   23.9719 H   0  0  0  0  0  0
  -26.9641  -23.9574   20.2903 H   0  0  0  0  0  0
  -27.9779  -23.3487   21.5332 H   0  0  0  0  0  0
  -29.5851  -25.2946   21.1348 H   0  0  0  0  0  0
  -28.0693  -25.6407   21.8510 H   0  0  0  0  0  0
  -29.3050  -23.3788   18.8298 H   0  0  0  0  0  0
  -27.8867  -22.5728   18.9236 H   0  0  0  0  0  0
  1 25  1  0  0  0
  1 30  2  0  0  0
  1 87  1  0  0  0
  2  3  1  0  0  0
  2 25  1  0  0  0
  2 90  1  0  0  0
  2 91  1  0  0  0
  3  4  1  0  0  0
  3 92  1  0  0  0
  3 93  1  0  0  0
  4  5  1  0  0  0
  4 94  1  0  0  0
  4 95  1  0  0  0
  5  6  1  0  0  0
  5 26  1  0  0  0
  5 96  1  0  0  0
  6 25  1  0  0  0
  6 97  1  0  0  0
  6 98  1  0  0  0
  7  8  2  0  0  0
  7 26  1  0  0  0
  7 29  1  0  0  0
  8  9  1  0  0  0
  8 22  1  0  0  0
  9 10  1  0  0  0
  9 27  2  0  0  0
 10 11  2  0  0  0
 10 15  1  0  0  0
 11 12  1  0  0  0
 11 99  1  0  0  0
 12 13  2  0  0  0
 12100  1  0  0  0
 13 14  1  0  0  0
 13 31  1  0  0  0
 14 15  2  0  0  0
 14101  1  0  0  0
 15102  1  0  0  0
 16 17  2  0  0  0
 16 21  1  0  0  0
 16 31  1  0  0  0
 17 18  1  0  0  0
 17103  1  0  0  0
 18 19  2  0  0  0
 18104  1  0  0  0
 19 20  1  0  0  0
 19 24  1  0  0  0
 20 21  2  0  0  0
 20105  1  0  0  0
 21 23  1  0  0  0
 22 28  1  0  0  0
 22 32  2  0  0  0
 26 27  1  0  0  0
 28106  1  0  0  0
 28107  1  0  0  0
 29108  1  0  0  0
 29109  1  0  0  0
 33 34  1  0  0  0
 33 66  1  0  0  0
 33 70  2  0  0  0
 34 36  1  0  0  0
 34 59  1  0  0  0
 34110  1  0  0  0
 35 44  2  0  0  0
 35 45  1  0  0  0
 35 68  1  0  0  0
 36 56  1  0  0  0
 36111  1  0  0  0
 37 39  1  0  0  0
 37 47  1  0  0  0
 37 66  1  0  0  0
 37112  1  0  0  0
 38 43  2  0  0  0
 38 46  1  0  0  0
 38 47  1  0  0  0
 39 64  1  0  0  0
 39 67  2  0  0  0
 40 52  1  0  0  0
 40 53  2  0  0  0
 40 58  1  0  0  0
 41113  1  0  0  0
 41114  1  0  0  0
 41115  1  0  0  0
 41 48  1  0  0  0
 42 43  1  0  0  0
 42 66  1  0  0  0
 42116  1  0  0  0
 42117  1  0  0  0
 43 44  1  0  0  0
 44118  1  0  0  0
 45 46  2  0  0  0
 45119  1  0  0  0
 46120  1  0  0  0
 47121  1  0  0  0
 47122  1  0  0  0
 48 56  1  0  0  0
 48 65  1  0  0  0
 48123  1  0  0  0
 49 50  1  0  0  0
 49 53  1  0  0  0
 49 64  1  0  0  0
 49124  1  0  0  0
 50 51  1  0  0  0
 50125  1  0  0  0
 50126  1  0  0  0
 51 52  1  0  0  0
 51127  1  0  0  0
 51128  1  0  0  0
 52129  1  0  0  0
 52130  1  0  0  0
 53 54  1  0  0  0
 54 55  2  0  0  0
 54131  1  0  0  0
 55 57  1  0  0  0
 55132  1  0  0  0
 56 69  2  0  0  0
 57 58  2  0  0  0
 57133  1  0  0  0
 58134  1  0  0  0
 59 60  1  0  0  0
 59 61  1  0  0  0
 59 62  1  0  0  0
 60135  1  0  0  0
 60136  1  0  0  0
 60137  1  0  0  0
 61138  1  0  0  0
 61139  1  0  0  0
 61140  1  0  0  0
 62141  1  0  0  0
 62142  1  0  0  0
 62143  1  0  0  0
 63 65  1  0  0  0
 63144  1  0  0  0
 63145  1  0  0  0
 63146  1  0  0  0
 64147  1  0  0  0
 65148  1  0  0  0
 68 85  1  0  0  0
 71 72  2  0  0  0
 71 75  1  0  0  0
 71149  1  0  0  0
 72 76  1  0  0  0
 72 80  1  0  0  0
 73 74  1  0  0  0
 73 75  2  0  0  0
 73 81  1  0  0  0
 74 76  2  0  0  0
 74 82  1  0  0  0
 75 88  1  0  0  0
 76 89  1  0  0  0
 77 78  1  0  0  0
 77 80  1  0  0  0
 77150  1  0  0  0
 77151  1  0  0  0
 78 87  1  0  0  0
 78152  1  0  0  0
 78153  1  0  0  0
 79 80  1  0  0  0
 79 87  1  0  0  0
 79154  1  0  0  0
 79155  1  0  0  0
 80156  1  0  0  0
 81157  1  0  0  0
 81158  1  0  0  0
 81159  1  0  0  0
 82160  1  0  0  0
 82161  1  0  0  0
 82162  1  0  0  0
 83 88  1  0  0  0
 83163  1  0  0  0
 83164  1  0  0  0
 83165  1  0  0  0
 84 85  1  0  0  0
 84 86  1  0  0  0
 84166  1  0  0  0
 84167  1  0  0  0
 85168  1  0  0  0
 85169  1  0  0  0
 86 89  1  0  0  0
 86170  1  0  0  0
 86171  1  0  0  0
M  ISO  4   1 100  68 101  85 101  87 100
M  END
> <chiral flag>
0

> <version>
0

> <s_m_source_file>
/data/baiqing/PycharmProjects/Reinvent-master-3.2/result/LINK_invent/BTK/process_docking_weight1_custom_sum_contain_oxygen_bond_distance_aromatic_linkinvent_7_9_3/rearranged_h_0156.sdf

> <i_m_source_file_index>
17

> <r_mmod_Potential_Energy-OPLS-2005>
419.107604980469

> <r_mmod_Stretch_Energy-OPLS-2005>
100.970817565918

> <r_mmod_Bend_Energy-OPLS-2005>
245.089508056641

> <r_mmod_Torsional_Energy-OPLS-2005>
410.413177490234

> <r_mmod_Improper_Torsional_Energy-OPLS-2005>
13.4794940948486

> <r_mmod_Van_der_Waal_Energy-OPLS-2005>
157.637466430664

> <r_mmod_Electrostatic_Energy-OPLS-2005>
-349.927642822266

> <r_mmod_Solvation_Energy-OPLS-2005>
-207.504180908203

> <b_mmod_Minimization_Converged-OPLS-2005>
0

> <r_mmod_RMS_Derivative-OPLS-2005>
2.78096771240234

$$$$
17
                    3D
 Structure written by MMmdl.
170179  0  0  1  0            999 V2000
  -30.6493  -14.5879   20.5037 C   0  0  0  0  0  0
  -30.4262  -12.3677   19.4343 C   0  0  0  0  0  0
  -29.4916  -12.5013   18.2129 C   0  0  0  0  0  0
  -28.0130  -12.3588   18.6297 C   0  0  0  0  0  0
  -27.6498  -13.2107   19.8779 C   0  0  2  0  0  0
  -28.7019  -13.0195   20.9918 C   0  0  0  0  0  0
  -25.2540  -13.8144   20.5736 C   0  0  0  0  0  0
  -24.1783  -13.0406   20.9205 C   0  0  0  0  0  0
  -24.6352  -11.6880   20.8776 C   0  0  0  0  0  0
  -23.9035  -10.4271   21.0464 C   0  0  0  0  0  0
  -24.3576   -9.4179   21.9253 C   0  0  0  0  0  0
  -23.6258   -8.2206   22.0802 C   0  0  0  0  0  0
  -22.4256   -8.0241   21.3565 C   0  0  0  0  0  0
  -21.9894   -9.0226   20.4684 C   0  0  0  0  0  0
  -22.7212  -10.2115   20.3109 C   0  0  0  0  0  0
  -21.6852   -6.0693   22.5285 C   0  0  0  0  0  0
  -21.4023   -6.5622   23.8212 C   0  0  0  0  0  0
  -21.3667   -5.6795   24.9194 C   0  0  0  0  0  0
  -21.6043   -4.3050   24.7262 C   0  0  0  0  0  0
  -21.8827   -3.8122   23.4390 C   0  0  0  0  0  0
  -21.9188   -4.6917   22.3431 C   0  0  0  0  0  0
  -22.7812  -13.5226   21.1869 C   0  0  0  0  0  0
  -22.1662   -4.2086   21.1014 F   0  0  0  0  0  0
  -21.5646   -3.4550   25.7787 F   0  0  0  0  0  0
  -29.9991  -13.3863   20.4126 N   0  0  0  0  0  0
  -26.2962  -12.9305   20.3443 N   0  0  0  0  0  0
  -25.9279  -11.6467   20.5806 N   0  0  0  0  0  0
  -22.0442  -12.8220   22.0430 N   0  0  0  0  0  0
  -25.4333  -15.1846   20.4178 N   0  0  0  0  0  0
  -31.8469  -14.6606   20.2085 O   0  0  0  0  0  0
  -21.6634   -6.8827   21.4235 O   0  0  0  0  0  0
  -22.3526  -14.5548   20.6734 O   0  0  0  0  0  0
  -24.6197  -31.8646   23.2035 C   0  0  0  0  0  0
  -25.9075  -32.4792   23.8340 C   0  0  1  0  0  0
  -27.2337  -27.3881   20.0963 C   0  0  0  0  0  0
  -25.5927  -33.8593   24.2274 N   0  0  0  0  0  0
  -23.4090  -30.4876   21.5447 C   0  0  2  0  0  0
  -24.8544  -28.9447   20.1126 C   0  0  0  0  0  0
  -22.7426  -29.4668   22.4957 C   0  0  0  0  0  0
  -18.0286  -28.1400   22.8482 C   0  0  0  0  0  0
  -24.1505  -36.7301   23.2624 C   0  0  0  0  0  0
  -25.9427  -30.8138   21.3647 C   0  0  0  0  0  0
  -26.0169  -29.4457   20.7098 C   0  0  0  0  0  0
  -27.2061  -28.6725   20.7021 C   0  0  0  0  0  0
  -26.0454  -26.9092   19.5073 C   0  0  0  0  0  0
  -24.8637  -27.6744   19.5122 C   0  0  0  0  0  0
  -23.6186  -29.8151   20.1616 C   0  0  0  0  0  0
  -25.4119  -36.3084   24.0319 C   0  0  1  0  0  0
  -20.5877  -28.3701   23.1296 C   0  0  2  0  0  0
  -20.6793  -26.9436   22.5411 C   0  0  0  0  0  0
  -19.5776  -26.6403   21.5212 C   0  0  0  0  0  0
  -18.1944  -26.7947   22.1612 C   0  0  0  0  0  0
  -19.1535  -28.8861   23.2886 C   0  0  0  0  0  0
  -18.9463  -30.1463   23.8903 C   0  0  0  0  0  0
  -17.6469  -30.6603   24.0571 C   0  0  0  0  0  0
  -25.9061  -34.9460   23.5093 C   0  0  0  0  0  0
  -16.5360  -29.9105   23.6339 C   0  0  0  0  0  0
  -16.7273  -28.6521   23.0349 C   0  0  0  0  0  0
  -26.4486  -31.6578   25.0690 C   0  0  0  0  0  0
  -25.3719  -31.3706   26.1413 C   0  0  0  0  0  0
  -27.0327  -30.3007   24.6111 C   0  0  0  0  0  0
  -27.6063  -32.4287   25.7454 C   0  0  0  0  0  0
  -27.5604  -37.1776   24.8433 C   0  0  0  0  0  0
  -21.4146  -29.3054   22.3680 N   0  0  0  0  0  0
  -26.4284  -37.3791   23.9432 N   0  0  0  0  0  0
  -24.6751  -31.0713   22.0949 N   0  0  0  0  0  0
  -23.4167  -28.8226   23.3040 O   0  0  0  0  0  0
  -28.3924  -26.6249   20.1447 O   0  0  0  0  0  0
  -26.5631  -34.8926   22.4664 O   0  0  0  0  0  0
  -23.5379  -32.1425   23.7412 O   0  0  0  0  0  0
  -29.4134  -23.4660   20.4574 C   0  0  0  0  0  0
  -27.6063  -23.2042   18.8469 C   0  0  0  0  0  0
  -28.5029  -24.0739   19.5399 C   0  0  0  0  0  0
  -29.5289  -22.0374   20.5759 C   0  0  0  0  0  0
  -27.6200  -21.7965   19.0882 C   0  0  0  0  0  0
  -28.5985  -21.1707   19.9121 C   0  0  0  0  0  0
  -28.3416  -17.6453   21.1774 C   0  0  0  0  0  0
  -30.4532  -18.1921   19.9437 C   0  0  0  0  0  0
  -29.0833  -16.3093   21.5261 C   0  0  0  0  0  0
  -30.2001  -16.7568   19.3773 C   0  0  0  0  0  0
  -29.2660  -18.8073   20.7304 C   0  0  0  0  0  0
  -30.3154  -24.3710   21.2984 C   0  0  0  0  0  0
  -26.6111  -23.7235   17.8027 C   0  0  0  0  0  0
  -30.7015  -21.4738   21.3761 C   0  0  0  0  0  0
  -26.5718  -20.9208   18.3941 C   0  0  0  0  0  0
  -28.6570  -25.5922   19.1611 C   0  0  0  0  0  0
  -29.8800  -15.7327   20.4119 N   0  0  0  0  0  0
  -28.5160  -19.7623   19.9339 O   0  0  0  0  0  0
  -31.4655  -12.4894   19.1221 H   0  0  0  0  0  0
  -30.3660  -11.3667   19.8661 H   0  0  0  0  0  0
  -29.7400  -11.7559   17.4565 H   0  0  0  0  0  0
  -29.6437  -13.4723   17.7383 H   0  0  0  0  0  0
  -27.8308  -11.3039   18.8373 H   0  0  0  0  0  0
  -27.3622  -12.6205   17.7946 H   0  0  0  0  0  0
  -27.6792  -14.2546   19.5631 H   0  0  0  0  0  0
  -28.7153  -11.9792   21.3188 H   0  0  0  0  0  0
  -28.4697  -13.5784   21.8939 H   0  0  0  0  0  0
  -25.2718   -9.5639   22.4843 H   0  0  0  0  0  0
  -23.9966   -7.4586   22.7510 H   0  0  0  0  0  0
  -21.0848   -8.8729   19.8971 H   0  0  0  0  0  0
  -22.3686  -10.9650   19.6223 H   0  0  0  0  0  0
  -21.2039   -7.6142   23.9697 H   0  0  0  0  0  0
  -21.1514   -6.0548   25.9090 H   0  0  0  0  0  0
  -22.0618   -2.7574   23.2927 H   0  0  0  0  0  0
  -22.3983  -11.9811   22.4733 H   0  0  0  0  0  0
  -21.1097  -13.1307   22.2730 H   0  0  0  0  0  0
  -24.6776  -15.8518   20.5265 H   0  0  0  0  0  0
  -26.3020  -15.6108   20.1206 H   0  0  0  0  0  0
  -26.7143  -32.5490   23.1096 H   0  0  0  0  0  0
  -25.0063  -33.9734   25.0407 H   0  0  0  0  0  0
  -22.7007  -31.3060   21.4009 H   0  0  0  0  0  0
  -23.3799  -35.9598   23.3189 H   0  0  0  0  0  0
  -24.3618  -36.9033   22.2060 H   0  0  0  0  0  0
  -23.7221  -37.6449   23.6723 H   0  0  0  0  0  0
  -26.0650  -31.5794   20.5979 H   0  0  0  0  0  0
  -26.8265  -30.8622   21.9885 H   0  0  0  0  0  0
  -28.1026  -29.0546   21.1691 H   0  0  0  0  0  0
  -26.0063  -25.9246   19.0767 H   0  0  0  0  0  0
  -23.9635  -27.2705   19.0695 H   0  0  0  0  0  0
  -23.7304  -30.5854   19.3986 H   0  0  0  0  0  0
  -22.7420  -29.2349   19.8684 H   0  0  0  0  0  0
  -25.1293  -36.1910   25.0805 H   0  0  0  0  0  0
  -20.9963  -28.3300   24.1419 H   0  0  0  0  0  0
  -20.5737  -26.2306   23.3603 H   0  0  0  0  0  0
  -21.6668  -26.7515   22.1194 H   0  0  0  0  0  0
  -19.6956  -25.6315   21.1243 H   0  0  0  0  0  0
  -19.6722  -27.3205   20.6734 H   0  0  0  0  0  0
  -17.4225  -26.6695   21.3998 H   0  0  0  0  0  0
  -18.0340  -26.0086   22.9000 H   0  0  0  0  0  0
  -19.7940  -30.7278   24.2269 H   0  0  0  0  0  0
  -17.5032  -31.6284   24.5180 H   0  0  0  0  0  0
  -15.5360  -30.3016   23.7665 H   0  0  0  0  0  0
  -15.8665  -28.0847   22.7061 H   0  0  0  0  0  0
  -24.5878  -30.7082   25.7712 H   0  0  0  0  0  0
  -24.8928  -32.2877   26.4849 H   0  0  0  0  0  0
  -25.8033  -30.8844   27.0169 H   0  0  0  0  0  0
  -26.2882  -29.6739   24.1184 H   0  0  0  0  0  0
  -27.4093  -29.7279   25.4594 H   0  0  0  0  0  0
  -27.8720  -30.4298   23.9273 H   0  0  0  0  0  0
  -27.2704  -33.3596   26.2033 H   0  0  0  0  0  0
  -28.3877  -32.6816   25.0272 H   0  0  0  0  0  0
  -28.0725  -31.8393   26.5364 H   0  0  0  0  0  0
  -28.2513  -38.0181   24.7654 H   0  0  0  0  0  0
  -28.1222  -36.2729   24.6052 H   0  0  0  0  0  0
  -27.2349  -37.1157   25.8830 H   0  0  0  0  0  0
  -20.9322  -29.8714   21.6837 H   0  0  0  0  0  0
  -26.0157  -38.2838   24.1544 H   0  0  0  0  0  0
  -27.7527  -17.9681   22.0372 H   0  0  0  0  0  0
  -27.6103  -17.4447   20.3937 H   0  0  0  0  0  0
  -30.7566  -18.8667   19.1425 H   0  0  0  0  0  0
  -31.3107  -18.1391   20.6145 H   0  0  0  0  0  0
  -28.3213  -15.6185   21.8682 H   0  0  0  0  0  0
  -29.7521  -16.4749   22.3725 H   0  0  0  0  0  0
  -31.0597  -16.4651   18.7708 H   0  0  0  0  0  0
  -29.3707  -16.7815   18.6704 H   0  0  0  0  0  0
  -29.6101  -19.2593   21.6526 H   0  0  0  0  0  0
  -29.8420  -25.3200   21.5362 H   0  0  0  0  0  0
  -31.2527  -24.5742   20.7826 H   0  0  0  0  0  0
  -30.5372  -23.9360   22.2732 H   0  0  0  0  0  0
  -26.8180  -24.7005   17.3824 H   0  0  0  0  0  0
  -25.6048  -23.7516   18.2242 H   0  0  0  0  0  0
  -26.5918  -23.0665   16.9335 H   0  0  0  0  0  0
  -31.5299  -22.1710   21.4776 H   0  0  0  0  0  0
  -31.1495  -20.6234   20.8685 H   0  0  0  0  0  0
  -30.3878  -21.1873   22.3796 H   0  0  0  0  0  0
  -25.5807  -21.3703   18.4607 H   0  0  0  0  0  0
  -26.4667  -19.9268   18.8269 H   0  0  0  0  0  0
  -26.8219  -20.7935   17.3406 H   0  0  0  0  0  0
  -28.2200  -25.8712   18.2102 H   0  0  0  0  0  0
  -29.7203  -25.7044   18.9469 H   0  0  0  0  0  0
  1 25  1  0  0  0
  1 30  2  0  0  0
  1 87  1  0  0  0
  2  3  1  0  0  0
  2 25  1  0  0  0
  2 89  1  0  0  0
  2 90  1  0  0  0
  3  4  1  0  0  0
  3 91  1  0  0  0
  3 92  1  0  0  0
  4  5  1  0  0  0
  4 93  1  0  0  0
  4 94  1  0  0  0
  5  6  1  0  0  0
  5 26  1  0  0  0
  5 95  1  0  0  0
  6 25  1  0  0  0
  6 96  1  0  0  0
  6 97  1  0  0  0
  7  8  2  0  0  0
  7 26  1  0  0  0
  7 29  1  0  0  0
  8  9  1  0  0  0
  8 22  1  0  0  0
  9 10  1  0  0  0
  9 27  2  0  0  0
 10 11  2  0  0  0
 10 15  1  0  0  0
 11 12  1  0  0  0
 11 98  1  0  0  0
 12 13  2  0  0  0
 12 99  1  0  0  0
 13 14  1  0  0  0
 13 31  1  0  0  0
 14 15  2  0  0  0
 14100  1  0  0  0
 15101  1  0  0  0
 16 17  2  0  0  0
 16 21  1  0  0  0
 16 31  1  0  0  0
 17 18  1  0  0  0
 17102  1  0  0  0
 18 19  2  0  0  0
 18103  1  0  0  0
 19 20  1  0  0  0
 19 24  1  0  0  0
 20 21  2  0  0  0
 20104  1  0  0  0
 21 23  1  0  0  0
 22 28  1  0  0  0
 22 32  2  0  0  0
 26 27  1  0  0  0
 28105  1  0  0  0
 28106  1  0  0  0
 29107  1  0  0  0
 29108  1  0  0  0
 33 34  1  0  0  0
 33 66  1  0  0  0
 33 70  2  0  0  0
 34 36  1  0  0  0
 34 59  1  0  0  0
 34109  1  0  0  0
 35 44  2  0  0  0
 35 45  1  0  0  0
 35 68  1  0  0  0
 36 56  1  0  0  0
 36110  1  0  0  0
 37 39  1  0  0  0
 37 47  1  0  0  0
 37 66  1  0  0  0
 37111  1  0  0  0
 38 43  2  0  0  0
 38 46  1  0  0  0
 38 47  1  0  0  0
 39 64  1  0  0  0
 39 67  2  0  0  0
 40 52  1  0  0  0
 40 53  2  0  0  0
 40 58  1  0  0  0
 41112  1  0  0  0
 41113  1  0  0  0
 41114  1  0  0  0
 41 48  1  0  0  0
 42 43  1  0  0  0
 42 66  1  0  0  0
 42115  1  0  0  0
 42116  1  0  0  0
 43 44  1  0  0  0
 44117  1  0  0  0
 45 46  2  0  0  0
 45118  1  0  0  0
 46119  1  0  0  0
 47120  1  0  0  0
 47121  1  0  0  0
 48 56  1  0  0  0
 48 65  1  0  0  0
 48122  1  0  0  0
 49 50  1  0  0  0
 49 53  1  0  0  0
 49 64  1  0  0  0
 49123  1  0  0  0
 50 51  1  0  0  0
 50124  1  0  0  0
 50125  1  0  0  0
 51 52  1  0  0  0
 51126  1  0  0  0
 51127  1  0  0  0
 52128  1  0  0  0
 52129  1  0  0  0
 53 54  1  0  0  0
 54 55  2  0  0  0
 54130  1  0  0  0
 55 57  1  0  0  0
 55131  1  0  0  0
 56 69  2  0  0  0
 57 58  2  0  0  0
 57132  1  0  0  0
 58133  1  0  0  0
 59 60  1  0  0  0
 59 61  1  0  0  0
 59 62  1  0  0  0
 60134  1  0  0  0
 60135  1  0  0  0
 60136  1  0  0  0
 61137  1  0  0  0
 61138  1  0  0  0
 61139  1  0  0  0
 62140  1  0  0  0
 62141  1  0  0  0
 62142  1  0  0  0
 63 65  1  0  0  0
 63143  1  0  0  0
 63144  1  0  0  0
 63145  1  0  0  0
 64146  1  0  0  0
 65147  1  0  0  0
 68 86  1  0  0  0
 71 73  2  0  0  0
 71 74  1  0  0  0
 71 82  1  0  0  0
 72 73  1  0  0  0
 72 75  2  0  0  0
 72 83  1  0  0  0
 73 86  1  0  0  0
 74 76  2  0  0  0
 74 84  1  0  0  0
 75 76  1  0  0  0
 75 85  1  0  0  0
 76 88  1  0  0  0
 77 79  1  0  0  0
 77 81  1  0  0  0
 77148  1  0  0  0
 77149  1  0  0  0
 78 80  1  0  0  0
 78 81  1  0  0  0
 78150  1  0  0  0
 78151  1  0  0  0
 79 87  1  0  0  0
 79152  1  0  0  0
 79153  1  0  0  0
 80 87  1  0  0  0
 80154  1  0  0  0
 80155  1  0  0  0
 81 88  1  0  0  0
 81156  1  0  0  0
 82157  1  0  0  0
 82158  1  0  0  0
 82159  1  0  0  0
 83160  1  0  0  0
 83161  1  0  0  0
 83162  1  0  0  0
 84163  1  0  0  0
 84164  1  0  0  0
 84165  1  0  0  0
 85166  1  0  0  0
 85167  1  0  0  0
 85168  1  0  0  0
 86169  1  0  0  0
 86170  1  0  0  0
M  ISO  4   1 100  68 101  86 101  87 100
M  END
> <chiral flag>
0

> <version>
0

> <s_m_source_file>
/data/baiqing/PycharmProjects/Reinvent-master-3.2/result/LINK_invent/BTK/process_docking_weight1_custom_sum_contain_oxygen_bond_distance_aromatic_linkinvent_7_9_3/rearranged_h_0156.sdf

> <i_m_source_file_index>
18

> <r_mmod_Potential_Energy-OPLS-2005>
335.767059326172

> <r_mmod_Stretch_Energy-OPLS-2005>
72.9411697387695

> <r_mmod_Bend_Energy-OPLS-2005>
181.01725769043

> <r_mmod_Torsional_Energy-OPLS-2005>
350.801177978516

> <r_mmod_Improper_Torsional_Energy-OPLS-2005>
19.014066696167

> <r_mmod_Van_der_Waal_Energy-OPLS-2005>
187.453170776367

> <r_mmod_Electrostatic_Energy-OPLS-2005>
-309.687377929688

> <r_mmod_Solvation_Energy-OPLS-2005>
-196.659133911133

> <b_mmod_Minimization_Converged-OPLS-2005>
0

> <r_mmod_RMS_Derivative-OPLS-2005>
2.52728366851807

$$$$
18
                    3D
 Structure written by MMmdl.
181191  0  0  1  0            999 V2000
  -30.7363  -14.4355   20.5260 C   0  0  0  0  0  0
  -30.4091  -12.2700   19.4169 C   0  0  0  0  0  0
  -29.4863  -12.4904   18.2023 C   0  0  0  0  0  0
  -28.0072  -12.3684   18.6163 C   0  0  0  0  0  0
  -27.6618  -13.2088   19.8765 C   0  0  2  0  0  0
  -28.7118  -13.0028   20.9939 C   0  0  0  0  0  0
  -25.2571  -13.8144   20.5618 C   0  0  0  0  0  0
  -24.1856  -13.0442   20.9178 C   0  0  0  0  0  0
  -24.6431  -11.6899   20.8795 C   0  0  0  0  0  0
  -23.9101  -10.4286   21.0435 C   0  0  0  0  0  0
  -24.3632   -9.4191   21.9211 C   0  0  0  0  0  0
  -23.6290   -8.2235   22.0763 C   0  0  0  0  0  0
  -22.4271   -8.0291   21.3544 C   0  0  0  0  0  0
  -21.9934   -9.0279   20.4649 C   0  0  0  0  0  0
  -22.7277  -10.2150   20.3073 C   0  0  0  0  0  0
  -21.6853   -6.0747   22.5275 C   0  0  0  0  0  0
  -21.4002   -6.5645   23.8211 C   0  0  0  0  0  0
  -21.3662   -5.6792   24.9177 C   0  0  0  0  0  0
  -21.6041   -4.3059   24.7222 C   0  0  0  0  0  0
  -21.8821   -3.8152   23.4345 C   0  0  0  0  0  0
  -21.9184   -4.6966   22.3407 C   0  0  0  0  0  0
  -22.7874  -13.5236   21.1829 C   0  0  0  0  0  0
  -22.1655   -4.2162   21.0979 F   0  0  0  0  0  0
  -21.5637   -3.4541   25.7739 F   0  0  0  0  0  0
  -30.0390  -13.2740   20.4227 N   0  0  0  0  0  0
  -26.3054  -12.9333   20.3427 N   0  0  0  0  0  0
  -25.9366  -11.6502   20.5886 N   0  0  0  0  0  0
  -22.0513  -12.8239   22.0378 N   0  0  0  0  0  0
  -25.4212  -15.1843   20.3774 N   0  0  0  0  0  0
  -31.9072  -14.5489   20.1532 O   0  0  0  0  0  0
  -21.6613   -6.8897   21.4247 O   0  0  0  0  0  0
  -22.3569  -14.5561   20.6692 O   0  0  0  0  0  0
  -24.6134  -31.8654   23.2154 C   0  0  0  0  0  0
  -25.9077  -32.4777   23.8389 C   0  0  1  0  0  0
  -27.2343  -27.4826   20.0653 C   0  0  0  0  0  0
  -25.5955  -33.8570   24.2331 N   0  0  0  0  0  0
  -23.3943  -30.4926   21.5540 C   0  0  2  0  0  0
  -24.8400  -28.9670   20.1084 C   0  0  0  0  0  0
  -22.7404  -29.4624   22.5016 C   0  0  0  0  0  0
  -18.0252  -28.1325   22.8440 C   0  0  0  0  0  0
  -24.1497  -36.7287   23.2630 C   0  0  0  0  0  0
  -25.9177  -30.8467   21.3616 C   0  0  0  0  0  0
  -25.9985  -29.4863   20.7037 C   0  0  0  0  0  0
  -27.2000  -28.7475   20.6916 C   0  0  0  0  0  0
  -26.0691  -26.9743   19.4600 C   0  0  0  0  0  0
  -24.8658  -27.7046   19.4907 C   0  0  0  0  0  0
  -23.6000  -29.8304   20.1641 C   0  0  0  0  0  0
  -25.4098  -36.3069   24.0327 C   0  0  1  0  0  0
  -20.5839  -28.3613   23.1313 C   0  0  2  0  0  0
  -20.6741  -26.9351   22.5408 C   0  0  0  0  0  0
  -19.5739  -26.6358   21.5168 C   0  0  0  0  0  0
  -18.1912  -26.7874   22.1570 C   0  0  0  0  0  0
  -19.1499  -28.8785   23.2872 C   0  0  0  0  0  0
  -18.9445  -30.1391   23.8881 C   0  0  0  0  0  0
  -17.6469  -30.6559   24.0526 C   0  0  0  0  0  0
  -25.9023  -34.9429   23.5103 C   0  0  0  0  0  0
  -16.5347  -29.9058   23.6306 C   0  0  0  0  0  0
  -16.7251  -28.6461   23.0325 C   0  0  0  0  0  0
  -26.4530  -31.6553   25.0707 C   0  0  0  0  0  0
  -25.3852  -31.3649   26.1511 C   0  0  0  0  0  0
  -27.0366  -30.3002   24.6022 C   0  0  0  0  0  0
  -27.6064  -32.4291   25.7515 C   0  0  0  0  0  0
  -27.5563  -37.1809   24.8458 C   0  0  0  0  0  0
  -21.4136  -29.2987   22.3765 N   0  0  0  0  0  0
  -26.4266  -37.3771   23.9415 N   0  0  0  0  0  0
  -24.6576  -31.0824   22.1015 N   0  0  0  0  0  0
  -23.4212  -28.8164   23.3023 O   0  0  0  0  0  0
  -28.3703  -26.7144   20.0155 O   0  0  0  0  0  0
  -26.5557  -34.8886   22.4646 O   0  0  0  0  0  0
  -23.5365  -32.1368   23.7624 O   0  0  0  0  0  0
  -29.6802  -22.3044   22.1015 C   0  0  0  0  0  0
  -29.6685  -20.8423   24.4858 C   0  0  0  0  0  0
  -29.8317  -22.9958   23.3229 C   0  0  0  0  0  0
  -29.5369  -20.9020   22.0577 C   0  0  0  0  0  0
  -29.7828  -22.2488   24.5311 C   0  0  0  0  0  0
  -29.5511  -20.1549   23.2608 C   0  0  0  0  0  0
  -28.7402  -25.3179   23.5130 C   0  0  0  0  0  0
  -30.9580  -25.0873   22.2151 C   0  0  0  0  0  0
  -28.0503  -25.6528   22.1877 C   0  0  0  0  0  0
  -30.2367  -25.5913   20.9484 C   0  0  0  0  0  0
  -30.9584  -17.0645   22.3248 C   0  0  0  0  0  0
  -28.3935  -17.0343   21.8666 C   0  0  0  0  0  0
  -30.6692  -17.9611   23.5393 C   0  0  0  0  0  0
  -28.2329  -18.0377   23.0272 C   0  0  0  0  0  0
  -30.0484  -24.5197   23.3384 C   0  0  2  0  0  0
  -29.7245  -16.2223   21.8880 C   0  0  0  0  0  0
  -28.9991  -26.4386   21.2629 C   0  0  1  0  0  0
  -29.3881  -20.2385   20.7000 C   0  0  0  0  0  0
  -29.8335  -22.9241   25.8927 C   0  0  0  0  0  0
  -29.9324  -16.4007   19.3899 C   0  0  0  0  0  0
  -29.4766  -18.7513   23.2772 N   0  0  0  0  0  0
  -29.9668  -15.5444   20.5938 N   0  0  0  0  0  0
  -31.4566  -12.3341   19.1187 H   0  0  0  0  0  0
  -30.2714  -11.2674   19.8234 H   0  0  0  0  0  0
  -29.7116  -11.7649   17.4193 H   0  0  0  0  0  0
  -29.6676  -13.4765   17.7721 H   0  0  0  0  0  0
  -27.8002  -11.3141   18.8038 H   0  0  0  0  0  0
  -27.3640  -12.6597   17.7864 H   0  0  0  0  0  0
  -27.7008  -14.2552   19.5756 H   0  0  0  0  0  0
  -28.6815  -11.9790   21.3688 H   0  0  0  0  0  0
  -28.5016  -13.6412   21.8522 H   0  0  0  0  0  0
  -25.2781   -9.5657   22.4791 H   0  0  0  0  0  0
  -23.9983   -7.4625   22.7493 H   0  0  0  0  0  0
  -21.0861   -8.8837   19.8945 H   0  0  0  0  0  0
  -22.3766  -10.9709   19.6181 H   0  0  0  0  0  0
  -21.1983   -7.6153   23.9729 H   0  0  0  0  0  0
  -21.1489   -6.0518   25.9085 H   0  0  0  0  0  0
  -22.0596   -2.7613   23.2844 H   0  0  0  0  0  0
  -22.4121  -11.9884   22.4754 H   0  0  0  0  0  0
  -21.1156  -13.1295   22.2634 H   0  0  0  0  0  0
  -24.6289  -15.8168   20.3875 H   0  0  0  0  0  0
  -26.2531  -15.5968   19.9754 H   0  0  0  0  0  0
  -26.7145  -32.5501   23.1154 H   0  0  0  0  0  0
  -25.0294  -33.9697   25.0604 H   0  0  0  0  0  0
  -22.6789  -31.3065   21.4212 H   0  0  0  0  0  0
  -23.3749  -35.9642   23.3278 H   0  0  0  0  0  0
  -24.3628  -36.8908   22.2058 H   0  0  0  0  0  0
  -23.7277  -37.6475   23.6680 H   0  0  0  0  0  0
  -26.0303  -31.6268   20.6077 H   0  0  0  0  0  0
  -26.8005  -30.8861   21.9867 H   0  0  0  0  0  0
  -28.0916  -29.1519   21.1481 H   0  0  0  0  0  0
  -26.0937  -26.0109   18.9695 H   0  0  0  0  0  0
  -23.9742  -27.2996   19.0334 H   0  0  0  0  0  0
  -23.7115  -30.6104   19.4094 H   0  0  0  0  0  0
  -22.7214  -29.2548   19.8637 H   0  0  0  0  0  0
  -25.1289  -36.1897   25.0820 H   0  0  0  0  0  0
  -20.9872  -28.3170   24.1450 H   0  0  0  0  0  0
  -20.5611  -26.2214   23.3589 H   0  0  0  0  0  0
  -21.6634  -26.7394   22.1224 H   0  0  0  0  0  0
  -19.6945  -25.6282   21.1174 H   0  0  0  0  0  0
  -19.6701  -27.3183   20.6706 H   0  0  0  0  0  0
  -17.4182  -26.6564   21.3988 H   0  0  0  0  0  0
  -18.0331  -26.0023   22.8963 H   0  0  0  0  0  0
  -19.7948  -30.7155   24.2298 H   0  0  0  0  0  0
  -17.5042  -31.6244   24.5132 H   0  0  0  0  0  0
  -15.5346  -30.2959   23.7677 H   0  0  0  0  0  0
  -15.8619  -28.0806   22.7056 H   0  0  0  0  0  0
  -24.6003  -30.6973   25.7934 H   0  0  0  0  0  0
  -24.9096  -32.2812   26.5008 H   0  0  0  0  0  0
  -25.8287  -30.8839   27.0242 H   0  0  0  0  0  0
  -26.2871  -29.6743   24.1155 H   0  0  0  0  0  0
  -27.4251  -29.7237   25.4428 H   0  0  0  0  0  0
  -27.8663  -30.4306   23.9068 H   0  0  0  0  0  0
  -27.2603  -33.3562   26.2096 H   0  0  0  0  0  0
  -28.3924  -32.6881   25.0413 H   0  0  0  0  0  0
  -28.0678  -31.8425   26.5472 H   0  0  0  0  0  0
  -28.2555  -38.0129   24.7529 H   0  0  0  0  0  0
  -28.1082  -36.2661   24.6255 H   0  0  0  0  0  0
  -27.2299  -37.1415   25.8863 H   0  0  0  0  0  0
  -20.9331  -29.8729   21.6985 H   0  0  0  0  0  0
  -26.0131  -38.2827   24.1462 H   0  0  0  0  0  0
  -29.6780  -22.8456   21.1703 H   0  0  0  0  0  0
  -29.6643  -20.2787   25.4095 H   0  0  0  0  0  0
  -28.0488  -24.7907   24.1689 H   0  0  0  0  0  0
  -28.9697  -26.2645   24.0076 H   0  0  0  0  0  0
  -31.4931  -25.9440   22.6274 H   0  0  0  0  0  0
  -31.7301  -24.3621   21.9523 H   0  0  0  0  0  0
  -27.1583  -26.2405   22.4058 H   0  0  0  0  0  0
  -27.7099  -24.7394   21.7000 H   0  0  0  0  0  0
  -29.9511  -24.7575   20.3112 H   0  0  0  0  0  0
  -30.9327  -26.1834   20.3524 H   0  0  0  0  0  0
  -31.7955  -16.4053   22.5629 H   0  0  0  0  0  0
  -31.3126  -17.6942   21.5085 H   0  0  0  0  0  0
  -28.2943  -17.6026   20.9443 H   0  0  0  0  0  0
  -27.5510  -16.3424   21.8733 H   0  0  0  0  0  0
  -31.5270  -18.5981   23.7591 H   0  0  0  0  0  0
  -30.4999  -17.3489   24.4274 H   0  0  0  0  0  0
  -27.9500  -17.5086   23.9392 H   0  0  0  0  0  0
  -27.4228  -18.7348   22.8114 H   0  0  0  0  0  0
  -30.6332  -24.7054   24.2388 H   0  0  0  0  0  0
  -29.6036  -15.4559   22.6553 H   0  0  0  0  0  0
  -29.3152  -27.3593   21.7527 H   0  0  0  0  0  0
  -29.7776  -20.8684   19.8995 H   0  0  0  0  0  0
  -28.3370  -20.0326   20.5016 H   0  0  0  0  0  0
  -29.9398  -19.3046   20.6666 H   0  0  0  0  0  0
  -29.6821  -22.2111   26.7048 H   0  0  0  0  0  0
  -29.0427  -23.6702   25.9695 H   0  0  0  0  0  0
  -30.7950  -23.4126   26.0547 H   0  0  0  0  0  0
  -28.9129  -16.4721   19.0124 H   0  0  0  0  0  0
  -30.5363  -16.0143   18.5652 H   0  0  0  0  0  0
  -30.2918  -17.4112   19.5738 H   0  0  0  0  0  0
  1 25  1  0  0  0
  1 30  2  0  0  0
  1 92  1  0  0  0
  2  3  1  0  0  0
  2 25  1  0  0  0
  2 93  1  0  0  0
  2 94  1  0  0  0
  3  4  1  0  0  0
  3 95  1  0  0  0
  3 96  1  0  0  0
  4  5  1  0  0  0
  4 97  1  0  0  0
  4 98  1  0  0  0
  5  6  1  0  0  0
  5 26  1  0  0  0
  5 99  1  0  0  0
  6 25  1  0  0  0
  6100  1  0  0  0
  6101  1  0  0  0
  7  8  2  0  0  0
  7 26  1  0  0  0
  7 29  1  0  0  0
  8  9  1  0  0  0
  8 22  1  0  0  0
  9 10  1  0  0  0
  9 27  2  0  0  0
 10 11  2  0  0  0
 10 15  1  0  0  0
 11 12  1  0  0  0
 11102  1  0  0  0
 12 13  2  0  0  0
 12103  1  0  0  0
 13 14  1  0  0  0
 13 31  1  0  0  0
 14 15  2  0  0  0
 14104  1  0  0  0
 15105  1  0  0  0
 16 17  2  0  0  0
 16 21  1  0  0  0
 16 31  1  0  0  0
 17 18  1  0  0  0
 17106  1  0  0  0
 18 19  2  0  0  0
 18107  1  0  0  0
 19 20  1  0  0  0
 19 24  1  0  0  0
 20 21  2  0  0  0
 20108  1  0  0  0
 21 23  1  0  0  0
 22 28  1  0  0  0
 22 32  2  0  0  0
 26 27  1  0  0  0
 28109  1  0  0  0
 28110  1  0  0  0
 29111  1  0  0  0
 29112  1  0  0  0
 33 34  1  0  0  0
 33 66  1  0  0  0
 33 70  2  0  0  0
 34 36  1  0  0  0
 34 59  1  0  0  0
 34113  1  0  0  0
 35 44  2  0  0  0
 35 45  1  0  0  0
 35 68  1  0  0  0
 36 56  1  0  0  0
 36114  1  0  0  0
 37 39  1  0  0  0
 37 47  1  0  0  0
 37 66  1  0  0  0
 37115  1  0  0  0
 38 43  2  0  0  0
 38 46  1  0  0  0
 38 47  1  0  0  0
 39 64  1  0  0  0
 39 67  2  0  0  0
 40 52  1  0  0  0
 40 53  2  0  0  0
 40 58  1  0  0  0
 41116  1  0  0  0
 41117  1  0  0  0
 41118  1  0  0  0
 41 48  1  0  0  0
 42 43  1  0  0  0
 42 66  1  0  0  0
 42119  1  0  0  0
 42120  1  0  0  0
 43 44  1  0  0  0
 44121  1  0  0  0
 45 46  2  0  0  0
 45122  1  0  0  0
 46123  1  0  0  0
 47124  1  0  0  0
 47125  1  0  0  0
 48 56  1  0  0  0
 48 65  1  0  0  0
 48126  1  0  0  0
 49 50  1  0  0  0
 49 53  1  0  0  0
 49 64  1  0  0  0
 49127  1  0  0  0
 50 51  1  0  0  0
 50128  1  0  0  0
 50129  1  0  0  0
 51 52  1  0  0  0
 51130  1  0  0  0
 51131  1  0  0  0
 52132  1  0  0  0
 52133  1  0  0  0
 53 54  1  0  0  0
 54 55  2  0  0  0
 54134  1  0  0  0
 55 57  1  0  0  0
 55135  1  0  0  0
 56 69  2  0  0  0
 57 58  2  0  0  0
 57136  1  0  0  0
 58137  1  0  0  0
 59 60  1  0  0  0
 59 61  1  0  0  0
 59 62  1  0  0  0
 60138  1  0  0  0
 60139  1  0  0  0
 60140  1  0  0  0
 61141  1  0  0  0
 61142  1  0  0  0
 61143  1  0  0  0
 62144  1  0  0  0
 62145  1  0  0  0
 62146  1  0  0  0
 63 65  1  0  0  0
 63147  1  0  0  0
 63148  1  0  0  0
 63149  1  0  0  0
 64150  1  0  0  0
 65151  1  0  0  0
 68 87  1  0  0  0
 71 73  2  0  0  0
 71 74  1  0  0  0
 71152  1  0  0  0
 72 75  2  0  0  0
 72 76  1  0  0  0
 72153  1  0  0  0
 73 75  1  0  0  0
 73 85  1  0  0  0
 74 76  2  0  0  0
 74 88  1  0  0  0
 75 89  1  0  0  0
 76 91  1  0  0  0
 77 79  1  0  0  0
 77 85  1  0  0  0
 77154  1  0  0  0
 77155  1  0  0  0
 78 80  1  0  0  0
 78 85  1  0  0  0
 78156  1  0  0  0
 78157  1  0  0  0
 79 87  1  0  0  0
 79158  1  0  0  0
 79159  1  0  0  0
 80 87  1  0  0  0
 80160  1  0  0  0
 80161  1  0  0  0
 81 83  1  0  0  0
 81 86  1  0  0  0
 81162  1  0  0  0
 81163  1  0  0  0
 82 84  1  0  0  0
 82 86  1  0  0  0
 82164  1  0  0  0
 82165  1  0  0  0
 83 91  1  0  0  0
 83166  1  0  0  0
 83167  1  0  0  0
 84 91  1  0  0  0
 84168  1  0  0  0
 84169  1  0  0  0
 85170  1  0  0  0
 86 92  1  0  0  0
 86171  1  0  0  0
 87172  1  0  0  0
 88173  1  0  0  0
 88174  1  0  0  0
 88175  1  0  0  0
 89176  1  0  0  0
 89177  1  0  0  0
 89178  1  0  0  0
 90 92  1  0  0  0
 90179  1  0  0  0
 90180  1  0  0  0
 90181  1  0  0  0
M  ISO  4   1 100  68 101  87 101  92 100
M  END
> <chiral flag>
0

> <version>
0

> <s_m_source_file>
/data/baiqing/PycharmProjects/Reinvent-master-3.2/result/LINK_invent/BTK/process_docking_weight1_custom_sum_contain_oxygen_bond_distance_aromatic_linkinvent_7_9_3/rearranged_h_0156.sdf

> <i_m_source_file_index>
19

> <r_mmod_Potential_Energy-OPLS-2005>
229.641387939453

> <r_mmod_Stretch_Energy-OPLS-2005>
39.0830001831055

> <r_mmod_Bend_Energy-OPLS-2005>
122.008888244629

> <r_mmod_Torsional_Energy-OPLS-2005>
409.05224609375

> <r_mmod_Improper_Torsional_Energy-OPLS-2005>
16.8464965820312

> <r_mmod_Van_der_Waal_Energy-OPLS-2005>
157.200149536133

> <r_mmod_Electrostatic_Energy-OPLS-2005>
-337.067718505859

> <r_mmod_Solvation_Energy-OPLS-2005>
-191.713851928711

> <b_mmod_Minimization_Converged-OPLS-2005>
0

> <r_mmod_RMS_Derivative-OPLS-2005>
3.97685599327087

$$$$
19
                    3D
 Structure written by MMmdl.
163172  0  0  1  0            999 V2000
  -30.6445  -14.7111   20.4562 C   0  0  0  0  0  0
  -30.4297  -12.4312   19.4794 C   0  0  0  0  0  0
  -29.5090  -12.4969   18.2413 C   0  0  0  0  0  0
  -28.0357  -12.3253   18.6565 C   0  0  0  0  0  0
  -27.6435  -13.2321   19.8533 C   0  0  2  0  0  0
  -28.6886  -13.1718   20.9905 C   0  0  0  0  0  0
  -25.2506  -13.8198   20.5710 C   0  0  0  0  0  0
  -24.1791  -13.0443   20.9204 C   0  0  0  0  0  0
  -24.6386  -11.6925   20.8749 C   0  0  0  0  0  0
  -23.9059  -10.4300   21.0405 C   0  0  0  0  0  0
  -24.3605   -9.4212   21.9190 C   0  0  0  0  0  0
  -23.6284   -8.2244   22.0753 C   0  0  0  0  0  0
  -22.4274   -8.0274   21.3539 C   0  0  0  0  0  0
  -21.9905   -9.0250   20.4639 C   0  0  0  0  0  0
  -22.7233  -10.2131   20.3054 C   0  0  0  0  0  0
  -21.6853   -6.0728   22.5273 C   0  0  0  0  0  0
  -21.4014   -6.5632   23.8203 C   0  0  0  0  0  0
  -21.3663   -5.6791   24.9167 C   0  0  0  0  0  0
  -21.6054   -4.3053   24.7223 C   0  0  0  0  0  0
  -21.8814   -3.8139   23.4344 C   0  0  0  0  0  0
  -21.9191   -4.6955   22.3403 C   0  0  0  0  0  0
  -22.7807  -13.5215   21.1880 C   0  0  0  0  0  0
  -22.1660   -4.2140   21.0983 F   0  0  0  0  0  0
  -21.5637   -3.4538   25.7739 F   0  0  0  0  0  0
  -29.9975  -13.4988   20.4092 N   0  0  0  0  0  0
  -26.2939  -12.9418   20.3307 N   0  0  0  0  0  0
  -25.9321  -11.6560   20.5767 N   0  0  0  0  0  0
  -22.0458  -12.8190   22.0424 N   0  0  0  0  0  0
  -25.4205  -15.1925   20.4143 N   0  0  0  0  0  0
  -31.8303  -14.7928   20.1293 O   0  0  0  0  0  0
  -21.6645   -6.8871   21.4237 O   0  0  0  0  0  0
  -22.3489  -14.5538   20.6757 O   0  0  0  0  0  0
  -24.6278  -31.8579   23.2010 C   0  0  0  0  0  0
  -25.9110  -32.4782   23.8358 C   0  0  1  0  0  0
  -27.2255  -27.2897   20.1228 C   0  0  0  0  0  0
  -25.5918  -33.8586   24.2268 N   0  0  0  0  0  0
  -23.4241  -30.4814   21.5428 C   0  0  2  0  0  0
  -24.8742  -28.9383   20.1087 C   0  0  0  0  0  0
  -22.7486  -29.4610   22.4907 C   0  0  0  0  0  0
  -18.0285  -28.1390   22.8463 C   0  0  0  0  0  0
  -24.1492  -36.7295   23.2637 C   0  0  0  0  0  0
  -25.9688  -30.7809   21.3781 C   0  0  0  0  0  0
  -26.0451  -29.4064   20.7190 C   0  0  0  0  0  0
  -27.2221  -28.5936   20.7178 C   0  0  0  0  0  0
  -26.0322  -26.8955   19.4713 C   0  0  0  0  0  0
  -24.8724  -27.6889   19.4756 C   0  0  0  0  0  0
  -23.6424  -29.8181   20.1585 C   0  0  0  0  0  0
  -25.4116  -36.3088   24.0332 C   0  0  1  0  0  0
  -20.5892  -28.3691   23.1266 C   0  0  2  0  0  0
  -20.6772  -26.9411   22.5395 C   0  0  0  0  0  0
  -19.5759  -26.6368   21.5194 C   0  0  0  0  0  0
  -18.1927  -26.7930   22.1594 C   0  0  0  0  0  0
  -19.1547  -28.8851   23.2863 C   0  0  0  0  0  0
  -18.9473  -30.1443   23.8896 C   0  0  0  0  0  0
  -17.6482  -30.6588   24.0554 C   0  0  0  0  0  0
  -25.9056  -34.9460   23.5099 C   0  0  0  0  0  0
  -16.5366  -29.9090   23.6337 C   0  0  0  0  0  0
  -16.7274  -28.6510   23.0351 C   0  0  0  0  0  0
  -26.4495  -31.6606   25.0740 C   0  0  0  0  0  0
  -25.3715  -31.3751   26.1454 C   0  0  0  0  0  0
  -27.0348  -30.3036   24.6193 C   0  0  0  0  0  0
  -27.6043  -32.4344   25.7519 C   0  0  0  0  0  0
  -27.5583  -37.1802   24.8461 C   0  0  0  0  0  0
  -21.4190  -29.3050   22.3667 N   0  0  0  0  0  0
  -26.4287  -37.3781   23.9417 N   0  0  0  0  0  0
  -24.6927  -31.0562   22.0975 N   0  0  0  0  0  0
  -23.4193  -28.8115   23.2980 O   0  0  0  0  0  0
  -28.3198  -26.3968   20.1969 O   0  0  0  0  0  0
  -26.5610  -34.8921   22.4655 O   0  0  0  0  0  0
  -23.5435  -32.1380   23.7317 O   0  0  0  0  0  0
  -29.2167  -19.5895   23.2245 C   0  0  0  0  0  0
  -29.3955  -19.8129   20.4307 C   0  0  0  0  0  0
  -28.7740  -20.7481   22.5667 C   0  0  0  0  0  0
  -28.9318  -20.9517   21.1959 C   0  0  0  0  0  0
  -29.7513  -18.5126   22.4849 C   0  0  0  0  0  0
  -29.7763  -18.5523   21.0623 C   0  0  0  0  0  0
  -27.9270  -21.8091   23.2030 C   0  0  0  0  0  0
  -27.2713  -22.4958   21.9909 C   0  0  0  0  0  0
  -28.2273  -22.3129   20.7740 C   0  0  1  0  0  0
  -30.2871  -17.3250   23.2659 C   0  0  0  0  0  0
  -29.8565  -24.1655   21.7236 C   0  0  0  0  0  0
  -30.2835  -17.2853   20.2518 C   0  0  0  0  0  0
  -28.0278  -24.9371   20.0501 C   0  0  0  0  0  0
  -28.9900  -23.7283   20.5291 C   0  0  2  0  0  0
  -29.8956  -15.8581   20.6288 N   0  0  0  0  0  0
  -31.4735  -12.5377   19.1786 H   0  0  0  0  0  0
  -30.3583  -11.4572   19.9651 H   0  0  0  0  0  0
  -29.7861  -11.7234   17.5243 H   0  0  0  0  0  0
  -29.6397  -13.4518   17.7303 H   0  0  0  0  0  0
  -27.8942  -11.2784   18.9275 H   0  0  0  0  0  0
  -27.3763  -12.5082   17.8074 H   0  0  0  0  0  0
  -27.6364  -14.2515   19.4667 H   0  0  0  0  0  0
  -28.7098  -12.1811   21.4459 H   0  0  0  0  0  0
  -28.4294  -13.8697   21.7886 H   0  0  0  0  0  0
  -25.2738   -9.5703   22.4778 H   0  0  0  0  0  0
  -23.9997   -7.4635   22.7473 H   0  0  0  0  0  0
  -21.0840   -8.8756   19.8941 H   0  0  0  0  0  0
  -22.3679  -10.9669   19.6165 H   0  0  0  0  0  0
  -21.1998   -7.6137   23.9704 H   0  0  0  0  0  0
  -21.1501   -6.0524   25.9075 H   0  0  0  0  0  0
  -22.0593   -2.7600   23.2849 H   0  0  0  0  0  0
  -22.4071  -11.9825   22.4778 H   0  0  0  0  0  0
  -21.1078  -13.1210   22.2663 H   0  0  0  0  0  0
  -24.6544  -15.8480   20.5271 H   0  0  0  0  0  0
  -26.2708  -15.6345   20.0903 H   0  0  0  0  0  0
  -26.7175  -32.5446   23.1106 H   0  0  0  0  0  0
  -25.0126  -33.9745   25.0460 H   0  0  0  0  0  0
  -22.7195  -31.3027   21.3953 H   0  0  0  0  0  0
  -23.3765  -35.9613   23.3290 H   0  0  0  0  0  0
  -24.3586  -36.8925   22.2053 H   0  0  0  0  0  0
  -23.7239  -37.6489   23.6670 H   0  0  0  0  0  0
  -26.1003  -31.5428   20.6085 H   0  0  0  0  0  0
  -26.8483  -30.8316   22.0083 H   0  0  0  0  0  0
  -28.1133  -28.9411   21.2206 H   0  0  0  0  0  0
  -25.9567  -25.9460   18.9645 H   0  0  0  0  0  0
  -23.9785  -27.3246   18.9891 H   0  0  0  0  0  0
  -23.7619  -30.5942   19.4022 H   0  0  0  0  0  0
  -22.7639  -29.2468   19.8539 H   0  0  0  0  0  0
  -25.1297  -36.1937   25.0823 H   0  0  0  0  0  0
  -20.9978  -28.3258   24.1392 H   0  0  0  0  0  0
  -20.5667  -26.2297   23.3593 H   0  0  0  0  0  0
  -21.6645  -26.7425   22.1201 H   0  0  0  0  0  0
  -19.6940  -25.6272   21.1234 H   0  0  0  0  0  0
  -19.6721  -27.3161   20.6715 H   0  0  0  0  0  0
  -17.4203  -26.6680   21.3986 H   0  0  0  0  0  0
  -18.0328  -26.0063   22.8983 H   0  0  0  0  0  0
  -19.7961  -30.7240   24.2268 H   0  0  0  0  0  0
  -17.5048  -31.6280   24.5140 H   0  0  0  0  0  0
  -15.5372  -30.2998   23.7671 H   0  0  0  0  0  0
  -15.8665  -28.0821   22.7085 H   0  0  0  0  0  0
  -24.5946  -30.7027   25.7813 H   0  0  0  0  0  0
  -24.8829  -32.2904   26.4808 H   0  0  0  0  0  0
  -25.8030  -30.9023   27.0283 H   0  0  0  0  0  0
  -26.2938  -29.6796   24.1190 H   0  0  0  0  0  0
  -27.4040  -29.7293   25.4698 H   0  0  0  0  0  0
  -27.8798  -30.4355   23.9433 H   0  0  0  0  0  0
  -27.2669  -33.3678   26.2047 H   0  0  0  0  0  0
  -28.3896  -32.6851   25.0376 H   0  0  0  0  0  0
  -28.0656  -31.8493   26.5487 H   0  0  0  0  0  0
  -28.2577  -38.0121   24.7520 H   0  0  0  0  0  0
  -28.1099  -36.2648   24.6263 H   0  0  0  0  0  0
  -27.2292  -37.1415   25.8859 H   0  0  0  0  0  0
  -20.9358  -29.8850   21.6949 H   0  0  0  0  0  0
  -26.0173  -38.2854   24.1418 H   0  0  0  0  0  0
  -29.1041  -19.5102   24.2975 H   0  0  0  0  0  0
  -29.4094  -19.8887   19.3519 H   0  0  0  0  0  0
  -28.5537  -22.4938   23.7743 H   0  0  0  0  0  0
  -27.1814  -21.3817   23.8751 H   0  0  0  0  0  0
  -26.9659  -23.5135   22.2251 H   0  0  0  0  0  0
  -26.3551  -21.9500   21.7621 H   0  0  0  0  0  0
  -27.6350  -22.1060   19.8814 H   0  0  0  0  0  0
  -30.5495  -17.6148   24.2842 H   0  0  0  0  0  0
  -31.1947  -16.9270   22.8103 H   0  0  0  0  0  0
  -29.5410  -16.5326   23.3224 H   0  0  0  0  0  0
  -30.5361  -23.3713   22.0330 H   0  0  0  0  0  0
  -29.2507  -24.4493   22.5831 H   0  0  0  0  0  0
  -30.4641  -25.0325   21.4612 H   0  0  0  0  0  0
  -31.3724  -17.3531   20.2653 H   0  0  0  0  0  0
  -30.0074  -17.4268   19.2059 H   0  0  0  0  0  0
  -27.0680  -24.7709   20.5325 H   0  0  0  0  0  0
  -27.8436  -24.7661   18.9887 H   0  0  0  0  0  0
  -29.6927  -23.5588   19.7131 H   0  0  0  0  0  0
  -28.9223  -15.7159   20.8485 H   0  0  0  0  0  0
  1 25  1  0  0  0
  1 30  2  0  0  0
  1 85  1  0  0  0
  2  3  1  0  0  0
  2 25  1  0  0  0
  2 86  1  0  0  0
  2 87  1  0  0  0
  3  4  1  0  0  0
  3 88  1  0  0  0
  3 89  1  0  0  0
  4  5  1  0  0  0
  4 90  1  0  0  0
  4 91  1  0  0  0
  5  6  1  0  0  0
  5 26  1  0  0  0
  5 92  1  0  0  0
  6 25  1  0  0  0
  6 93  1  0  0  0
  6 94  1  0  0  0
  7  8  2  0  0  0
  7 26  1  0  0  0
  7 29  1  0  0  0
  8  9  1  0  0  0
  8 22  1  0  0  0
  9 10  1  0  0  0
  9 27  2  0  0  0
 10 11  2  0  0  0
 10 15  1  0  0  0
 11 12  1  0  0  0
 11 95  1  0  0  0
 12 13  2  0  0  0
 12 96  1  0  0  0
 13 14  1  0  0  0
 13 31  1  0  0  0
 14 15  2  0  0  0
 14 97  1  0  0  0
 15 98  1  0  0  0
 16 17  2  0  0  0
 16 21  1  0  0  0
 16 31  1  0  0  0
 17 18  1  0  0  0
 17 99  1  0  0  0
 18 19  2  0  0  0
 18100  1  0  0  0
 19 20  1  0  0  0
 19 24  1  0  0  0
 20 21  2  0  0  0
 20101  1  0  0  0
 21 23  1  0  0  0
 22 28  1  0  0  0
 22 32  2  0  0  0
 26 27  1  0  0  0
 28102  1  0  0  0
 28103  1  0  0  0
 29104  1  0  0  0
 29105  1  0  0  0
 33 34  1  0  0  0
 33 66  1  0  0  0
 33 70  2  0  0  0
 34 36  1  0  0  0
 34 59  1  0  0  0
 34106  1  0  0  0
 35 44  2  0  0  0
 35 45  1  0  0  0
 35 68  1  0  0  0
 36 56  1  0  0  0
 36107  1  0  0  0
 37 39  1  0  0  0
 37 47  1  0  0  0
 37 66  1  0  0  0
 37108  1  0  0  0
 38 43  2  0  0  0
 38 46  1  0  0  0
 38 47  1  0  0  0
 39 64  1  0  0  0
 39 67  2  0  0  0
 40 52  1  0  0  0
 40 53  2  0  0  0
 40 58  1  0  0  0
 41109  1  0  0  0
 41110  1  0  0  0
 41111  1  0  0  0
 41 48  1  0  0  0
 42 43  1  0  0  0
 42 66  1  0  0  0
 42112  1  0  0  0
 42113  1  0  0  0
 43 44  1  0  0  0
 44114  1  0  0  0
 45 46  2  0  0  0
 45115  1  0  0  0
 46116  1  0  0  0
 47117  1  0  0  0
 47118  1  0  0  0
 48 56  1  0  0  0
 48 65  1  0  0  0
 48119  1  0  0  0
 49 50  1  0  0  0
 49 53  1  0  0  0
 49 64  1  0  0  0
 49120  1  0  0  0
 50 51  1  0  0  0
 50121  1  0  0  0
 50122  1  0  0  0
 51 52  1  0  0  0
 51123  1  0  0  0
 51124  1  0  0  0
 52125  1  0  0  0
 52126  1  0  0  0
 53 54  1  0  0  0
 54 55  2  0  0  0
 54127  1  0  0  0
 55 57  1  0  0  0
 55128  1  0  0  0
 56 69  2  0  0  0
 57 58  2  0  0  0
 57129  1  0  0  0
 58130  1  0  0  0
 59 60  1  0  0  0
 59 61  1  0  0  0
 59 62  1  0  0  0
 60131  1  0  0  0
 60132  1  0  0  0
 60133  1  0  0  0
 61134  1  0  0  0
 61135  1  0  0  0
 61136  1  0  0  0
 62137  1  0  0  0
 62138  1  0  0  0
 62139  1  0  0  0
 63 65  1  0  0  0
 63140  1  0  0  0
 63141  1  0  0  0
 63142  1  0  0  0
 64143  1  0  0  0
 65144  1  0  0  0
 68 83  1  0  0  0
 71 73  2  0  0  0
 71 75  1  0  0  0
 71145  1  0  0  0
 72 74  2  0  0  0
 72 76  1  0  0  0
 72146  1  0  0  0
 73 74  1  0  0  0
 73 77  1  0  0  0
 74 79  1  0  0  0
 75 76  2  0  0  0
 75 80  1  0  0  0
 76 82  1  0  0  0
 77 78  1  0  0  0
 77147  1  0  0  0
 77148  1  0  0  0
 78149  1  0  0  0
 78150  1  0  0  0
 78 79  1  0  0  0
 79 84  1  0  0  0
 79151  1  0  0  0
 80152  1  0  0  0
 80153  1  0  0  0
 80154  1  0  0  0
 81155  1  0  0  0
 81156  1  0  0  0
 81157  1  0  0  0
 81 84  1  0  0  0
 82 85  1  0  0  0
 82158  1  0  0  0
 82159  1  0  0  0
 83 84  1  0  0  0
 83160  1  0  0  0
 83161  1  0  0  0
 84162  1  0  0  0
 85163  1  0  0  0
M  ISO  4   1 100  68 101  83 101  85 100
M  END
> <chiral flag>
0

> <version>
0

> <s_m_source_file>
/data/baiqing/PycharmProjects/Reinvent-master-3.2/result/LINK_invent/BTK/process_docking_weight1_custom_sum_contain_oxygen_bond_distance_aromatic_linkinvent_7_9_3/rearranged_h_0156.sdf

> <i_m_source_file_index>
20

> <r_mmod_Potential_Energy-OPLS-2005>
175.356735229492

> <r_mmod_Stretch_Energy-OPLS-2005>
114.172714233398

> <r_mmod_Bend_Energy-OPLS-2005>
212.756057739258

> <r_mmod_Torsional_Energy-OPLS-2005>
245.108032226562

> <r_mmod_Improper_Torsional_Energy-OPLS-2005>
9.38937854766846

> <r_mmod_Van_der_Waal_Energy-OPLS-2005>
143.807846069336

> <r_mmod_Electrostatic_Energy-OPLS-2005>
-421.659240722656

> <r_mmod_Solvation_Energy-OPLS-2005>
-201.839996337891

> <b_mmod_Minimization_Converged-OPLS-2005>
0

> <r_mmod_RMS_Derivative-OPLS-2005>
2.06874942779541

$$$$
20
                    3D
 Structure written by MMmdl.
167176  0  0  1  0            999 V2000
  -30.6743  -14.5974   20.4804 C   0  0  0  0  0  0
  -30.4160  -12.3631   19.4502 C   0  0  0  0  0  0
  -29.4968  -12.4895   18.2180 C   0  0  0  0  0  0
  -28.0195  -12.3446   18.6326 C   0  0  0  0  0  0
  -27.6466  -13.2254   19.8566 C   0  0  2  0  0  0
  -28.6920  -13.1113   20.9873 C   0  0  0  0  0  0
  -25.2538  -13.8202   20.5700 C   0  0  0  0  0  0
  -24.1810  -13.0452   20.9185 C   0  0  0  0  0  0
  -24.6391  -11.6926   20.8742 C   0  0  0  0  0  0
  -23.9068  -10.4303   21.0405 C   0  0  0  0  0  0
  -24.3620   -9.4216   21.9182 C   0  0  0  0  0  0
  -23.6295   -8.2251   22.0755 C   0  0  0  0  0  0
  -22.4278   -8.0285   21.3544 C   0  0  0  0  0  0
  -21.9913   -9.0259   20.4644 C   0  0  0  0  0  0
  -22.7242  -10.2138   20.3054 C   0  0  0  0  0  0
  -21.6854   -6.0736   22.5276 C   0  0  0  0  0  0
  -21.4014   -6.5639   23.8209 C   0  0  0  0  0  0
  -21.3660   -5.6793   24.9171 C   0  0  0  0  0  0
  -21.6045   -4.3057   24.7225 C   0  0  0  0  0  0
  -21.8819   -3.8148   23.4346 C   0  0  0  0  0  0
  -21.9194   -4.6963   22.3401 C   0  0  0  0  0  0
  -22.7832  -13.5235   21.1850 C   0  0  0  0  0  0
  -22.1661   -4.2148   21.0978 F   0  0  0  0  0  0
  -21.5632   -3.4541   25.7738 F   0  0  0  0  0  0
  -30.0034  -13.4096   20.4035 N   0  0  0  0  0  0
  -26.2964  -12.9397   20.3321 N   0  0  0  0  0  0
  -25.9323  -11.6542   20.5771 N   0  0  0  0  0  0
  -22.0484  -12.8217   22.0406 N   0  0  0  0  0  0
  -25.4272  -15.1920   20.4143 N   0  0  0  0  0  0
  -31.8702  -14.6695   20.1800 O   0  0  0  0  0  0
  -21.6644   -6.8880   21.4238 O   0  0  0  0  0  0
  -22.3514  -14.5545   20.6710 O   0  0  0  0  0  0
  -24.6217  -31.8622   23.2049 C   0  0  0  0  0  0
  -25.9083  -32.4788   23.8371 C   0  0  1  0  0  0
  -27.2251  -27.3641   20.1164 C   0  0  0  0  0  0
  -25.5915  -33.8589   24.2303 N   0  0  0  0  0  0
  -23.4140  -30.4842   21.5460 C   0  0  2  0  0  0
  -24.8623  -28.9396   20.1146 C   0  0  0  0  0  0
  -22.7450  -29.4629   22.4956 C   0  0  0  0  0  0
  -18.0280  -28.1382   22.8489 C   0  0  0  0  0  0
  -24.1485  -36.7295   23.2639 C   0  0  0  0  0  0
  -25.9494  -30.8063   21.3690 C   0  0  0  0  0  0
  -26.0265  -29.4341   20.7185 C   0  0  0  0  0  0
  -27.2152  -28.6544   20.7152 C   0  0  0  0  0  0
  -26.0477  -26.9014   19.5006 C   0  0  0  0  0  0
  -24.8708  -27.6753   19.4996 C   0  0  0  0  0  0
  -23.6278  -29.8155   20.1617 C   0  0  0  0  0  0
  -25.4106  -36.3089   24.0336 C   0  0  1  0  0  0
  -20.5876  -28.3679   23.1293 C   0  0  2  0  0  0
  -20.6771  -26.9406   22.5413 C   0  0  0  0  0  0
  -19.5746  -26.6383   21.5213 C   0  0  0  0  0  0
  -18.1924  -26.7928   22.1622 C   0  0  0  0  0  0
  -19.1531  -28.8849   23.2888 C   0  0  0  0  0  0
  -18.9458  -30.1453   23.8902 C   0  0  0  0  0  0
  -17.6458  -30.6588   24.0564 C   0  0  0  0  0  0
  -25.9041  -34.9457   23.5117 C   0  0  0  0  0  0
  -16.5351  -29.9085   23.6330 C   0  0  0  0  0  0
  -16.7269  -28.6502   23.0352 C   0  0  0  0  0  0
  -26.4492  -31.6578   25.0720 C   0  0  0  0  0  0
  -25.3746  -31.3688   26.1458 C   0  0  0  0  0  0
  -27.0332  -30.3011   24.6132 C   0  0  0  0  0  0
  -27.6061  -32.4304   25.7484 C   0  0  0  0  0  0
  -27.5583  -37.1793   24.8461 C   0  0  0  0  0  0
  -21.4169  -29.3036   22.3695 N   0  0  0  0  0  0
  -26.4284  -37.3783   23.9421 N   0  0  0  0  0  0
  -24.6802  -31.0667   22.0978 N   0  0  0  0  0  0
  -23.4189  -28.8176   23.3029 O   0  0  0  0  0  0
  -28.3352  -26.5305   20.1002 O   0  0  0  0  0  0
  -26.5607  -34.8921   22.4681 O   0  0  0  0  0  0
  -23.5393  -32.1409   23.7397 O   0  0  0  0  0  0
  -28.9591  -23.4280   19.8619 C   0  0  0  0  0  0
  -28.3346  -24.0509   20.9707 C   0  0  0  0  0  0
  -28.9550  -22.0123   19.6807 C   0  0  0  0  0  0
  -27.7192  -23.1847   21.9275 C   0  0  0  0  0  0
  -27.6957  -21.7627   21.7383 C   0  0  0  0  0  0
  -28.3254  -21.1503   20.6208 C   0  0  0  0  0  0
  -29.0414  -17.8650   21.7080 C   0  0  0  0  0  0
  -29.0595  -17.8277   19.2598 C   0  0  0  0  0  0
  -29.9932  -16.6155   21.7184 C   0  0  0  0  0  0
  -30.0390  -16.6187   19.3105 C   0  0  0  0  0  0
  -29.1861  -18.7846   20.4656 C   0  0  0  0  0  0
  -29.5905  -21.4332   18.4305 C   0  0  0  0  0  0
  -27.0797  -23.7995   23.1732 C   0  0  0  0  0  0
  -26.9666  -20.8690   22.7383 C   0  0  0  0  0  0
  -28.4404  -25.6007   21.2152 C   0  0  0  0  0  0
  -29.9232  -15.7528   20.5128 N   0  0  0  0  0  0
  -28.1277  -19.7812   20.3891 O   0  0  0  0  0  0
  -31.4619  -12.4539   19.1510 H   0  0  0  0  0  0
  -30.3188  -11.3763   19.9056 H   0  0  0  0  0  0
  -29.7523  -11.7316   17.4761 H   0  0  0  0  0  0
  -29.6517  -13.4554   17.7349 H   0  0  0  0  0  0
  -27.8478  -11.2934   18.8680 H   0  0  0  0  0  0
  -27.3667  -12.5760   17.7900 H   0  0  0  0  0  0
  -27.6580  -14.2572   19.5045 H   0  0  0  0  0  0
  -28.6912  -12.1106   21.4219 H   0  0  0  0  0  0
  -28.4580  -13.8030   21.7985 H   0  0  0  0  0  0
  -25.2763   -9.5694   22.4757 H   0  0  0  0  0  0
  -24.0004   -7.4644   22.7478 H   0  0  0  0  0  0
  -21.0845   -8.8778   19.8950 H   0  0  0  0  0  0
  -22.3701  -10.9677   19.6164 H   0  0  0  0  0  0
  -21.2005   -7.6146   23.9711 H   0  0  0  0  0  0
  -21.1481   -6.0524   25.9073 H   0  0  0  0  0  0
  -22.0598   -2.7610   23.2848 H   0  0  0  0  0  0
  -22.4110  -11.9872   22.4774 H   0  0  0  0  0  0
  -21.1104  -13.1237   22.2626 H   0  0  0  0  0  0
  -24.6689  -15.8539   20.5358 H   0  0  0  0  0  0
  -26.2959  -15.6295   20.1344 H   0  0  0  0  0  0
  -26.7153  -32.5480   23.1128 H   0  0  0  0  0  0
  -25.0084  -33.9746   25.0463 H   0  0  0  0  0  0
  -22.7060  -31.3030   21.4023 H   0  0  0  0  0  0
  -23.3756  -35.9616   23.3283 H   0  0  0  0  0  0
  -24.3590  -36.8933   22.2058 H   0  0  0  0  0  0
  -23.7221  -37.6485   23.6671 H   0  0  0  0  0  0
  -26.0708  -31.5681   20.5976 H   0  0  0  0  0  0
  -26.8333  -30.8609   21.9925 H   0  0  0  0  0  0
  -28.1136  -29.0286   21.1857 H   0  0  0  0  0  0
  -26.0400  -25.9270   19.0325 H   0  0  0  0  0  0
  -23.9778  -27.2889   19.0276 H   0  0  0  0  0  0
  -23.7434  -30.5906   19.4031 H   0  0  0  0  0  0
  -22.7499  -29.2405   19.8617 H   0  0  0  0  0  0
  -25.1281  -36.1941   25.0828 H   0  0  0  0  0  0
  -20.9969  -28.3250   24.1412 H   0  0  0  0  0  0
  -20.5673  -26.2289   23.3609 H   0  0  0  0  0  0
  -21.6641  -26.7440   22.1204 H   0  0  0  0  0  0
  -19.6907  -25.6294   21.1239 H   0  0  0  0  0  0
  -19.6683  -27.3199   20.6748 H   0  0  0  0  0  0
  -17.4196  -26.6685   21.4021 H   0  0  0  0  0  0
  -18.0317  -26.0067   22.9014 H   0  0  0  0  0  0
  -19.7935  -30.7268   24.2271 H   0  0  0  0  0  0
  -17.5013  -31.6269   24.5162 H   0  0  0  0  0  0
  -15.5352  -30.2988   23.7653 H   0  0  0  0  0  0
  -15.8671  -28.0823   22.7062 H   0  0  0  0  0  0
  -24.5925  -30.7032   25.7788 H   0  0  0  0  0  0
  -24.8935  -32.2842   26.4913 H   0  0  0  0  0  0
  -25.8091  -30.8850   27.0214 H   0  0  0  0  0  0
  -26.2889  -29.6752   24.1193 H   0  0  0  0  0  0
  -27.4095  -29.7266   25.4607 H   0  0  0  0  0  0
  -27.8726  -30.4321   23.9301 H   0  0  0  0  0  0
  -27.2687  -33.3611   26.2057 H   0  0  0  0  0  0
  -28.3871  -32.6847   25.0305 H   0  0  0  0  0  0
  -28.0726  -31.8427   26.5401 H   0  0  0  0  0  0
  -28.2568  -38.0123   24.7552 H   0  0  0  0  0  0
  -28.1110  -36.2655   24.6223 H   0  0  0  0  0  0
  -27.2311  -37.1363   25.8866 H   0  0  0  0  0  0
  -20.9342  -29.8761   21.6911 H   0  0  0  0  0  0
  -26.0164  -38.2849   24.1454 H   0  0  0  0  0  0
  -29.4534  -24.0572   19.1346 H   0  0  0  0  0  0
  -29.2039  -18.4540   22.6113 H   0  0  0  0  0  0
  -28.0108  -17.5122   21.7663 H   0  0  0  0  0  0
  -28.0372  -17.4512   19.2032 H   0  0  0  0  0  0
  -29.2235  -18.3834   18.3367 H   0  0  0  0  0  0
  -29.7719  -16.0100   22.5989 H   0  0  0  0  0  0
  -31.0230  -16.9570   21.8404 H   0  0  0  0  0  0
  -31.0614  -16.9955   19.2355 H   0  0  0  0  0  0
  -29.8790  -16.0086   18.4190 H   0  0  0  0  0  0
  -30.1665  -19.2631   20.4665 H   0  0  0  0  0  0
  -29.8613  -22.2138   17.7194 H   0  0  0  0  0  0
  -28.8980  -20.7563   17.9302 H   0  0  0  0  0  0
  -30.4946  -20.8795   18.6826 H   0  0  0  0  0  0
  -27.7925  -24.4441   23.6878 H   0  0  0  0  0  0
  -26.7466  -23.0800   23.9170 H   0  0  0  0  0  0
  -26.2117  -24.3980   22.8946 H   0  0  0  0  0  0
  -25.9421  -21.2113   22.8841 H   0  0  0  0  0  0
  -27.4795  -20.8793   23.7001 H   0  0  0  0  0  0
  -26.9016  -19.8293   22.4223 H   0  0  0  0  0  0
  -29.4213  -25.7695   21.6598 H   0  0  0  0  0  0
  -27.7348  -25.9192   21.9812 H   0  0  0  0  0  0
  1 25  1  0  0  0
  1 30  2  0  0  0
  1 86  1  0  0  0
  2  3  1  0  0  0
  2 25  1  0  0  0
  2 88  1  0  0  0
  2 89  1  0  0  0
  3  4  1  0  0  0
  3 90  1  0  0  0
  3 91  1  0  0  0
  4  5  1  0  0  0
  4 92  1  0  0  0
  4 93  1  0  0  0
  5  6  1  0  0  0
  5 26  1  0  0  0
  5 94  1  0  0  0
  6 25  1  0  0  0
  6 95  1  0  0  0
  6 96  1  0  0  0
  7  8  2  0  0  0
  7 26  1  0  0  0
  7 29  1  0  0  0
  8  9  1  0  0  0
  8 22  1  0  0  0
  9 10  1  0  0  0
  9 27  2  0  0  0
 10 11  2  0  0  0
 10 15  1  0  0  0
 11 12  1  0  0  0
 11 97  1  0  0  0
 12 13  2  0  0  0
 12 98  1  0  0  0
 13 14  1  0  0  0
 13 31  1  0  0  0
 14 15  2  0  0  0
 14 99  1  0  0  0
 15100  1  0  0  0
 16 17  2  0  0  0
 16 21  1  0  0  0
 16 31  1  0  0  0
 17 18  1  0  0  0
 17101  1  0  0  0
 18 19  2  0  0  0
 18102  1  0  0  0
 19 20  1  0  0  0
 19 24  1  0  0  0
 20 21  2  0  0  0
 20103  1  0  0  0
 21 23  1  0  0  0
 22 28  1  0  0  0
 22 32  2  0  0  0
 26 27  1  0  0  0
 28104  1  0  0  0
 28105  1  0  0  0
 29106  1  0  0  0
 29107  1  0  0  0
 33 34  1  0  0  0
 33 66  1  0  0  0
 33 70  2  0  0  0
 34 36  1  0  0  0
 34 59  1  0  0  0
 34108  1  0  0  0
 35 44  2  0  0  0
 35 45  1  0  0  0
 35 68  1  0  0  0
 36 56  1  0  0  0
 36109  1  0  0  0
 37 39  1  0  0  0
 37 47  1  0  0  0
 37 66  1  0  0  0
 37110  1  0  0  0
 38 43  2  0  0  0
 38 46  1  0  0  0
 38 47  1  0  0  0
 39 64  1  0  0  0
 39 67  2  0  0  0
 40 52  1  0  0  0
 40 53  2  0  0  0
 40 58  1  0  0  0
 41111  1  0  0  0
 41112  1  0  0  0
 41113  1  0  0  0
 41 48  1  0  0  0
 42 43  1  0  0  0
 42 66  1  0  0  0
 42114  1  0  0  0
 42115  1  0  0  0
 43 44  1  0  0  0
 44116  1  0  0  0
 45 46  2  0  0  0
 45117  1  0  0  0
 46118  1  0  0  0
 47119  1  0  0  0
 47120  1  0  0  0
 48 56  1  0  0  0
 48 65  1  0  0  0
 48121  1  0  0  0
 49 50  1  0  0  0
 49 53  1  0  0  0
 49 64  1  0  0  0
 49122  1  0  0  0
 50 51  1  0  0  0
 50123  1  0  0  0
 50124  1  0  0  0
 51 52  1  0  0  0
 51125  1  0  0  0
 51126  1  0  0  0
 52127  1  0  0  0
 52128  1  0  0  0
 53 54  1  0  0  0
 54 55  2  0  0  0
 54129  1  0  0  0
 55 57  1  0  0  0
 55130  1  0  0  0
 56 69  2  0  0  0
 57 58  2  0  0  0
 57131  1  0  0  0
 58132  1  0  0  0
 59 60  1  0  0  0
 59 61  1  0  0  0
 59 62  1  0  0  0
 60133  1  0  0  0
 60134  1  0  0  0
 60135  1  0  0  0
 61136  1  0  0  0
 61137  1  0  0  0
 61138  1  0  0  0
 62139  1  0  0  0
 62140  1  0  0  0
 62141  1  0  0  0
 63 65  1  0  0  0
 63142  1  0  0  0
 63143  1  0  0  0
 63144  1  0  0  0
 64145  1  0  0  0
 65146  1  0  0  0
 68 85  1  0  0  0
 71 72  2  0  0  0
 71 73  1  0  0  0
 71147  1  0  0  0
 72 74  1  0  0  0
 72 85  1  0  0  0
 73 76  2  0  0  0
 73 82  1  0  0  0
 74 75  2  0  0  0
 74 83  1  0  0  0
 75 76  1  0  0  0
 75 84  1  0  0  0
 76 87  1  0  0  0
 77 79  1  0  0  0
 77 81  1  0  0  0
 77148  1  0  0  0
 77149  1  0  0  0
 78 80  1  0  0  0
 78 81  1  0  0  0
 78150  1  0  0  0
 78151  1  0  0  0
 79 86  1  0  0  0
 79152  1  0  0  0
 79153  1  0  0  0
 80 86  1  0  0  0
 80154  1  0  0  0
 80155  1  0  0  0
 81 87  1  0  0  0
 81156  1  0  0  0
 82157  1  0  0  0
 82158  1  0  0  0
 82159  1  0  0  0
 83160  1  0  0  0
 83161  1  0  0  0
 83162  1  0  0  0
 84163  1  0  0  0
 84164  1  0  0  0
 84165  1  0  0  0
 85166  1  0  0  0
 85167  1  0  0  0
M  ISO  4   1 100  68 101  85 101  86 100
M  END
> <chiral flag>
0

> <version>
0

> <s_m_source_file>
/data/baiqing/PycharmProjects/Reinvent-master-3.2/result/LINK_invent/BTK/process_docking_weight1_custom_sum_contain_oxygen_bond_distance_aromatic_linkinvent_7_9_3/rearranged_h_0156.sdf

> <i_m_source_file_index>
21

> <r_mmod_Potential_Energy-OPLS-2005>
290.393615722656

> <r_mmod_Stretch_Energy-OPLS-2005>
66.3564529418945

> <r_mmod_Bend_Energy-OPLS-2005>
139.02116394043

> <r_mmod_Torsional_Energy-OPLS-2005>
388.861114501953

> <r_mmod_Improper_Torsional_Energy-OPLS-2005>
16.5174827575684

> <r_mmod_Van_der_Waal_Energy-OPLS-2005>
143.898284912109

> <r_mmod_Electrostatic_Energy-OPLS-2005>
-312.807739257812

> <r_mmod_Solvation_Energy-OPLS-2005>
-189.720092773438

> <b_mmod_Minimization_Converged-OPLS-2005>
0

> <r_mmod_RMS_Derivative-OPLS-2005>
0.56210058927536

$$$$
21
                    3D
 Structure written by MMmdl.
164173  0  0  1  0            999 V2000
  -30.7110  -14.4158   20.6530 C   0  0  0  0  0  0
  -30.4399  -12.3041   19.4106 C   0  0  0  0  0  0
  -29.4995  -12.5365   18.2102 C   0  0  0  0  0  0
  -28.0224  -12.3938   18.6233 C   0  0  0  0  0  0
  -27.6773  -13.2018   19.9012 C   0  0  2  0  0  0
  -28.7166  -12.9236   21.0116 C   0  0  0  0  0  0
  -25.2660  -13.8188   20.5714 C   0  0  0  0  0  0
  -24.1861  -13.0472   20.9171 C   0  0  0  0  0  0
  -24.6414  -11.6948   20.8774 C   0  0  0  0  0  0
  -23.9080  -10.4311   21.0433 C   0  0  0  0  0  0
  -24.3623   -9.4210   21.9202 C   0  0  0  0  0  0
  -23.6280   -8.2247   22.0780 C   0  0  0  0  0  0
  -22.4258   -8.0307   21.3574 C   0  0  0  0  0  0
  -21.9910   -9.0288   20.4674 C   0  0  0  0  0  0
  -22.7262  -10.2163   20.3074 C   0  0  0  0  0  0
  -21.6840   -6.0751   22.5273 C   0  0  0  0  0  0
  -21.4011   -6.5644   23.8214 C   0  0  0  0  0  0
  -21.3654   -5.6789   24.9166 C   0  0  0  0  0  0
  -21.6024   -4.3046   24.7206 C   0  0  0  0  0  0
  -21.8817   -3.8161   23.4319 C   0  0  0  0  0  0
  -21.9194   -4.6983   22.3391 C   0  0  0  0  0  0
  -22.7888  -13.5312   21.1772 C   0  0  0  0  0  0
  -22.1678   -4.2176   21.0966 F   0  0  0  0  0  0
  -21.5603   -3.4524   25.7711 F   0  0  0  0  0  0
  -30.0577  -13.2371   20.4828 N   0  0  0  0  0  0
  -26.3102  -12.9332   20.3498 N   0  0  0  0  0  0
  -25.9346  -11.6499   20.5866 N   0  0  0  0  0  0
  -22.0468  -12.8350   22.0328 N   0  0  0  0  0  0
  -25.4398  -15.1887   20.4142 N   0  0  0  0  0  0
  -31.7682  -14.6940   20.0787 O   0  0  0  0  0  0
  -21.6629   -6.8900   21.4244 O   0  0  0  0  0  0
  -22.3592  -14.5600   20.6598 O   0  0  0  0  0  0
  -24.6166  -31.8733   23.2172 C   0  0  0  0  0  0
  -25.9076  -32.4849   23.8454 C   0  0  1  0  0  0
  -27.2496  -27.4660   20.0783 C   0  0  0  0  0  0
  -25.5939  -33.8638   24.2428 N   0  0  0  0  0  0
  -23.4038  -30.4978   21.5561 C   0  0  2  0  0  0
  -24.8446  -28.9595   20.1213 C   0  0  0  0  0  0
  -22.7463  -29.4694   22.5020 C   0  0  0  0  0  0
  -18.0331  -28.1373   22.8418 C   0  0  0  0  0  0
  -24.1474  -36.7330   23.2624 C   0  0  0  0  0  0
  -25.9250  -30.8434   21.3616 C   0  0  0  0  0  0
  -26.0010  -29.4769   20.7132 C   0  0  0  0  0  0
  -27.2001  -28.7380   20.6872 C   0  0  0  0  0  0
  -26.0683  -26.9516   19.4841 C   0  0  0  0  0  0
  -24.8724  -27.6965   19.5048 C   0  0  0  0  0  0
  -23.6114  -29.8310   20.1704 C   0  0  0  0  0  0
  -25.4086  -36.3149   24.0360 C   0  0  1  0  0  0
  -20.5916  -28.3676   23.1269 C   0  0  2  0  0  0
  -20.6850  -26.9451   22.5333 C   0  0  0  0  0  0
  -19.5844  -26.6474   21.5103 C   0  0  0  0  0  0
  -18.1991  -26.7979   22.1440 C   0  0  0  0  0  0
  -19.1576  -28.8829   23.2854 C   0  0  0  0  0  0
  -18.9517  -30.1394   23.8938 C   0  0  0  0  0  0
  -17.6522  -30.6566   24.0535 C   0  0  0  0  0  0
  -25.9012  -34.9494   23.5196 C   0  0  0  0  0  0
  -16.5408  -29.9084   23.6278 C   0  0  0  0  0  0
  -16.7314  -28.6486   23.0301 C   0  0  0  0  0  0
  -26.4500  -31.6592   25.0757 C   0  0  0  0  0  0
  -25.3758  -31.3643   26.1509 C   0  0  0  0  0  0
  -27.0324  -30.3060   24.6034 C   0  0  0  0  0  0
  -27.6142  -32.4275   25.7447 C   0  0  0  0  0  0
  -27.5600  -37.1822   24.8474 C   0  0  0  0  0  0
  -21.4207  -29.3077   22.3747 N   0  0  0  0  0  0
  -26.4308  -37.3822   23.9415 N   0  0  0  0  0  0
  -24.6670  -31.0859   22.1058 N   0  0  0  0  0  0
  -23.4250  -28.8196   23.3022 O   0  0  0  0  0  0
  -28.4764  -26.8354   20.0887 O   0  0  0  0  0  0
  -26.5572  -34.8939   22.4751 O   0  0  0  0  0  0
  -23.5378  -32.1443   23.7616 O   0  0  0  0  0  0
  -29.6982  -18.9874   21.8181 C   0  0  0  0  0  0
  -29.9829  -17.6413   22.1276 C   0  0  0  0  0  0
  -29.3078  -16.9935   19.8788 C   0  0  0  0  0  0
  -29.2372  -19.3509   20.5323 C   0  0  0  0  0  0
  -29.8221  -16.6414   21.1488 C   0  0  0  0  0  0
  -29.0125  -18.3429   19.5657 C   0  0  0  0  0  0
  -27.6840  -21.4289   20.5534 C   0  0  0  0  0  0
  -28.9852  -20.7808   20.1329 C   0  0  1  0  0  0
  -29.0008  -21.9998   21.0347 C   0  0  1  0  0  0
  -27.5499  -24.4417   21.6652 C   0  0  0  0  0  0
  -27.8915  -17.7854   17.5139 C   0  0  0  0  0  0
  -28.6525  -25.4995   19.6291 C   0  0  0  0  0  0
  -28.8437  -24.5425   20.8231 C   0  0  2  0  0  0
  -30.1050  -15.2875   21.4772 N   0  0  0  0  0  0
  -29.3579  -23.2416   20.3088 N   0  3  0  0  0  0
  -28.5295  -18.7482   18.3375 O   0  0  0  0  0  0
  -31.4779  -12.4283   19.0992 H   0  0  0  0  0  0
  -30.3661  -11.2757   19.7687 H   0  0  0  0  0  0
  -29.7361  -11.8351   17.4077 H   0  0  0  0  0  0
  -29.6669  -13.5352   17.8016 H   0  0  0  0  0  0
  -27.8200  -11.3349   18.7937 H   0  0  0  0  0  0
  -27.3783  -12.7033   17.8011 H   0  0  0  0  0  0
  -27.7403  -14.2603   19.6491 H   0  0  0  0  0  0
  -28.6891  -11.8728   21.3041 H   0  0  0  0  0  0
  -28.4692  -13.4722   21.9211 H   0  0  0  0  0  0
  -25.2771   -9.5642   22.4776 H   0  0  0  0  0  0
  -23.9971   -7.4624   22.7498 H   0  0  0  0  0  0
  -21.0834   -8.8830   19.8975 H   0  0  0  0  0  0
  -22.3747  -10.9704   19.6170 H   0  0  0  0  0  0
  -21.2019   -7.6156   23.9718 H   0  0  0  0  0  0
  -21.1474   -6.0523   25.9069 H   0  0  0  0  0  0
  -22.0606   -2.7621   23.2813 H   0  0  0  0  0  0
  -22.4075  -12.0065   22.4798 H   0  0  0  0  0  0
  -21.1080  -13.1438   22.2422 H   0  0  0  0  0  0
  -24.6825  -15.8530   20.5374 H   0  0  0  0  0  0
  -26.3101  -15.6246   20.1362 H   0  0  0  0  0  0
  -26.7153  -32.5562   23.1233 H   0  0  0  0  0  0
  -25.0214  -33.9768   25.0665 H   0  0  0  0  0  0
  -22.6879  -31.3102   21.4212 H   0  0  0  0  0  0
  -23.3752  -35.9655   23.3300 H   0  0  0  0  0  0
  -24.3565  -36.8914   22.2036 H   0  0  0  0  0  0
  -23.7195  -37.6533   23.6600 H   0  0  0  0  0  0
  -26.0210  -31.6043   20.5850 H   0  0  0  0  0  0
  -26.8219  -30.9097   21.9661 H   0  0  0  0  0  0
  -28.1000  -29.1517   21.1217 H   0  0  0  0  0  0
  -26.0278  -25.9933   18.9897 H   0  0  0  0  0  0
  -23.9820  -27.2994   19.0356 H   0  0  0  0  0  0
  -23.7448  -30.6054   19.4148 H   0  0  0  0  0  0
  -22.7226  -29.2722   19.8710 H   0  0  0  0  0  0
  -25.1233  -36.2064   25.0854 H   0  0  0  0  0  0
  -20.9973  -28.3201   24.1403 H   0  0  0  0  0  0
  -20.5857  -26.2284   23.3504 H   0  0  0  0  0  0
  -21.6722  -26.7612   22.1051 H   0  0  0  0  0  0
  -19.7045  -25.6456   21.0984 H   0  0  0  0  0  0
  -19.6790  -27.3401   20.6722 H   0  0  0  0  0  0
  -17.4386  -26.6899   21.3687 H   0  0  0  0  0  0
  -18.0239  -26.0028   22.8694 H   0  0  0  0  0  0
  -19.8007  -30.7145   24.2400 H   0  0  0  0  0  0
  -17.5114  -31.6261   24.5118 H   0  0  0  0  0  0
  -15.5417  -30.3008   23.7571 H   0  0  0  0  0  0
  -15.8715  -28.0790   22.7016 H   0  0  0  0  0  0
  -24.5949  -30.6977   25.7835 H   0  0  0  0  0  0
  -24.8903  -32.2763   26.4991 H   0  0  0  0  0  0
  -25.8107  -30.8786   27.0254 H   0  0  0  0  0  0
  -26.2847  -29.6776   24.1189 H   0  0  0  0  0  0
  -27.4284  -29.7315   25.4419 H   0  0  0  0  0  0
  -27.8583  -30.4436   23.9052 H   0  0  0  0  0  0
  -27.2860  -33.3576   26.2080 H   0  0  0  0  0  0
  -28.3876  -32.6824   25.0190 H   0  0  0  0  0  0
  -28.0905  -31.8350   26.5261 H   0  0  0  0  0  0
  -28.2664  -38.0083   24.7540 H   0  0  0  0  0  0
  -28.1060  -36.2639   24.6283 H   0  0  0  0  0  0
  -27.2328  -37.1465   25.8880 H   0  0  0  0  0  0
  -20.9449  -29.8777   21.6895 H   0  0  0  0  0  0
  -26.0233  -38.2930   24.1362 H   0  0  0  0  0  0
  -29.8445  -19.7389   22.5801 H   0  0  0  0  0  0
  -30.3456  -17.3865   23.1142 H   0  0  0  0  0  0
  -29.1495  -16.2182   19.1460 H   0  0  0  0  0  0
  -27.0668  -20.9356   21.3011 H   0  0  0  0  0  0
  -27.1304  -21.9751   19.7929 H   0  0  0  0  0  0
  -29.3070  -20.9387   19.1049 H   0  0  0  0  0  0
  -29.2982  -21.9312   22.0800 H   0  0  0  0  0  0
  -27.2756  -25.4124   22.0808 H   0  0  0  0  0  0
  -27.6632  -23.7709   22.5159 H   0  0  0  0  0  0
  -26.7087  -24.0976   21.0657 H   0  0  0  0  0  0
  -27.1314  -17.2371   18.0734 H   0  0  0  0  0  0
  -28.6049  -17.0841   17.0829 H   0  0  0  0  0  0
  -27.3886  -18.2940   16.6906 H   0  0  0  0  0  0
  -27.8814  -25.1434   18.9481 H   0  0  0  0  0  0
  -29.5682  -25.5155   19.0361 H   0  0  0  0  0  0
  -29.6235  -24.9504   21.4679 H   0  0  0  0  0  0
  -29.4742  -14.8751   22.1480 H   0  0  0  0  0  0
  -29.0311  -23.1301   19.3621 H   0  0  0  0  0  0
  -30.3638  -23.2940   20.2390 H   0  0  0  0  0  0
  1 25  1  0  0  0
  1 30  2  0  0  0
  1 84  1  0  0  0
  2  3  1  0  0  0
  2 25  1  0  0  0
  2 87  1  0  0  0
  2 88  1  0  0  0
  3  4  1  0  0  0
  3 89  1  0  0  0
  3 90  1  0  0  0
  4  5  1  0  0  0
  4 91  1  0  0  0
  4 92  1  0  0  0
  5  6  1  0  0  0
  5 26  1  0  0  0
  5 93  1  0  0  0
  6 25  1  0  0  0
  6 94  1  0  0  0
  6 95  1  0  0  0
  7  8  2  0  0  0
  7 26  1  0  0  0
  7 29  1  0  0  0
  8  9  1  0  0  0
  8 22  1  0  0  0
  9 10  1  0  0  0
  9 27  2  0  0  0
 10 11  2  0  0  0
 10 15  1  0  0  0
 11 12  1  0  0  0
 11 96  1  0  0  0
 12 13  2  0  0  0
 12 97  1  0  0  0
 13 14  1  0  0  0
 13 31  1  0  0  0
 14 15  2  0  0  0
 14 98  1  0  0  0
 15 99  1  0  0  0
 16 17  2  0  0  0
 16 21  1  0  0  0
 16 31  1  0  0  0
 17 18  1  0  0  0
 17100  1  0  0  0
 18 19  2  0  0  0
 18101  1  0  0  0
 19 20  1  0  0  0
 19 24  1  0  0  0
 20 21  2  0  0  0
 20102  1  0  0  0
 21 23  1  0  0  0
 22 28  1  0  0  0
 22 32  2  0  0  0
 26 27  1  0  0  0
 28103  1  0  0  0
 28104  1  0  0  0
 29105  1  0  0  0
 29106  1  0  0  0
 33 34  1  0  0  0
 33 66  1  0  0  0
 33 70  2  0  0  0
 34 36  1  0  0  0
 34 59  1  0  0  0
 34107  1  0  0  0
 35 44  2  0  0  0
 35 45  1  0  0  0
 35 68  1  0  0  0
 36 56  1  0  0  0
 36108  1  0  0  0
 37 39  1  0  0  0
 37 47  1  0  0  0
 37 66  1  0  0  0
 37109  1  0  0  0
 38 43  2  0  0  0
 38 46  1  0  0  0
 38 47  1  0  0  0
 39 64  1  0  0  0
 39 67  2  0  0  0
 40 52  1  0  0  0
 40 53  2  0  0  0
 40 58  1  0  0  0
 41110  1  0  0  0
 41111  1  0  0  0
 41112  1  0  0  0
 41 48  1  0  0  0
 42 43  1  0  0  0
 42 66  1  0  0  0
 42113  1  0  0  0
 42114  1  0  0  0
 43 44  1  0  0  0
 44115  1  0  0  0
 45 46  2  0  0  0
 45116  1  0  0  0
 46117  1  0  0  0
 47118  1  0  0  0
 47119  1  0  0  0
 48 56  1  0  0  0
 48 65  1  0  0  0
 48120  1  0  0  0
 49 50  1  0  0  0
 49 53  1  0  0  0
 49 64  1  0  0  0
 49121  1  0  0  0
 50 51  1  0  0  0
 50122  1  0  0  0
 50123  1  0  0  0
 51 52  1  0  0  0
 51124  1  0  0  0
 51125  1  0  0  0
 52126  1  0  0  0
 52127  1  0  0  0
 53 54  1  0  0  0
 54 55  2  0  0  0
 54128  1  0  0  0
 55 57  1  0  0  0
 55129  1  0  0  0
 56 69  2  0  0  0
 57 58  2  0  0  0
 57130  1  0  0  0
 58131  1  0  0  0
 59 60  1  0  0  0
 59 61  1  0  0  0
 59 62  1  0  0  0
 60132  1  0  0  0
 60133  1  0  0  0
 60134  1  0  0  0
 61135  1  0  0  0
 61136  1  0  0  0
 61137  1  0  0  0
 62138  1  0  0  0
 62139  1  0  0  0
 62140  1  0  0  0
 63 65  1  0  0  0
 63141  1  0  0  0
 63142  1  0  0  0
 63143  1  0  0  0
 64144  1  0  0  0
 65145  1  0  0  0
 68 82  1  0  0  0
 71 72  2  0  0  0
 71 74  1  0  0  0
 71146  1  0  0  0
 72 75  1  0  0  0
 72147  1  0  0  0
 73 75  2  0  0  0
 73 76  1  0  0  0
 73148  1  0  0  0
 74 76  2  0  0  0
 74 78  1  0  0  0
 75 84  1  0  0  0
 76 86  1  0  0  0
 77 78  1  0  0  0
 77 79  1  0  0  0
 77149  1  0  0  0
 77150  1  0  0  0
 78 79  1  0  0  0
 78151  1  0  0  0
 79 85  1  0  0  0
 79152  1  0  0  0
 80153  1  0  0  0
 80154  1  0  0  0
 80155  1  0  0  0
 80 83  1  0  0  0
 81 86  1  0  0  0
 81156  1  0  0  0
 81157  1  0  0  0
 81158  1  0  0  0
 82 83  1  0  0  0
 82159  1  0  0  0
 82160  1  0  0  0
 83 85  1  0  0  0
 83161  1  0  0  0
 84162  1  0  0  0
 85163  1  0  0  0
 85164  1  0  0  0
M  CHG  1  85   1
M  ISO  4   1 100  68 101  82 101  84 100
M  END
> <chiral flag>
0

> <version>
0

> <s_m_source_file>
/data/baiqing/PycharmProjects/Reinvent-master-3.2/result/LINK_invent/BTK/process_docking_weight1_custom_sum_contain_oxygen_bond_distance_aromatic_linkinvent_7_9_3/rearranged_h_0156.sdf

> <i_m_source_file_index>
22

> <r_mmod_Potential_Energy-OPLS-2005>
-102.285034179688

> <r_mmod_Stretch_Energy-OPLS-2005>
34.6785202026367

> <r_mmod_Bend_Energy-OPLS-2005>
124.750961303711

> <r_mmod_Torsional_Energy-OPLS-2005>
290.726135253906

> <r_mmod_Improper_Torsional_Energy-OPLS-2005>
4.0851526260376

> <r_mmod_Van_der_Waal_Energy-OPLS-2005>
154.766525268555

> <r_mmod_Electrostatic_Energy-OPLS-2005>
-261.342651367188

> <r_mmod_Solvation_Energy-OPLS-2005>
-460.271057128906

> <b_mmod_Minimization_Converged-OPLS-2005>
0

> <r_mmod_RMS_Derivative-OPLS-2005>
4.65236949920654

$$$$
22
                    3D
 Structure written by MMmdl.
164172  0  0  1  0            999 V2000
  -30.7075  -14.3616   20.6689 C   0  0  0  0  0  0
  -30.4281  -12.2779   19.3809 C   0  0  0  0  0  0
  -29.4879  -12.5234   18.1839 C   0  0  0  0  0  0
  -28.0114  -12.3673   18.6024 C   0  0  0  0  0  0
  -27.6699  -13.1803   19.8795 C   0  0  2  0  0  0
  -28.7040  -12.8771   20.9849 C   0  0  0  0  0  0
  -25.2659  -13.8067   20.5684 C   0  0  0  0  0  0
  -24.1871  -13.0424   20.9157 C   0  0  0  0  0  0
  -24.6355  -11.6850   20.8703 C   0  0  0  0  0  0
  -23.8994  -10.4261   21.0389 C   0  0  0  0  0  0
  -24.3562   -9.4210   21.9177 C   0  0  0  0  0  0
  -23.6265   -8.2242   22.0753 C   0  0  0  0  0  0
  -22.4252   -8.0245   21.3532 C   0  0  0  0  0  0
  -21.9862   -9.0218   20.4640 C   0  0  0  0  0  0
  -22.7174  -10.2106   20.3051 C   0  0  0  0  0  0
  -21.6849   -6.0703   22.5263 C   0  0  0  0  0  0
  -21.4017   -6.5625   23.8189 C   0  0  0  0  0  0
  -21.3667   -5.6785   24.9158 C   0  0  0  0  0  0
  -21.6052   -4.3043   24.7216 C   0  0  0  0  0  0
  -21.8832   -3.8129   23.4339 C   0  0  0  0  0  0
  -21.9212   -4.6937   22.3395 C   0  0  0  0  0  0
  -22.7908  -13.5250   21.1817 C   0  0  0  0  0  0
  -22.1669   -4.2122   21.0971 F   0  0  0  0  0  0
  -21.5645   -3.4533   25.7733 F   0  0  0  0  0  0
  -30.0466  -13.1970   20.4588 N   0  0  0  0  0  0
  -26.3051  -12.9196   20.3331 N   0  0  0  0  0  0
  -25.9266  -11.6377   20.5711 N   0  0  0  0  0  0
  -22.0526  -12.8260   22.0354 N   0  0  0  0  0  0
  -25.4539  -15.1786   20.4174 N   0  0  0  0  0  0
  -31.7552  -14.6809   20.0953 O   0  0  0  0  0  0
  -21.6649   -6.8836   21.4211 O   0  0  0  0  0  0
  -22.3638  -14.5605   20.6697 O   0  0  0  0  0  0
  -24.6112  -31.8664   23.2040 C   0  0  0  0  0  0
  -25.9017  -32.4824   23.8357 C   0  0  1  0  0  0
  -27.2732  -27.4526   20.0992 C   0  0  0  0  0  0
  -25.5877  -33.8621   24.2314 N   0  0  0  0  0  0
  -23.3999  -30.4778   21.5431 C   0  0  2  0  0  0
  -24.8599  -28.9408   20.1048 C   0  0  0  0  0  0
  -22.7391  -29.4603   22.4994 C   0  0  0  0  0  0
  -18.0266  -28.1349   22.8519 C   0  0  0  0  0  0
  -24.1475  -36.7348   23.2629 C   0  0  0  0  0  0
  -25.9171  -30.8378   21.3452 C   0  0  0  0  0  0
  -26.0038  -29.4609   20.7190 C   0  0  0  0  0  0
  -27.2001  -28.7140   20.7334 C   0  0  0  0  0  0
  -26.1195  -26.9549   19.4487 C   0  0  0  0  0  0
  -24.9131  -27.6866   19.4665 C   0  0  0  0  0  0
  -23.6104  -29.7928   20.1606 C   0  0  0  0  0  0
  -25.4098  -36.3122   24.0330 C   0  0  1  0  0  0
  -20.5858  -28.3615   23.1365 C   0  0  2  0  0  0
  -20.6743  -26.9358   22.5425 C   0  0  0  0  0  0
  -19.5706  -26.6386   21.5209 C   0  0  0  0  0  0
  -18.1913  -26.7873   22.1705 C   0  0  0  0  0  0
  -19.1512  -28.8806   23.2944 C   0  0  0  0  0  0
  -18.9448  -30.1422   23.8906 C   0  0  0  0  0  0
  -17.6457  -30.6560   24.0568 C   0  0  0  0  0  0
  -25.9016  -34.9480   23.5114 C   0  0  0  0  0  0
  -16.5342  -29.9071   23.6321 C   0  0  0  0  0  0
  -16.7260  -28.6478   23.0366 C   0  0  0  0  0  0
  -26.4451  -31.6599   25.0674 C   0  0  0  0  0  0
  -25.3727  -31.3717   26.1429 C   0  0  0  0  0  0
  -27.0287  -30.3069   24.5992 C   0  0  0  0  0  0
  -27.6014  -32.4303   25.7461 C   0  0  0  0  0  0
  -27.5571  -37.1824   24.8463 C   0  0  0  0  0  0
  -21.4126  -29.2999   22.3792 N   0  0  0  0  0  0
  -26.4292  -37.3801   23.9397 N   0  0  0  0  0  0
  -24.6602  -31.0779   22.0905 N   0  0  0  0  0  0
  -23.4195  -28.8150   23.3009 O   0  0  0  0  0  0
  -28.4775  -26.7785   20.1800 O   0  0  0  0  0  0
  -26.5581  -34.8935   22.4680 O   0  0  0  0  0  0
  -23.5314  -32.1399   23.7471 O   0  0  0  0  0  0
  -28.7448  -23.1337   19.1026 C   0  0  0  0  0  0
  -27.3671  -24.1598   20.8085 C   0  0  0  0  0  0
  -28.3019  -24.2978   19.7705 C   0  0  0  0  0  0
  -28.1738  -21.8670   19.3660 C   0  0  0  0  0  0
  -26.8041  -22.9050   21.1020 C   0  0  0  0  0  0
  -27.1610  -21.7547   20.3647 C   0  0  0  0  0  0
  -28.6360  -20.7098   18.4906 C   0  0  0  0  0  0
  -25.7633  -22.8190   22.1995 C   0  0  0  0  0  0
  -28.8048  -25.6726   19.3309 C   0  0  0  0  0  0
  -30.2446  -16.6150   21.6682 C   0  0  0  0  0  0
  -28.8537  -17.2615   21.6087 C   0  0  0  0  0  0
  -26.8948  -19.3532   20.7890 C   0  0  0  0  0  0
  -27.6012  -19.2016   22.1504 C   0  0  0  0  0  0
  -30.0748  -15.1791   21.5104 N   0  0  0  0  0  0
  -26.3583  -20.6537   20.5871 O   0  0  0  0  0  0
  -28.8986  -18.6194   22.0265 O   0  0  0  0  0  0
  -31.4710  -12.3947   19.0834 H   0  0  0  0  0  0
  -30.3384  -11.2469   19.7287 H   0  0  0  0  0  0
  -29.7210  -11.8271   17.3766 H   0  0  0  0  0  0
  -29.6539  -13.5258   17.7822 H   0  0  0  0  0  0
  -27.8272  -11.3062   18.7761 H   0  0  0  0  0  0
  -27.3529  -12.6513   17.7826 H   0  0  0  0  0  0
  -27.7431  -14.2386   19.6274 H   0  0  0  0  0  0
  -28.6717  -11.8176   21.2380 H   0  0  0  0  0  0
  -28.4477  -13.3878   21.9133 H   0  0  0  0  0  0
  -25.2699   -9.5721   22.4748 H   0  0  0  0  0  0
  -24.0001   -7.4633   22.7457 H   0  0  0  0  0  0
  -21.0810   -8.8707   19.8915 H   0  0  0  0  0  0
  -22.3611  -10.9646   19.6164 H   0  0  0  0  0  0
  -21.1986   -7.6129   23.9677 H   0  0  0  0  0  0
  -21.1481   -6.0516   25.9057 H   0  0  0  0  0  0
  -22.0609   -2.7590   23.2852 H   0  0  0  0  0  0
  -22.4142  -11.9915   22.4741 H   0  0  0  0  0  0
  -21.1124  -13.1267   22.2512 H   0  0  0  0  0  0
  -24.6981  -15.8435   20.5271 H   0  0  0  0  0  0
  -26.3183  -15.5959   20.1043 H   0  0  0  0  0  0
  -26.7104  -32.5562   23.1146 H   0  0  0  0  0  0
  -25.0099  -33.9790   25.0514 H   0  0  0  0  0  0
  -22.6831  -31.2887   21.3952 H   0  0  0  0  0  0
  -23.3710  -35.9700   23.3308 H   0  0  0  0  0  0
  -24.3568  -36.8948   22.2035 H   0  0  0  0  0  0
  -23.7258  -37.6570   23.6637 H   0  0  0  0  0  0
  -25.9883  -31.5744   20.5427 H   0  0  0  0  0  0
  -26.8204  -30.9371   21.9330 H   0  0  0  0  0  0
  -28.0747  -29.1093   21.2294 H   0  0  0  0  0  0
  -26.1427  -26.0023   18.9343 H   0  0  0  0  0  0
  -24.0393  -27.2882   18.9677 H   0  0  0  0  0  0
  -23.6958  -30.5520   19.3829 H   0  0  0  0  0  0
  -22.7449  -29.1860   19.8882 H   0  0  0  0  0  0
  -25.1263  -36.1974   25.0818 H   0  0  0  0  0  0
  -20.9956  -28.3150   24.1474 H   0  0  0  0  0  0
  -20.5614  -26.2217   23.3605 H   0  0  0  0  0  0
  -21.6611  -26.7368   22.1230 H   0  0  0  0  0  0
  -19.6860  -25.6333   21.1149 H   0  0  0  0  0  0
  -19.6577  -27.3282   20.6803 H   0  0  0  0  0  0
  -17.4125  -26.6554   21.4158 H   0  0  0  0  0  0
  -18.0404  -26.0047   22.9149 H   0  0  0  0  0  0
  -19.7926  -30.7237   24.2291 H   0  0  0  0  0  0
  -17.4998  -31.6240   24.5165 H   0  0  0  0  0  0
  -15.5340  -30.2955   23.7635 H   0  0  0  0  0  0
  -15.8662  -28.0793   22.7079 H   0  0  0  0  0  0
  -24.5854  -30.7120   25.7775 H   0  0  0  0  0  0
  -24.8979  -32.2882   26.4913 H   0  0  0  0  0  0
  -25.8062  -30.8840   27.0166 H   0  0  0  0  0  0
  -26.2826  -29.6817   24.1076 H   0  0  0  0  0  0
  -27.4150  -29.7292   25.4397 H   0  0  0  0  0  0
  -27.8581  -30.4441   23.9061 H   0  0  0  0  0  0
  -27.2615  -33.3556   26.2122 H   0  0  0  0  0  0
  -28.3791  -32.6948   25.0287 H   0  0  0  0  0  0
  -28.0720  -31.8385   26.5314 H   0  0  0  0  0  0
  -28.2599  -38.0113   24.7490 H   0  0  0  0  0  0
  -28.1051  -36.2642   24.6295 H   0  0  0  0  0  0
  -27.2294  -37.1484   25.8871 H   0  0  0  0  0  0
  -20.9288  -29.8776   21.7065 H   0  0  0  0  0  0
  -26.0174  -38.2869   24.1397 H   0  0  0  0  0  0
  -29.5002  -23.2218   18.3354 H   0  0  0  0  0  0
  -27.0495  -25.0351   21.3569 H   0  0  0  0  0  0
  -29.1649  -21.0703   17.6083 H   0  0  0  0  0  0
  -27.8041  -20.1072   18.1256 H   0  0  0  0  0  0
  -29.3297  -20.0723   19.0418 H   0  0  0  0  0  0
  -24.8165  -22.4318   21.8206 H   0  0  0  0  0  0
  -25.5888  -23.8016   22.6442 H   0  0  0  0  0  0
  -26.1101  -22.1563   22.9919 H   0  0  0  0  0  0
  -28.4920  -25.8728   18.3075 H   0  0  0  0  0  0
  -29.8945  -25.6255   19.3175 H   0  0  0  0  0  0
  -30.7268  -16.8003   22.6301 H   0  0  0  0  0  0
  -30.8805  -17.0385   20.8867 H   0  0  0  0  0  0
  -28.1396  -16.7127   22.2278 H   0  0  0  0  0  0
  -28.4909  -17.1892   20.5831 H   0  0  0  0  0  0
  -26.0558  -18.6570   20.7403 H   0  0  0  0  0  0
  -27.5319  -19.0441   19.9702 H   0  0  0  0  0  0
  -26.9778  -18.6258   22.8367 H   0  0  0  0  0  0
  -27.7217  -20.1761   22.6209 H   0  0  0  0  0  0
  -29.2523  -14.7850   21.9441 H   0  0  0  0  0  0
  1 25  1  0  0  0
  1 30  2  0  0  0
  1 84  1  0  0  0
  2  3  1  0  0  0
  2 25  1  0  0  0
  2 87  1  0  0  0
  2 88  1  0  0  0
  3  4  1  0  0  0
  3 89  1  0  0  0
  3 90  1  0  0  0
  4  5  1  0  0  0
  4 91  1  0  0  0
  4 92  1  0  0  0
  5  6  1  0  0  0
  5 26  1  0  0  0
  5 93  1  0  0  0
  6 25  1  0  0  0
  6 94  1  0  0  0
  6 95  1  0  0  0
  7  8  2  0  0  0
  7 26  1  0  0  0
  7 29  1  0  0  0
  8  9  1  0  0  0
  8 22  1  0  0  0
  9 10  1  0  0  0
  9 27  2  0  0  0
 10 11  2  0  0  0
 10 15  1  0  0  0
 11 12  1  0  0  0
 11 96  1  0  0  0
 12 13  2  0  0  0
 12 97  1  0  0  0
 13 14  1  0  0  0
 13 31  1  0  0  0
 14 15  2  0  0  0
 14 98  1  0  0  0
 15 99  1  0  0  0
 16 17  2  0  0  0
 16 21  1  0  0  0
 16 31  1  0  0  0
 17 18  1  0  0  0
 17100  1  0  0  0
 18 19  2  0  0  0
 18101  1  0  0  0
 19 20  1  0  0  0
 19 24  1  0  0  0
 20 21  2  0  0  0
 20102  1  0  0  0
 21 23  1  0  0  0
 22 28  1  0  0  0
 22 32  2  0  0  0
 26 27  1  0  0  0
 28103  1  0  0  0
 28104  1  0  0  0
 29105  1  0  0  0
 29106  1  0  0  0
 33 34  1  0  0  0
 33 66  1  0  0  0
 33 70  2  0  0  0
 34 36  1  0  0  0
 34 59  1  0  0  0
 34107  1  0  0  0
 35 44  2  0  0  0
 35 45  1  0  0  0
 35 68  1  0  0  0
 36 56  1  0  0  0
 36108  1  0  0  0
 37 39  1  0  0  0
 37 47  1  0  0  0
 37 66  1  0  0  0
 37109  1  0  0  0
 38 43  2  0  0  0
 38 46  1  0  0  0
 38 47  1  0  0  0
 39 64  1  0  0  0
 39 67  2  0  0  0
 40 52  1  0  0  0
 40 53  2  0  0  0
 40 58  1  0  0  0
 41110  1  0  0  0
 41111  1  0  0  0
 41112  1  0  0  0
 41 48  1  0  0  0
 42 43  1  0  0  0
 42 66  1  0  0  0
 42113  1  0  0  0
 42114  1  0  0  0
 43 44  1  0  0  0
 44115  1  0  0  0
 45 46  2  0  0  0
 45116  1  0  0  0
 46117  1  0  0  0
 47118  1  0  0  0
 47119  1  0  0  0
 48 56  1  0  0  0
 48 65  1  0  0  0
 48120  1  0  0  0
 49 50  1  0  0  0
 49 53  1  0  0  0
 49 64  1  0  0  0
 49121  1  0  0  0
 50 51  1  0  0  0
 50122  1  0  0  0
 50123  1  0  0  0
 51 52  1  0  0  0
 51124  1  0  0  0
 51125  1  0  0  0
 52126  1  0  0  0
 52127  1  0  0  0
 53 54  1  0  0  0
 54 55  2  0  0  0
 54128  1  0  0  0
 55 57  1  0  0  0
 55129  1  0  0  0
 56 69  2  0  0  0
 57 58  2  0  0  0
 57130  1  0  0  0
 58131  1  0  0  0
 59 60  1  0  0  0
 59 61  1  0  0  0
 59 62  1  0  0  0
 60132  1  0  0  0
 60133  1  0  0  0
 60134  1  0  0  0
 61135  1  0  0  0
 61136  1  0  0  0
 61137  1  0  0  0
 62138  1  0  0  0
 62139  1  0  0  0
 62140  1  0  0  0
 63 65  1  0  0  0
 63141  1  0  0  0
 63142  1  0  0  0
 63143  1  0  0  0
 64144  1  0  0  0
 65145  1  0  0  0
 68 79  1  0  0  0
 71 73  2  0  0  0
 71 74  1  0  0  0
 71146  1  0  0  0
 72 73  1  0  0  0
 72 75  2  0  0  0
 72147  1  0  0  0
 73 79  1  0  0  0
 74 76  2  0  0  0
 74 77  1  0  0  0
 75 76  1  0  0  0
 75 78  1  0  0  0
 76 85  1  0  0  0
 77148  1  0  0  0
 77149  1  0  0  0
 77150  1  0  0  0
 78151  1  0  0  0
 78152  1  0  0  0
 78153  1  0  0  0
 79154  1  0  0  0
 79155  1  0  0  0
 80 81  1  0  0  0
 80 84  1  0  0  0
 80156  1  0  0  0
 80157  1  0  0  0
 81 86  1  0  0  0
 81158  1  0  0  0
 81159  1  0  0  0
 82 83  1  0  0  0
 82 85  1  0  0  0
 82160  1  0  0  0
 82161  1  0  0  0
 83 86  1  0  0  0
 83162  1  0  0  0
 83163  1  0  0  0
 84164  1  0  0  0
M  ISO  4   1 100  68 101  79 101  84 100
M  END
> <chiral flag>
0

> <version>
0

> <s_m_source_file>
/data/baiqing/PycharmProjects/Reinvent-master-3.2/result/LINK_invent/BTK/process_docking_weight1_custom_sum_contain_oxygen_bond_distance_aromatic_linkinvent_7_9_3/rearranged_h_0156.sdf

> <i_m_source_file_index>
23

> <r_mmod_Potential_Energy-OPLS-2005>
-79.9906845092773

> <r_mmod_Stretch_Energy-OPLS-2005>
35.5319862365723

> <r_mmod_Bend_Energy-OPLS-2005>
127.231773376465

> <r_mmod_Torsional_Energy-OPLS-2005>
221.476654052734

> <r_mmod_Improper_Torsional_Energy-OPLS-2005>
3.72657656669617

> <r_mmod_Van_der_Waal_Energy-OPLS-2005>
157.196990966797

> <r_mmod_Electrostatic_Energy-OPLS-2005>
-422.877868652344

> <r_mmod_Solvation_Energy-OPLS-2005>
-214.552017211914

> <b_mmod_Minimization_Converged-OPLS-2005>
0

> <r_mmod_RMS_Derivative-OPLS-2005>
5.45538377761841

$$$$
23
                    3D
 Structure written by MMmdl.
160168  0  0  1  0            999 V2000
  -30.6547  -14.5738   20.5264 C   0  0  0  0  0  0
  -30.4299  -12.3575   19.4472 C   0  0  0  0  0  0
  -29.5024  -12.5015   18.2209 C   0  0  0  0  0  0
  -28.0248  -12.3475   18.6339 C   0  0  0  0  0  0
  -27.6545  -13.2129   19.8682 C   0  0  2  0  0  0
  -28.6971  -13.0498   20.9969 C   0  0  0  0  0  0
  -25.2566  -13.8161   20.5691 C   0  0  0  0  0  0
  -24.1831  -13.0431   20.9200 C   0  0  0  0  0  0
  -24.6392  -11.6902   20.8746 C   0  0  0  0  0  0
  -23.9058  -10.4289   21.0407 C   0  0  0  0  0  0
  -24.3612   -9.4205   21.9183 C   0  0  0  0  0  0
  -23.6291   -8.2240   22.0751 C   0  0  0  0  0  0
  -22.4270   -8.0282   21.3549 C   0  0  0  0  0  0
  -21.9908   -9.0252   20.4648 C   0  0  0  0  0  0
  -22.7232  -10.2133   20.3056 C   0  0  0  0  0  0
  -21.6847   -6.0736   22.5281 C   0  0  0  0  0  0
  -21.4012   -6.5643   23.8215 C   0  0  0  0  0  0
  -21.3661   -5.6795   24.9178 C   0  0  0  0  0  0
  -21.6039   -4.3057   24.7225 C   0  0  0  0  0  0
  -21.8819   -3.8149   23.4346 C   0  0  0  0  0  0
  -21.9193   -4.6965   22.3402 C   0  0  0  0  0  0
  -22.7857  -13.5233   21.1861 C   0  0  0  0  0  0
  -22.1660   -4.2153   21.0975 F   0  0  0  0  0  0
  -21.5628   -3.4540   25.7734 F   0  0  0  0  0  0
  -30.0165  -13.3709   20.4339 N   0  0  0  0  0  0
  -26.2991  -12.9338   20.3344 N   0  0  0  0  0  0
  -25.9320  -11.6495   20.5774 N   0  0  0  0  0  0
  -22.0493  -12.8229   22.0412 N   0  0  0  0  0  0
  -25.4284  -15.1877   20.4078 N   0  0  0  0  0  0
  -31.8092  -14.7366   20.1252 O   0  0  0  0  0  0
  -21.6636   -6.8878   21.4242 O   0  0  0  0  0  0
  -22.3554  -14.5544   20.6709 O   0  0  0  0  0  0
  -24.6195  -31.8636   23.2054 C   0  0  0  0  0  0
  -25.9069  -32.4794   23.8368 C   0  0  1  0  0  0
  -27.2311  -27.3686   20.1072 C   0  0  0  0  0  0
  -25.5916  -33.8596   24.2301 N   0  0  0  0  0  0
  -23.4105  -30.4860   21.5474 C   0  0  2  0  0  0
  -24.8552  -28.9415   20.1176 C   0  0  0  0  0  0
  -22.7438  -29.4639   22.4964 C   0  0  0  0  0  0
  -18.0297  -28.1368   22.8510 C   0  0  0  0  0  0
  -24.1497  -36.7299   23.2636 C   0  0  0  0  0  0
  -25.9451  -30.8093   21.3674 C   0  0  0  0  0  0
  -26.0198  -29.4386   20.7129 C   0  0  0  0  0  0
  -27.2083  -28.6626   20.6982 C   0  0  0  0  0  0
  -26.0375  -26.8984   19.5106 C   0  0  0  0  0  0
  -24.8625  -27.6742   19.5124 C   0  0  0  0  0  0
  -23.6220  -29.8166   20.1637 C   0  0  0  0  0  0
  -25.4117  -36.3086   24.0329 C   0  0  1  0  0  0
  -20.5892  -28.3671   23.1303 C   0  0  2  0  0  0
  -20.6796  -26.9404   22.5409 C   0  0  0  0  0  0
  -19.5754  -26.6377   21.5226 C   0  0  0  0  0  0
  -18.1942  -26.7910   22.1654 C   0  0  0  0  0  0
  -19.1547  -28.8835   23.2907 C   0  0  0  0  0  0
  -18.9472  -30.1448   23.8907 C   0  0  0  0  0  0
  -17.6470  -30.6578   24.0564 C   0  0  0  0  0  0
  -25.9046  -34.9458   23.5108 C   0  0  0  0  0  0
  -16.5363  -29.9079   23.6322 C   0  0  0  0  0  0
  -16.7286  -28.6494   23.0349 C   0  0  0  0  0  0
  -26.4486  -31.6580   25.0709 C   0  0  0  0  0  0
  -25.3740  -31.3708   26.1448 C   0  0  0  0  0  0
  -27.0319  -30.3011   24.6121 C   0  0  0  0  0  0
  -27.6049  -32.4311   25.7477 C   0  0  0  0  0  0
  -27.5584  -37.1799   24.8460 C   0  0  0  0  0  0
  -21.4161  -29.3036   22.3698 N   0  0  0  0  0  0
  -26.4295  -37.3778   23.9404 N   0  0  0  0  0  0
  -24.6771  -31.0685   22.0980 N   0  0  0  0  0  0
  -23.4184  -28.8184   23.3030 O   0  0  0  0  0  0
  -28.4064  -26.6208   20.1286 O   0  0  0  0  0  0
  -26.5608  -34.8913   22.4673 O   0  0  0  0  0  0
  -23.5373  -32.1419   23.7412 O   0  0  0  0  0  0
  -26.4422  -22.4127   20.3222 C   0  0  0  0  0  0
  -27.0537  -20.0808   20.2453 C   0  0  0  0  0  0
  -26.0643  -21.0787   20.1245 C   0  0  0  0  0  0
  -27.7726  -22.7370   20.6374 C   0  0  0  0  0  0
  -28.3843  -20.4445   20.5465 C   0  0  0  0  0  0
  -29.0686  -24.3529   22.1515 C   0  0  0  0  0  0
  -24.3030  -19.4869   19.7707 C   0  0  0  0  0  0
  -30.2684  -17.0790   20.8701 C   0  0  0  0  0  0
  -29.0701  -18.0775   20.6768 C   0  0  0  0  0  0
  -28.4331  -25.1937   19.7989 C   0  0  0  0  0  0
  -28.0790  -24.2282   20.9823 C   0  0  1  0  0  0
  -28.7379  -21.7601   20.7122 N   0  0  0  0  0  0
  -29.8907  -15.6334   20.9000 N   0  0  0  0  0  0
  -24.7365  -20.8388   19.8461 O   0  0  0  0  0  0
  -29.4056  -19.4978   20.7103 O   0  0  0  0  0  0
  -31.4731  -12.4700   19.1484 H   0  0  0  0  0  0
  -30.3484  -11.3580   19.8778 H   0  0  0  0  0  0
  -29.7594  -11.7580   17.4656 H   0  0  0  0  0  0
  -29.6533  -13.4757   17.7532 H   0  0  0  0  0  0
  -27.8559  -11.2937   18.8605 H   0  0  0  0  0  0
  -27.3703  -12.5867   17.7951 H   0  0  0  0  0  0
  -27.6806  -14.2516   19.5388 H   0  0  0  0  0  0
  -28.6949  -12.0260   21.3747 H   0  0  0  0  0  0
  -28.4548  -13.6838   21.8512 H   0  0  0  0  0  0
  -25.2753   -9.5685   22.4765 H   0  0  0  0  0  0
  -24.0005   -7.4625   22.7460 H   0  0  0  0  0  0
  -21.0844   -8.8763   19.8952 H   0  0  0  0  0  0
  -22.3682  -10.9675   19.6171 H   0  0  0  0  0  0
  -21.2003   -7.6151   23.9721 H   0  0  0  0  0  0
  -21.1485   -6.0524   25.9082 H   0  0  0  0  0  0
  -22.0600   -2.7614   23.2836 H   0  0  0  0  0  0
  -22.4109  -11.9889   22.4795 H   0  0  0  0  0  0
  -21.1113  -13.1267   22.2613 H   0  0  0  0  0  0
  -24.6555  -15.8363   20.5057 H   0  0  0  0  0  0
  -26.2703  -15.6214   20.0532 H   0  0  0  0  0  0
  -26.7127  -32.5488   23.1112 H   0  0  0  0  0  0
  -25.0076  -33.9770   25.0452 H   0  0  0  0  0  0
  -22.7026  -31.3055   21.4048 H   0  0  0  0  0  0
  -23.3757  -35.9634   23.3292 H   0  0  0  0  0  0
  -24.3586  -36.8924   22.2051 H   0  0  0  0  0  0
  -23.7256  -37.6504   23.6660 H   0  0  0  0  0  0
  -26.0667  -31.5741   20.5993 H   0  0  0  0  0  0
  -26.8292  -30.8603   21.9914 H   0  0  0  0  0  0
  -28.1083  -29.0473   21.1581 H   0  0  0  0  0  0
  -25.9792  -25.9305   19.0383 H   0  0  0  0  0  0
  -23.9647  -27.2857   19.0512 H   0  0  0  0  0  0
  -23.7388  -30.5910   19.4048 H   0  0  0  0  0  0
  -22.7432  -29.2422   19.8651 H   0  0  0  0  0  0
  -25.1297  -36.1937   25.0822 H   0  0  0  0  0  0
  -21.0003  -28.3248   24.1416 H   0  0  0  0  0  0
  -20.5729  -26.2280   23.3604 H   0  0  0  0  0  0
  -21.6655  -26.7451   22.1177 H   0  0  0  0  0  0
  -19.6917  -25.6295   21.1244 H   0  0  0  0  0  0
  -19.6671  -27.3200   20.6765 H   0  0  0  0  0  0
  -17.4201  -26.6660   21.4064 H   0  0  0  0  0  0
  -18.0365  -26.0051   22.9055 H   0  0  0  0  0  0
  -19.7947  -30.7278   24.2264 H   0  0  0  0  0  0
  -17.5019  -31.6255   24.5174 H   0  0  0  0  0  0
  -15.5360  -30.2979   23.7632 H   0  0  0  0  0  0
  -15.8696  -28.0808   22.7046 H   0  0  0  0  0  0
  -24.5912  -30.7056   25.7780 H   0  0  0  0  0  0
  -24.8940  -32.2876   26.4878 H   0  0  0  0  0  0
  -25.8079  -30.8882   27.0213 H   0  0  0  0  0  0
  -26.2875  -29.6769   24.1164 H   0  0  0  0  0  0
  -27.4058  -29.7245   25.4591 H   0  0  0  0  0  0
  -27.8721  -30.4304   23.9296 H   0  0  0  0  0  0
  -27.2654  -33.3600   26.2072 H   0  0  0  0  0  0
  -28.3852  -32.6892   25.0304 H   0  0  0  0  0  0
  -28.0730  -31.8431   26.5383 H   0  0  0  0  0  0
  -28.2585  -38.0113   24.7515 H   0  0  0  0  0  0
  -28.1097  -36.2639   24.6272 H   0  0  0  0  0  0
  -27.2298  -37.1425   25.8862 H   0  0  0  0  0  0
  -20.9328  -29.8763   21.6922 H   0  0  0  0  0  0
  -26.0174  -38.2848   24.1419 H   0  0  0  0  0  0
  -25.6914  -23.1895   20.2638 H   0  0  0  0  0  0
  -26.7867  -19.0461   20.1110 H   0  0  0  0  0  0
  -28.7171  -23.7951   23.0195 H   0  0  0  0  0  0
  -29.1878  -25.3931   22.4549 H   0  0  0  0  0  0
  -30.0523  -23.9695   21.8799 H   0  0  0  0  0  0
  -23.2267  -19.4606   19.6003 H   0  0  0  0  0  0
  -24.5017  -18.9521   20.7007 H   0  0  0  0  0  0
  -24.7809  -18.9606   18.9435 H   0  0  0  0  0  0
  -30.7877  -17.3142   21.7999 H   0  0  0  0  0  0
  -30.9912  -17.2472   20.0701 H   0  0  0  0  0  0
  -28.3275  -17.8813   21.4523 H   0  0  0  0  0  0
  -28.6036  -17.8497   19.7177 H   0  0  0  0  0  0
  -29.4463  -24.9626   19.4699 H   0  0  0  0  0  0
  -27.8201  -24.9759   18.9267 H   0  0  0  0  0  0
  -27.1374  -24.6131   21.3763 H   0  0  0  0  0  0
  -28.9497  -15.4146   21.1915 H   0  0  0  0  0  0
  1 25  1  0  0  0
  1 30  2  0  0  0
  1 83  1  0  0  0
  2  3  1  0  0  0
  2 25  1  0  0  0
  2 86  1  0  0  0
  2 87  1  0  0  0
  3  4  1  0  0  0
  3 88  1  0  0  0
  3 89  1  0  0  0
  4  5  1  0  0  0
  4 90  1  0  0  0
  4 91  1  0  0  0
  5  6  1  0  0  0
  5 26  1  0  0  0
  5 92  1  0  0  0
  6 25  1  0  0  0
  6 93  1  0  0  0
  6 94  1  0  0  0
  7  8  2  0  0  0
  7 26  1  0  0  0
  7 29  1  0  0  0
  8  9  1  0  0  0
  8 22  1  0  0  0
  9 10  1  0  0  0
  9 27  2  0  0  0
 10 11  2  0  0  0
 10 15  1  0  0  0
 11 12  1  0  0  0
 11 95  1  0  0  0
 12 13  2  0  0  0
 12 96  1  0  0  0
 13 14  1  0  0  0
 13 31  1  0  0  0
 14 15  2  0  0  0
 14 97  1  0  0  0
 15 98  1  0  0  0
 16 17  2  0  0  0
 16 21  1  0  0  0
 16 31  1  0  0  0
 17 18  1  0  0  0
 17 99  1  0  0  0
 18 19  2  0  0  0
 18100  1  0  0  0
 19 20  1  0  0  0
 19 24  1  0  0  0
 20 21  2  0  0  0
 20101  1  0  0  0
 21 23  1  0  0  0
 22 28  1  0  0  0
 22 32  2  0  0  0
 26 27  1  0  0  0
 28102  1  0  0  0
 28103  1  0  0  0
 29104  1  0  0  0
 29105  1  0  0  0
 33 34  1  0  0  0
 33 66  1  0  0  0
 33 70  2  0  0  0
 34 36  1  0  0  0
 34 59  1  0  0  0
 34106  1  0  0  0
 35 44  2  0  0  0
 35 45  1  0  0  0
 35 68  1  0  0  0
 36 56  1  0  0  0
 36107  1  0  0  0
 37 39  1  0  0  0
 37 47  1  0  0  0
 37 66  1  0  0  0
 37108  1  0  0  0
 38 43  2  0  0  0
 38 46  1  0  0  0
 38 47  1  0  0  0
 39 64  1  0  0  0
 39 67  2  0  0  0
 40 52  1  0  0  0
 40 53  2  0  0  0
 40 58  1  0  0  0
 41109  1  0  0  0
 41110  1  0  0  0
 41111  1  0  0  0
 41 48  1  0  0  0
 42 43  1  0  0  0
 42 66  1  0  0  0
 42112  1  0  0  0
 42113  1  0  0  0
 43 44  1  0  0  0
 44114  1  0  0  0
 45 46  2  0  0  0
 45115  1  0  0  0
 46116  1  0  0  0
 47117  1  0  0  0
 47118  1  0  0  0
 48 56  1  0  0  0
 48 65  1  0  0  0
 48119  1  0  0  0
 49 50  1  0  0  0
 49 53  1  0  0  0
 49 64  1  0  0  0
 49120  1  0  0  0
 50 51  1  0  0  0
 50121  1  0  0  0
 50122  1  0  0  0
 51 52  1  0  0  0
 51123  1  0  0  0
 51124  1  0  0  0
 52125  1  0  0  0
 52126  1  0  0  0
 53 54  1  0  0  0
 54 55  2  0  0  0
 54127  1  0  0  0
 55 57  1  0  0  0
 55128  1  0  0  0
 56 69  2  0  0  0
 57 58  2  0  0  0
 57129  1  0  0  0
 58130  1  0  0  0
 59 60  1  0  0  0
 59 61  1  0  0  0
 59 62  1  0  0  0
 60131  1  0  0  0
 60132  1  0  0  0
 60133  1  0  0  0
 61134  1  0  0  0
 61135  1  0  0  0
 61136  1  0  0  0
 62137  1  0  0  0
 62138  1  0  0  0
 62139  1  0  0  0
 63 65  1  0  0  0
 63140  1  0  0  0
 63141  1  0  0  0
 63142  1  0  0  0
 64143  1  0  0  0
 65144  1  0  0  0
 68 80  1  0  0  0
 71 73  2  0  0  0
 71 74  1  0  0  0
 71145  1  0  0  0
 72 73  1  0  0  0
 72 75  2  0  0  0
 72146  1  0  0  0
 73 84  1  0  0  0
 74 81  1  0  0  0
 74 82  2  0  0  0
 75 82  1  0  0  0
 75 85  1  0  0  0
 76147  1  0  0  0
 76148  1  0  0  0
 76149  1  0  0  0
 76 81  1  0  0  0
 77 84  1  0  0  0
 77150  1  0  0  0
 77151  1  0  0  0
 77152  1  0  0  0
 78 79  1  0  0  0
 78 83  1  0  0  0
 78153  1  0  0  0
 78154  1  0  0  0
 79 85  1  0  0  0
 79155  1  0  0  0
 79156  1  0  0  0
 80 81  1  0  0  0
 80157  1  0  0  0
 80158  1  0  0  0
 81159  1  0  0  0
 83160  1  0  0  0
M  ISO  4   1 100  68 101  80 101  83 100
M  END
> <chiral flag>
0

> <version>
0

> <s_m_source_file>
/data/baiqing/PycharmProjects/Reinvent-master-3.2/result/LINK_invent/BTK/process_docking_weight1_custom_sum_contain_oxygen_bond_distance_aromatic_linkinvent_7_9_3/rearranged_h_0156.sdf

> <i_m_source_file_index>
24

> <r_mmod_Potential_Energy-OPLS-2005>
-276.688201904297

> <r_mmod_Stretch_Energy-OPLS-2005>
60.2676734924316

> <r_mmod_Bend_Energy-OPLS-2005>
132.533401489258

> <r_mmod_Torsional_Energy-OPLS-2005>
187.787078857422

> <r_mmod_Improper_Torsional_Energy-OPLS-2005>
4.50893974304199

> <r_mmod_Van_der_Waal_Energy-OPLS-2005>
156.201721191406

> <r_mmod_Electrostatic_Energy-OPLS-2005>
-617.3583984375

> <r_mmod_Solvation_Energy-OPLS-2005>
-228.702117919922

> <b_mmod_Minimization_Converged-OPLS-2005>
0

> <r_mmod_RMS_Derivative-OPLS-2005>
1.07993030548096

$$$$
24
                    3D
 Structure written by MMmdl.
169178  0  0  1  0            999 V2000
  -29.8904  -16.2409   20.3421 C   0  0  0  0  0  0
  -30.3296  -13.5649   19.5709 C   0  0  0  0  0  0
  -29.5553  -12.8386   18.4086 C   0  0  0  0  0  0
  -28.1810  -12.3346   18.8635 C   0  0  0  0  0  0
  -27.5560  -13.3627   19.8223 C   0  0  2  0  0  0
  -28.5060  -13.8970   20.9288 C   0  0  0  0  0  0
  -25.2088  -13.8345   20.5870 C   0  0  0  0  0  0
  -24.1581  -13.0405   20.9357 C   0  0  0  0  0  0
  -24.6386  -11.6949   20.8780 C   0  0  0  0  0  0
  -23.9125  -10.4283   21.0387 C   0  0  0  0  0  0
  -24.3659   -9.4193   21.9165 C   0  0  0  0  0  0
  -23.6322   -8.2229   22.0743 C   0  0  0  0  0  0
  -22.4291   -8.0276   21.3547 C   0  0  0  0  0  0
  -21.9940   -9.0242   20.4631 C   0  0  0  0  0  0
  -22.7291  -10.2113   20.3038 C   0  0  0  0  0  0
  -21.6851   -6.0734   22.5282 C   0  0  0  0  0  0
  -21.4016   -6.5641   23.8215 C   0  0  0  0  0  0
  -21.3665   -5.6795   24.9179 C   0  0  0  0  0  0
  -21.6043   -4.3056   24.7228 C   0  0  0  0  0  0
  -21.8819   -3.8145   23.4351 C   0  0  0  0  0  0
  -21.9195   -4.6962   22.3408 C   0  0  0  0  0  0
  -22.7593  -13.5090   21.1989 C   0  0  0  0  0  0
  -22.1659   -4.2155   21.0982 F   0  0  0  0  0  0
  -21.5631   -3.4535   25.7737 F   0  0  0  0  0  0
  -29.5348  -14.7492   20.2528 N   0  0  0  0  0  0
  -26.2550  -12.9756   20.3274 N   0  0  0  0  0  0
  -25.9330  -11.6766   20.5672 N   0  0  0  0  0  0
  -22.0282  -12.8047   22.0543 N   0  0  0  0  0  0
  -25.3571  -15.2112   20.4323 N   0  0  0  0  0  0
  -31.1460  -16.1455   20.2126 O   0  0  0  0  0  0
  -21.6647   -6.8877   21.4244 O   0  0  0  0  0  0
  -22.3254  -14.5383   20.6819 O   0  0  0  0  0  0
  -24.7295  -31.8465   23.3069 C   0  0  0  0  0  0
  -25.9591  -32.5283   23.9270 C   0  0  1  0  0  0
  -28.2218  -26.6495   19.5183 C   0  0  0  0  0  0
  -25.6012  -33.9033   24.2759 N   0  0  0  0  0  0
  -23.2877  -30.0466   21.7639 C   0  0  2  0  0  0
  -24.9133  -27.2754   19.8528 C   0  0  0  0  0  0
  -22.3778  -29.6208   22.8357 C   0  0  0  0  0  0
  -17.9330  -28.1203   22.8267 C   0  0  0  0  0  0
  -24.1536  -36.7482   23.2486 C   0  0  0  0  0  0
  -26.8182  -30.6172   21.6694 C   0  0  0  0  0  0
  -27.3918  -28.9811   20.4784 C   0  0  0  0  0  0
  -28.5112  -28.0601   20.1646 C   0  0  0  0  0  0
  -27.0424  -25.6994   18.3592 C   0  0  0  0  0  0
  -25.2983  -25.9675   18.8599 C   0  0  0  0  0  0
  -23.1903  -28.2466   20.4355 C   0  0  0  0  0  0
  -25.4067  -36.3333   24.0307 C   0  0  1  0  0  0
  -20.4470  -28.2738   23.2449 C   0  0  2  0  0  0
  -20.5351  -26.8352   22.7002 C   0  0  0  0  0  0
  -19.5424  -26.6008   21.5562 C   0  0  0  0  0  0
  -18.1110  -26.7912   22.0984 C   0  0  0  0  0  0
  -19.0494  -28.8250   23.3289 C   0  0  0  0  0  0
  -18.8772  -30.0915   23.9129 C   0  0  0  0  0  0
  -17.5976  -30.6498   24.0389 C   0  0  0  0  0  0
  -25.8982  -34.9659   23.5254 C   0  0  0  0  0  0
  -16.4726  -29.9307   23.5943 C   0  0  0  0  0  0
  -16.6419  -28.6644   22.9963 C   0  0  0  0  0  0
  -26.4610  -31.7775   25.2146 C   0  0  0  0  0  0
  -25.3472  -31.4093   26.2283 C   0  0  0  0  0  0
  -27.1816  -30.4865   24.8857 C   0  0  0  0  0  0
  -27.5457  -32.6100   25.9199 C   0  0  0  0  0  0
  -27.5575  -37.1863   24.8414 C   0  0  0  0  0  0
  -21.2149  -29.1714   22.4278 N   0  0  0  0  0  0
  -26.4301  -37.3919   23.9373 N   0  0  0  0  0  0
  -24.9535  -30.8819   22.3954 N   0  0  0  0  0  0
  -22.7932  -29.3721   23.9453 O   0  0  0  0  0  0
  -27.0047  -27.0874   20.5155 O   0  0  0  0  0  0
  -26.5428  -34.8819   22.4766 O   0  0  0  0  0  0
  -23.5980  -32.1814   23.7022 O   0  0  0  0  0  0
  -26.5694  -27.8248   18.6130 C   0  0  0  0  0  0
  -27.4834  -25.8233   22.1271 C   0  0  0  0  0  0
  -25.6344  -29.2060   19.2754 C   0  0  0  0  0  0
  -25.5381  -28.6553   21.4773 C   0  0  0  0  0  0
  -27.0512  -27.6244   22.5569 C   0  0  0  0  0  0
  -26.8703  -25.1274   20.4866 C   0  0  0  0  0  0
  -25.0676  -30.2100   18.2904 C   0  0  0  0  0  0
  -23.9944  -30.2324   19.1994 C   0  0  0  0  0  0
  -25.0713  -29.6506   20.3927 C   0  0  1  0  0  0
  -28.2309  -28.1784   23.3310 C   0  0  0  0  0  0
  -24.9673  -27.4664   24.6796 C   0  0  0  0  0  0
  -27.7194  -21.5811   20.6120 C   0  0  0  0  0  0
  -28.8876  -19.7131   20.3305 C   0  0  0  0  0  0
  -25.2484  -26.3979   21.8560 C   0  0  0  0  0  0
  -24.8311  -28.1714   22.1360 C   0  0  2  0  0  0
  -27.4676  -23.4548   20.2020 N   0  0  0  0  0  0
  -29.0293  -17.7177   20.4081 N   0  0  0  0  0  0
  -24.9855  -28.4761   23.6553 O   0  0  0  0  0  0
  -31.2469  -13.9577   19.1316 H   0  0  0  0  0  0
  -30.6865  -12.8448   20.3106 H   0  0  0  0  0  0
  -30.1526  -12.0171   18.0063 H   0  0  0  0  0  0
  -29.4199  -13.5470   17.5884 H   0  0  0  0  0  0
  -28.3183  -11.3877   19.3878 H   0  0  0  0  0  0
  -27.5330  -12.1363   18.0083 H   0  0  0  0  0  0
  -27.3534  -14.2155   19.1718 H   0  0  0  0  0  0
  -28.9176  -13.0902   21.5369 H   0  0  0  0  0  0
  -27.9541  -14.5272   21.6268 H   0  0  0  0  0  0
  -25.2792   -9.5669   22.4757 H   0  0  0  0  0  0
  -24.0022   -7.4621   22.7475 H   0  0  0  0  0  0
  -21.0861   -8.8767   19.8940 H   0  0  0  0  0  0
  -22.3740  -10.9650   19.6154 H   0  0  0  0  0  0
  -21.2004   -7.6148   23.9726 H   0  0  0  0  0  0
  -21.1487   -6.0519   25.9087 H   0  0  0  0  0  0
  -22.0593   -2.7607   23.2847 H   0  0  0  0  0  0
  -22.3949  -11.9732   22.4941 H   0  0  0  0  0  0
  -21.0884  -13.1017   22.2775 H   0  0  0  0  0  0
  -24.5702  -15.8437   20.5370 H   0  0  0  0  0  0
  -26.1787  -15.6566   20.0464 H   0  0  0  0  0  0
  -26.7665  -32.5679   23.1961 H   0  0  0  0  0  0
  -25.0573  -34.0390   25.1176 H   0  0  0  0  0  0
  -22.7348  -30.8742   21.3056 H   0  0  0  0  0  0
  -23.3751  -35.9876   23.3132 H   0  0  0  0  0  0
  -24.3712  -36.9087   22.1914 H   0  0  0  0  0  0
  -23.7229  -37.6691   23.6379 H   0  0  0  0  0  0
  -27.0238  -31.5081   21.0667 H   0  0  0  0  0  0
  -27.5704  -30.7220   22.4291 H   0  0  0  0  0  0
  -29.5176  -28.3284   20.4421 H   0  0  0  0  0  0
  -27.3470  -24.8613   17.7584 H   0  0  0  0  0  0
  -24.5285  -25.3174   18.4815 H   0  0  0  0  0  0
  -22.4020  -28.2456   19.6772 H   0  0  0  0  0  0
  -22.6319  -27.4682   20.9526 H   0  0  0  0  0  0
  -25.1129  -36.2288   25.0773 H   0  0  0  0  0  0
  -20.8154  -28.2832   24.2771 H   0  0  0  0  0  0
  -20.2342  -26.1592   23.5074 H   0  0  0  0  0  0
  -21.5536  -26.5431   22.4525 H   0  0  0  0  0  0
  -19.6601  -25.5888   21.1652 H   0  0  0  0  0  0
  -19.7438  -27.2820   20.7243 H   0  0  0  0  0  0
  -17.3817  -26.6943   21.2889 H   0  0  0  0  0  0
  -17.8653  -25.9924   22.7992 H   0  0  0  0  0  0
  -19.7379  -30.6278   24.2757 H   0  0  0  0  0  0
  -17.4781  -31.6126   24.5152 H   0  0  0  0  0  0
  -15.4765  -30.3396   23.7278 H   0  0  0  0  0  0
  -15.7682  -28.1097   22.6714 H   0  0  0  0  0  0
  -24.6176  -30.7186   25.7988 H   0  0  0  0  0  0
  -24.8067  -32.2850   26.5891 H   0  0  0  0  0  0
  -25.7569  -30.9128   27.1119 H   0  0  0  0  0  0
  -26.5812  -29.8634   24.2624 H   0  0  0  0  0  0
  -27.4077  -29.9121   25.7847 H   0  0  0  0  0  0
  -28.1347  -30.6749   24.4010 H   0  0  0  0  0  0
  -27.1348  -33.5058   26.3793 H   0  0  0  0  0  0
  -28.3236  -32.9415   25.2342 H   0  0  0  0  0  0
  -28.0172  -32.0709   26.7369 H   0  0  0  0  0  0
  -28.2543  -38.0202   24.7526 H   0  0  0  0  0  0
  -28.1140  -36.2724   24.6216 H   0  0  0  0  0  0
  -27.2255  -37.1486   25.8802 H   0  0  0  0  0  0
  -20.8905  -29.3077   21.4857 H   0  0  0  0  0  0
  -26.0305  -38.3028   24.1453 H   0  0  0  0  0  0
  -26.6632  -27.8738   17.5294 H   0  0  0  0  0  0
  -28.1538  -25.2390   22.7322 H   0  0  0  0  0  0
  -24.7869  -29.8394   17.3025 H   0  0  0  0  0  0
  -25.6314  -31.1398   18.2258 H   0  0  0  0  0  0
  -23.2290  -29.6796   18.6666 H   0  0  0  0  0  0
  -23.6118  -31.2539   19.3132 H   0  0  0  0  0  0
  -25.1223  -30.8103   20.3783 H   0  0  0  0  0  0
  -28.0019  -28.1937   24.3873 H   0  0  0  0  0  0
  -28.6504  -29.1147   22.9714 H   0  0  0  0  0  0
  -29.0507  -27.4684   23.2327 H   0  0  0  0  0  0
  -24.7810  -27.9268   25.6452 H   0  0  0  0  0  0
  -24.2207  -26.6861   24.5309 H   0  0  0  0  0  0
  -25.9496  -27.0260   24.8376 H   0  0  0  0  0  0
  -27.5704  -21.5990   21.6919 H   0  0  0  0  0  0
  -26.7640  -21.2212   20.2302 H   0  0  0  0  0  0
  -29.7608  -19.9429   20.9462 H   0  0  0  0  0  0
  -29.2527  -19.8572   19.3146 H   0  0  0  0  0  0
  -25.3526  -25.8713   22.8171 H   0  0  0  0  0  0
  -24.4476  -25.7504   21.4575 H   0  0  0  0  0  0
  -23.8431  -27.8013   22.4764 H   0  0  0  0  0  0
  -27.7900  -23.4753   19.2384 H   0  0  0  0  0  0
  -28.0742  -17.4023   20.5052 H   0  0  0  0  0  0
  1 25  1  0  0  0
  1 30  2  0  0  0
  1 87  1  0  0  0
  2  3  1  0  0  0
  2 25  1  0  0  0
  2 89  1  0  0  0
  2 90  1  0  0  0
  3  4  1  0  0  0
  3 91  1  0  0  0
  3 92  1  0  0  0
  4  5  1  0  0  0
  4 93  1  0  0  0
  4 94  1  0  0  0
  5  6  1  0  0  0
  5 26  1  0  0  0
  5 95  1  0  0  0
  6 25  1  0  0  0
  6 96  1  0  0  0
  6 97  1  0  0  0
  7  8  2  0  0  0
  7 26  1  0  0  0
  7 29  1  0  0  0
  8  9  1  0  0  0
  8 22  1  0  0  0
  9 10  1  0  0  0
  9 27  2  0  0  0
 10 11  2  0  0  0
 10 15  1  0  0  0
 11 12  1  0  0  0
 11 98  1  0  0  0
 12 13  2  0  0  0
 12 99  1  0  0  0
 13 14  1  0  0  0
 13 31  1  0  0  0
 14 15  2  0  0  0
 14100  1  0  0  0
 15101  1  0  0  0
 16 17  2  0  0  0
 16 21  1  0  0  0
 16 31  1  0  0  0
 17 18  1  0  0  0
 17102  1  0  0  0
 18 19  2  0  0  0
 18103  1  0  0  0
 19 20  1  0  0  0
 19 24  1  0  0  0
 20 21  2  0  0  0
 20104  1  0  0  0
 21 23  1  0  0  0
 22 28  1  0  0  0
 22 32  2  0  0  0
 26 27  1  0  0  0
 28105  1  0  0  0
 28106  1  0  0  0
 29107  1  0  0  0
 29108  1  0  0  0
 33 34  1  0  0  0
 33 66  1  0  0  0
 33 70  2  0  0  0
 34 36  1  0  0  0
 34 59  1  0  0  0
 34109  1  0  0  0
 35 44  2  0  0  0
 35 45  1  0  0  0
 35 68  1  0  0  0
 36 56  1  0  0  0
 36110  1  0  0  0
 37 39  1  0  0  0
 37 47  1  0  0  0
 37 66  1  0  0  0
 37111  1  0  0  0
 38 43  2  0  0  0
 38 46  1  0  0  0
 38 47  1  0  0  0
 39 64  1  0  0  0
 39 67  2  0  0  0
 40 52  1  0  0  0
 40 53  2  0  0  0
 40 58  1  0  0  0
 41112  1  0  0  0
 41113  1  0  0  0
 41114  1  0  0  0
 41 48  1  0  0  0
 42 43  1  0  0  0
 42 66  1  0  0  0
 42115  1  0  0  0
 42116  1  0  0  0
 43 44  1  0  0  0
 44117  1  0  0  0
 45 46  2  0  0  0
 45118  1  0  0  0
 46119  1  0  0  0
 47120  1  0  0  0
 47121  1  0  0  0
 48 56  1  0  0  0
 48 65  1  0  0  0
 48122  1  0  0  0
 49 50  1  0  0  0
 49 53  1  0  0  0
 49 64  1  0  0  0
 49123  1  0  0  0
 50 51  1  0  0  0
 50124  1  0  0  0
 50125  1  0  0  0
 51 52  1  0  0  0
 51126  1  0  0  0
 51127  1  0  0  0
 52128  1  0  0  0
 52129  1  0  0  0
 53 54  1  0  0  0
 54 55  2  0  0  0
 54130  1  0  0  0
 55 57  1  0  0  0
 55131  1  0  0  0
 56 69  2  0  0  0
 57 58  2  0  0  0
 57132  1  0  0  0
 58133  1  0  0  0
 59 60  1  0  0  0
 59 61  1  0  0  0
 59 62  1  0  0  0
 60134  1  0  0  0
 60135  1  0  0  0
 60136  1  0  0  0
 61137  1  0  0  0
 61138  1  0  0  0
 61139  1  0  0  0
 62140  1  0  0  0
 62141  1  0  0  0
 62142  1  0  0  0
 63 65  1  0  0  0
 63143  1  0  0  0
 63144  1  0  0  0
 63145  1  0  0  0
 64146  1  0  0  0
 65147  1  0  0  0
 68 84  1  0  0  0
 71 73  2  0  0  0
 71 76  1  0  0  0
 71148  1  0  0  0
 72 75  1  0  0  0
 72 76  2  0  0  0
 72149  1  0  0  0
 73 74  1  0  0  0
 73 77  1  0  0  0
 74 75  2  0  0  0
 74 79  1  0  0  0
 75 80  1  0  0  0
 76 86  1  0  0  0
 77 78  1  0  0  0
 77150  1  0  0  0
 77151  1  0  0  0
 78152  1  0  0  0
 78153  1  0  0  0
 78 79  1  0  0  0
 79 85  1  0  0  0
 79154  1  0  0  0
 80155  1  0  0  0
 80156  1  0  0  0
 80157  1  0  0  0
 81 88  1  0  0  0
 81158  1  0  0  0
 81159  1  0  0  0
 81160  1  0  0  0
 82 83  1  0  0  0
 82 86  1  0  0  0
 82161  1  0  0  0
 82162  1  0  0  0
 83 87  1  0  0  0
 83163  1  0  0  0
 83164  1  0  0  0
 84165  1  0  0  0
 84166  1  0  0  0
 84 85  1  0  0  0
 85 88  1  0  0  0
 85167  1  0  0  0
 86168  1  0  0  0
 87169  1  0  0  0
M  ISO  4   1 100  68 101  84 101  87 100
M  END
> <chiral flag>
0

> <version>
0

> <s_m_source_file>
/data/baiqing/PycharmProjects/Reinvent-master-3.2/result/LINK_invent/BTK/process_docking_weight1_custom_sum_contain_oxygen_bond_distance_aromatic_linkinvent_7_9_3/rearranged_h_0156.sdf

> <i_m_source_file_index>
25

> <r_mmod_Potential_Energy-OPLS-2005>
40360.7734375

> <r_mmod_Stretch_Energy-OPLS-2005>
23934.912109375

> <r_mmod_Bend_Energy-OPLS-2005>
3703.57055664062

> <r_mmod_Torsional_Energy-OPLS-2005>
551.118713378906

> <r_mmod_Improper_Torsional_Energy-OPLS-2005>
79.5404434204102

> <r_mmod_Van_der_Waal_Energy-OPLS-2005>
8814.119140625

> <r_mmod_Electrostatic_Energy-OPLS-2005>
-314.901550292969

> <r_mmod_Solvation_Energy-OPLS-2005>
-245.40348815918

> <b_mmod_Minimization_Converged-OPLS-2005>
0

> <r_mmod_RMS_Derivative-OPLS-2005>
20.1018218994141

$$$$
25
                    3D
 Structure written by MMmdl.
169178  0  0  1  0            999 V2000
  -30.6030  -14.7347   20.4681 C   0  0  0  0  0  0
  -30.4361  -12.4534   19.4514 C   0  0  0  0  0  0
  -29.5063  -12.5169   18.2197 C   0  0  0  0  0  0
  -28.0317  -12.3390   18.6299 C   0  0  0  0  0  0
  -27.6416  -13.2266   19.8404 C   0  0  2  0  0  0
  -28.6914  -13.1459   20.9718 C   0  0  0  0  0  0
  -25.2522  -13.8200   20.5643 C   0  0  0  0  0  0
  -24.1822  -13.0440   20.9202 C   0  0  0  0  0  0
  -24.6401  -11.6911   20.8701 C   0  0  0  0  0  0
  -23.9076  -10.4296   21.0367 C   0  0  0  0  0  0
  -24.3624   -9.4228   21.9185 C   0  0  0  0  0  0
  -23.6311   -8.2257   22.0740 C   0  0  0  0  0  0
  -22.4273   -8.0292   21.3560 C   0  0  0  0  0  0
  -21.9911   -9.0251   20.4642 C   0  0  0  0  0  0
  -22.7231  -10.2143   20.3053 C   0  0  0  0  0  0
  -21.6869   -6.0731   22.5283 C   0  0  0  0  0  0
  -21.4001   -6.5628   23.8202 C   0  0  0  0  0  0
  -21.3653   -5.6774   24.9173 C   0  0  0  0  0  0
  -21.6064   -4.3042   24.7214 C   0  0  0  0  0  0
  -21.8828   -3.8136   23.4320 C   0  0  0  0  0  0
  -21.9200   -4.6956   22.3392 C   0  0  0  0  0  0
  -22.7863  -13.5231   21.1878 C   0  0  0  0  0  0
  -22.1680   -4.2136   21.0970 F   0  0  0  0  0  0
  -21.5652   -3.4527   25.7728 F   0  0  0  0  0  0
  -29.9905  -13.5044   20.3900 N   0  0  0  0  0  0
  -26.2943  -12.9371   20.3215 N   0  0  0  0  0  0
  -25.9330  -11.6526   20.5704 N   0  0  0  0  0  0
  -22.0531  -12.8196   22.0420 N   0  0  0  0  0  0
  -25.4281  -15.1909   20.3969 N   0  0  0  0  0  0
  -31.8008  -14.8501   20.1959 O   0  0  0  0  0  0
  -21.6668   -6.8872   21.4235 O   0  0  0  0  0  0
  -22.3510  -14.5552   20.6740 O   0  0  0  0  0  0
  -24.6280  -31.8550   23.1942 C   0  0  0  0  0  0
  -25.9102  -32.4769   23.8305 C   0  0  1  0  0  0
  -27.2364  -27.2714   20.1291 C   0  0  0  0  0  0
  -25.5900  -33.8568   24.2243 N   0  0  0  0  0  0
  -23.4263  -30.4705   21.5390 C   0  0  2  0  0  0
  -24.8753  -28.9101   20.1093 C   0  0  0  0  0  0
  -22.7502  -29.4580   22.4940 C   0  0  0  0  0  0
  -18.0287  -28.1397   22.8489 C   0  0  0  0  0  0
  -24.1486  -36.7290   23.2638 C   0  0  0  0  0  0
  -25.9670  -30.7704   21.3691 C   0  0  0  0  0  0
  -26.0411  -29.3895   20.7169 C   0  0  0  0  0  0
  -27.2198  -28.5820   20.7124 C   0  0  0  0  0  0
  -26.0490  -26.8464   19.4953 C   0  0  0  0  0  0
  -24.8843  -27.6491   19.4854 C   0  0  0  0  0  0
  -23.6417  -29.7930   20.1579 C   0  0  0  0  0  0
  -25.4123  -36.3096   24.0326 C   0  0  1  0  0  0
  -20.5884  -28.3698   23.1300 C   0  0  2  0  0  0
  -20.6781  -26.9420   22.5429 C   0  0  0  0  0  0
  -19.5764  -26.6389   21.5229 C   0  0  0  0  0  0
  -18.1933  -26.7938   22.1624 C   0  0  0  0  0  0
  -19.1536  -28.8868   23.2882 C   0  0  0  0  0  0
  -18.9445  -30.1470   23.8905 C   0  0  0  0  0  0
  -17.6454  -30.6599   24.0561 C   0  0  0  0  0  0
  -25.9050  -34.9457   23.5103 C   0  0  0  0  0  0
  -16.5340  -29.9108   23.6329 C   0  0  0  0  0  0
  -16.7267  -28.6514   23.0347 C   0  0  0  0  0  0
  -26.4478  -31.6598   25.0690 C   0  0  0  0  0  0
  -25.3679  -31.3726   26.1388 C   0  0  0  0  0  0
  -27.0325  -30.3031   24.6150 C   0  0  0  0  0  0
  -27.6041  -32.4326   25.7461 C   0  0  0  0  0  0
  -27.5591  -37.1803   24.8463 C   0  0  0  0  0  0
  -21.4203  -29.3032   22.3691 N   0  0  0  0  0  0
  -26.4306  -37.3793   23.9395 N   0  0  0  0  0  0
  -24.6932  -31.0509   22.0914 N   0  0  0  0  0  0
  -23.4206  -28.8134   23.3052 O   0  0  0  0  0  0
  -28.3752  -26.4436   20.2164 O   0  0  0  0  0  0
  -26.5643  -34.8929   22.4687 O   0  0  0  0  0  0
  -23.5436  -32.1362   23.7256 O   0  0  0  0  0  0
  -31.7294  -22.0221   18.3779 C   0  0  0  0  0  0
  -29.8918  -22.3743   19.9421 C   0  0  0  0  0  0
  -31.2567  -22.5719   19.5816 C   0  0  0  0  0  0
  -30.8803  -21.2410   17.5706 C   0  0  0  0  0  0
  -29.4220  -21.0538   19.5151 C   0  0  0  0  0  0
  -29.6876  -20.7210   18.1560 C   0  0  0  0  0  0
  -29.7414  -24.9454   20.6000 C   0  0  0  0  0  0
  -29.0675  -23.6231   20.5456 C   0  0  1  0  0  0
  -28.4458  -24.9856   19.8395 C   0  0  1  0  0  0
  -32.2558  -23.3686   20.4113 C   0  0  0  0  0  0
  -31.3550  -20.9671   16.1521 C   0  0  0  0  0  0
  -29.7956  -17.6061   22.3963 C   0  0  0  0  0  0
  -29.2262  -18.9103   16.5902 C   0  0  0  0  0  0
  -29.4220  -18.4327   19.9723 C   0  0  0  0  0  0
  -30.1187  -17.3199   20.9206 C   0  0  2  0  0  0
  -29.3146  -19.8984   20.4013 N   0  0  0  0  0  0
  -29.7966  -15.8441   20.6680 N   0  0  0  0  0  0
  -28.7847  -19.8661   17.5465 O   0  0  0  0  0  0
  -31.4748  -12.5903   19.1470 H   0  0  0  0  0  0
  -30.3816  -11.4725   19.9260 H   0  0  0  0  0  0
  -29.7761  -11.7511   17.4918 H   0  0  0  0  0  0
  -29.6325  -13.4768   17.7171 H   0  0  0  0  0  0
  -27.8848  -11.2888   18.8788 H   0  0  0  0  0  0
  -27.3756  -12.5435   17.7821 H   0  0  0  0  0  0
  -27.6309  -14.2475   19.4584 H   0  0  0  0  0  0
  -28.7358  -12.1429   21.3953 H   0  0  0  0  0  0
  -28.4304  -13.8157   21.7921 H   0  0  0  0  0  0
  -25.2769   -9.5725   22.4738 H   0  0  0  0  0  0
  -24.0046   -7.4639   22.7429 H   0  0  0  0  0  0
  -21.0869   -8.8747   19.8917 H   0  0  0  0  0  0
  -22.3684  -10.9681   19.6143 H   0  0  0  0  0  0
  -21.1973   -7.6129   23.9687 H   0  0  0  0  0  0
  -21.1492   -6.0529   25.9076 H   0  0  0  0  0  0
  -22.0615   -2.7590   23.2843 H   0  0  0  0  0  0
  -22.4128  -11.9822   22.4764 H   0  0  0  0  0  0
  -21.1141  -13.1208   22.2609 H   0  0  0  0  0  0
  -24.6678  -15.8594   20.4801 H   0  0  0  0  0  0
  -26.2816  -15.6085   20.0506 H   0  0  0  0  0  0
  -26.7164  -32.5432   23.1038 H   0  0  0  0  0  0
  -25.0022  -33.9719   25.0374 H   0  0  0  0  0  0
  -22.7211  -31.2907   21.3901 H   0  0  0  0  0  0
  -23.3774  -35.9598   23.3296 H   0  0  0  0  0  0
  -24.3565  -36.8920   22.2051 H   0  0  0  0  0  0
  -23.7204  -37.6473   23.6669 H   0  0  0  0  0  0
  -26.0970  -31.5270   20.5936 H   0  0  0  0  0  0
  -26.8491  -30.8318   21.9957 H   0  0  0  0  0  0
  -28.1166  -28.9459   21.1940 H   0  0  0  0  0  0
  -26.0081  -25.8769   19.0185 H   0  0  0  0  0  0
  -23.9902  -27.2839   18.9980 H   0  0  0  0  0  0
  -23.7559  -30.5639   19.3959 H   0  0  0  0  0  0
  -22.7621  -29.2183   19.8610 H   0  0  0  0  0  0
  -25.1307  -36.1957   25.0825 H   0  0  0  0  0  0
  -20.9967  -28.3273   24.1425 H   0  0  0  0  0  0
  -20.5715  -26.2295   23.3628 H   0  0  0  0  0  0
  -21.6644  -26.7467   22.1193 H   0  0  0  0  0  0
  -19.6925  -25.6305   21.1257 H   0  0  0  0  0  0
  -19.6713  -27.3202   20.6769 H   0  0  0  0  0  0
  -17.4209  -26.6694   21.4010 H   0  0  0  0  0  0
  -18.0307  -26.0079   22.9021 H   0  0  0  0  0  0
  -19.7931  -30.7273   24.2280 H   0  0  0  0  0  0
  -17.5005  -31.6275   24.5173 H   0  0  0  0  0  0
  -15.5343  -30.3001   23.7657 H   0  0  0  0  0  0
  -15.8659  -28.0832   22.7072 H   0  0  0  0  0  0
  -24.5856  -30.7106   25.7653 H   0  0  0  0  0  0
  -24.8865  -32.2895   26.4808 H   0  0  0  0  0  0
  -25.7955  -30.8857   27.0163 H   0  0  0  0  0  0
  -26.2901  -29.6779   24.1180 H   0  0  0  0  0  0
  -27.4039  -29.7291   25.4646 H   0  0  0  0  0  0
  -27.8761  -30.4331   23.9364 H   0  0  0  0  0  0
  -27.2673  -33.3634   26.2038 H   0  0  0  0  0  0
  -28.3849  -32.6877   25.0279 H   0  0  0  0  0  0
  -28.0718  -31.8444   26.5364 H   0  0  0  0  0  0
  -28.2606  -38.0104   24.7536 H   0  0  0  0  0  0
  -28.1095  -36.2637   24.6278 H   0  0  0  0  0  0
  -27.2299  -37.1429   25.8863 H   0  0  0  0  0  0
  -20.9411  -29.8707   21.6839 H   0  0  0  0  0  0
  -26.0197  -38.2874   24.1406 H   0  0  0  0  0  0
  -32.7246  -22.2769   18.0378 H   0  0  0  0  0  0
  -30.5730  -25.2062   19.9500 H   0  0  0  0  0  0
  -29.8130  -25.3713   21.6007 H   0  0  0  0  0  0
  -28.5669  -23.2944   21.4550 H   0  0  0  0  0  0
  -28.4773  -24.9437   18.7524 H   0  0  0  0  0  0
  -33.1189  -22.7452   20.6490 H   0  0  0  0  0  0
  -31.8461  -23.7009   21.3629 H   0  0  0  0  0  0
  -32.6238  -24.2360   19.8639 H   0  0  0  0  0  0
  -32.1236  -21.6861   15.8630 H   0  0  0  0  0  0
  -30.5432  -21.0721   15.4324 H   0  0  0  0  0  0
  -31.8068  -19.9796   16.0699 H   0  0  0  0  0  0
  -30.1164  -18.6065   22.6874 H   0  0  0  0  0  0
  -30.3099  -16.9069   23.0576 H   0  0  0  0  0  0
  -28.7264  -17.5257   22.5939 H   0  0  0  0  0  0
  -28.5383  -18.0648   16.6117 H   0  0  0  0  0  0
  -30.2174  -18.5109   16.8060 H   0  0  0  0  0  0
  -29.2017  -19.3107   15.5772 H   0  0  0  0  0  0
  -28.4091  -18.1008   19.7367 H   0  0  0  0  0  0
  -29.9769  -18.3760   19.0390 H   0  0  0  0  0  0
  -31.1978  -17.4388   20.7970 H   0  0  0  0  0  0
  -29.4208  -20.0663   21.3975 H   0  0  0  0  0  0
  -28.8187  -15.6124   20.7493 H   0  0  0  0  0  0
  1 25  1  0  0  0
  1 30  2  0  0  0
  1 87  1  0  0  0
  2  3  1  0  0  0
  2 25  1  0  0  0
  2 89  1  0  0  0
  2 90  1  0  0  0
  3  4  1  0  0  0
  3 91  1  0  0  0
  3 92  1  0  0  0
  4  5  1  0  0  0
  4 93  1  0  0  0
  4 94  1  0  0  0
  5  6  1  0  0  0
  5 26  1  0  0  0
  5 95  1  0  0  0
  6 25  1  0  0  0
  6 96  1  0  0  0
  6 97  1  0  0  0
  7  8  2  0  0  0
  7 26  1  0  0  0
  7 29  1  0  0  0
  8  9  1  0  0  0
  8 22  1  0  0  0
  9 10  1  0  0  0
  9 27  2  0  0  0
 10 11  2  0  0  0
 10 15  1  0  0  0
 11 12  1  0  0  0
 11 98  1  0  0  0
 12 13  2  0  0  0
 12 99  1  0  0  0
 13 14  1  0  0  0
 13 31  1  0  0  0
 14 15  2  0  0  0
 14100  1  0  0  0
 15101  1  0  0  0
 16 17  2  0  0  0
 16 21  1  0  0  0
 16 31  1  0  0  0
 17 18  1  0  0  0
 17102  1  0  0  0
 18 19  2  0  0  0
 18103  1  0  0  0
 19 20  1  0  0  0
 19 24  1  0  0  0
 20 21  2  0  0  0
 20104  1  0  0  0
 21 23  1  0  0  0
 22 28  1  0  0  0
 22 32  2  0  0  0
 26 27  1  0  0  0
 28105  1  0  0  0
 28106  1  0  0  0
 29107  1  0  0  0
 29108  1  0  0  0
 33 34  1  0  0  0
 33 66  1  0  0  0
 33 70  2  0  0  0
 34 36  1  0  0  0
 34 59  1  0  0  0
 34109  1  0  0  0
 35 44  2  0  0  0
 35 45  1  0  0  0
 35 68  1  0  0  0
 36 56  1  0  0  0
 36110  1  0  0  0
 37 39  1  0  0  0
 37 47  1  0  0  0
 37 66  1  0  0  0
 37111  1  0  0  0
 38 43  2  0  0  0
 38 46  1  0  0  0
 38 47  1  0  0  0
 39 64  1  0  0  0
 39 67  2  0  0  0
 40 52  1  0  0  0
 40 53  2  0  0  0
 40 58  1  0  0  0
 41112  1  0  0  0
 41113  1  0  0  0
 41114  1  0  0  0
 41 48  1  0  0  0
 42 43  1  0  0  0
 42 66  1  0  0  0
 42115  1  0  0  0
 42116  1  0  0  0
 43 44  1  0  0  0
 44117  1  0  0  0
 45 46  2  0  0  0
 45118  1  0  0  0
 46119  1  0  0  0
 47120  1  0  0  0
 47121  1  0  0  0
 48 56  1  0  0  0
 48 65  1  0  0  0
 48122  1  0  0  0
 49 50  1  0  0  0
 49 53  1  0  0  0
 49 64  1  0  0  0
 49123  1  0  0  0
 50 51  1  0  0  0
 50124  1  0  0  0
 50125  1  0  0  0
 51 52  1  0  0  0
 51126  1  0  0  0
 51127  1  0  0  0
 52128  1  0  0  0
 52129  1  0  0  0
 53 54  1  0  0  0
 54 55  2  0  0  0
 54130  1  0  0  0
 55 57  1  0  0  0
 55131  1  0  0  0
 56 69  2  0  0  0
 57 58  2  0  0  0
 57132  1  0  0  0
 58133  1  0  0  0
 59 60  1  0  0  0
 59 61  1  0  0  0
 59 62  1  0  0  0
 60134  1  0  0  0
 60135  1  0  0  0
 60136  1  0  0  0
 61137  1  0  0  0
 61138  1  0  0  0
 61139  1  0  0  0
 62140  1  0  0  0
 62141  1  0  0  0
 62142  1  0  0  0
 63 65  1  0  0  0
 63143  1  0  0  0
 63144  1  0  0  0
 63145  1  0  0  0
 64146  1  0  0  0
 65147  1  0  0  0
 68 79  1  0  0  0
 71 73  2  0  0  0
 71 74  1  0  0  0
 71148  1  0  0  0
 72 73  1  0  0  0
 72 75  2  0  0  0
 72 78  1  0  0  0
 73 80  1  0  0  0
 74 76  2  0  0  0
 74 81  1  0  0  0
 75 76  1  0  0  0
 75 86  1  0  0  0
 76 88  1  0  0  0
 77 78  1  0  0  0
 77 79  1  0  0  0
 77149  1  0  0  0
 77150  1  0  0  0
 78 79  1  0  0  0
 78151  1  0  0  0
 79152  1  0  0  0
 80153  1  0  0  0
 80154  1  0  0  0
 80155  1  0  0  0
 81156  1  0  0  0
 81157  1  0  0  0
 81158  1  0  0  0
 82159  1  0  0  0
 82160  1  0  0  0
 82161  1  0  0  0
 82 85  1  0  0  0
 83 88  1  0  0  0
 83162  1  0  0  0
 83163  1  0  0  0
 83164  1  0  0  0
 84 85  1  0  0  0
 84 86  1  0  0  0
 84165  1  0  0  0
 84166  1  0  0  0
 85 87  1  0  0  0
 85167  1  0  0  0
 86168  1  0  0  0
 87169  1  0  0  0
M  ISO  4   1 100  68 101  79 101  87 100
M  END
> <chiral flag>
0

> <version>
0

> <s_m_source_file>
/data/baiqing/PycharmProjects/Reinvent-master-3.2/result/LINK_invent/BTK/process_docking_weight1_custom_sum_contain_oxygen_bond_distance_aromatic_linkinvent_7_9_3/rearranged_h_0156.sdf

> <i_m_source_file_index>
26

> <r_mmod_Potential_Energy-OPLS-2005>
476.706115722656

> <r_mmod_Stretch_Energy-OPLS-2005>
154.28547668457

> <r_mmod_Bend_Energy-OPLS-2005>
289.080139160156

> <r_mmod_Torsional_Energy-OPLS-2005>
447.836517333984

> <r_mmod_Improper_Torsional_Energy-OPLS-2005>
14.3345251083374

> <r_mmod_Van_der_Waal_Energy-OPLS-2005>
161.16667175293

> <r_mmod_Electrostatic_Energy-OPLS-2005>
-447.290649414062

> <r_mmod_Solvation_Energy-OPLS-2005>
-221.253646850586

> <b_mmod_Minimization_Converged-OPLS-2005>
0

> <r_mmod_RMS_Derivative-OPLS-2005>
4.4704418182373

$$$$
26
                    3D
 Structure written by MMmdl.
165174  0  0  1  0            999 V2000
  -30.6870  -14.4723   20.4996 C   0  0  0  0  0  0
  -30.4273  -12.2787   19.4439 C   0  0  0  0  0  0
  -29.5047  -12.4818   18.2202 C   0  0  0  0  0  0
  -28.0242  -12.3392   18.6281 C   0  0  0  0  0  0
  -27.6627  -13.1843   19.8765 C   0  0  2  0  0  0
  -28.7077  -12.9973   21.0065 C   0  0  0  0  0  0
  -25.2624  -13.8090   20.5684 C   0  0  0  0  0  0
  -24.1848  -13.0410   20.9178 C   0  0  0  0  0  0
  -24.6388  -11.6866   20.8755 C   0  0  0  0  0  0
  -23.9045  -10.4277   21.0427 C   0  0  0  0  0  0
  -24.3611   -9.4195   21.9198 C   0  0  0  0  0  0
  -23.6282   -8.2235   22.0768 C   0  0  0  0  0  0
  -22.4258   -8.0281   21.3556 C   0  0  0  0  0  0
  -21.9892   -9.0254   20.4666 C   0  0  0  0  0  0
  -22.7221  -10.2129   20.3070 C   0  0  0  0  0  0
  -21.6841   -6.0741   22.5282 C   0  0  0  0  0  0
  -21.4007   -6.5642   23.8215 C   0  0  0  0  0  0
  -21.3658   -5.6798   24.9175 C   0  0  0  0  0  0
  -21.6044   -4.3058   24.7224 C   0  0  0  0  0  0
  -21.8814   -3.8151   23.4340 C   0  0  0  0  0  0
  -21.9190   -4.6972   22.3398 C   0  0  0  0  0  0
  -22.7873  -13.5238   21.1843 C   0  0  0  0  0  0
  -22.1659   -4.2158   21.0981 F   0  0  0  0  0  0
  -21.5635   -3.4546   25.7740 F   0  0  0  0  0  0
  -30.0467  -13.2754   20.4555 N   0  0  0  0  0  0
  -26.3035  -12.9208   20.3392 N   0  0  0  0  0  0
  -25.9307  -11.6396   20.5812 N   0  0  0  0  0  0
  -22.0492  -12.8251   22.0406 N   0  0  0  0  0  0
  -25.4377  -15.1806   20.4084 N   0  0  0  0  0  0
  -31.8319  -14.6541   20.0775 O   0  0  0  0  0  0
  -21.6625   -6.8879   21.4241 O   0  0  0  0  0  0
  -22.3574  -14.5543   20.6688 O   0  0  0  0  0  0
  -24.6121  -31.8686   23.2115 C   0  0  0  0  0  0
  -25.9028  -32.4828   23.8395 C   0  0  1  0  0  0
  -27.2416  -27.4570   20.0734 C   0  0  0  0  0  0
  -25.5895  -33.8623   24.2335 N   0  0  0  0  0  0
  -23.3978  -30.4924   21.5509 C   0  0  2  0  0  0
  -24.8441  -28.9603   20.1122 C   0  0  0  0  0  0
  -22.7395  -29.4648   22.4988 C   0  0  0  0  0  0
  -18.0274  -28.1371   22.8483 C   0  0  0  0  0  0
  -24.1485  -36.7315   23.2629 C   0  0  0  0  0  0
  -25.9243  -30.8359   21.3640 C   0  0  0  0  0  0
  -25.9988  -29.4702   20.7153 C   0  0  0  0  0  0
  -27.1932  -28.7185   20.7061 C   0  0  0  0  0  0
  -26.0684  -26.9609   19.4584 C   0  0  0  0  0  0
  -24.8718  -27.7025   19.4846 C   0  0  0  0  0  0
  -23.6043  -29.8233   20.1647 C   0  0  0  0  0  0
  -25.4099  -36.3112   24.0339 C   0  0  1  0  0  0
  -20.5858  -28.3649   23.1324 C   0  0  2  0  0  0
  -20.6757  -26.9382   22.5420 C   0  0  0  0  0  0
  -19.5741  -26.6379   21.5211 C   0  0  0  0  0  0
  -18.1917  -26.7927   22.1606 C   0  0  0  0  0  0
  -19.1519  -28.8830   23.2908 C   0  0  0  0  0  0
  -18.9448  -30.1435   23.8925 C   0  0  0  0  0  0
  -17.6448  -30.6571   24.0565 C   0  0  0  0  0  0
  -25.9027  -34.9476   23.5132 C   0  0  0  0  0  0
  -16.5340  -29.9067   23.6320 C   0  0  0  0  0  0
  -16.7264  -28.6485   23.0341 C   0  0  0  0  0  0
  -26.4467  -31.6601   25.0714 C   0  0  0  0  0  0
  -25.3760  -31.3708   26.1485 C   0  0  0  0  0  0
  -27.0279  -30.3041   24.6066 C   0  0  0  0  0  0
  -27.6064  -32.4305   25.7469 C   0  0  0  0  0  0
  -27.5586  -37.1803   24.8456 C   0  0  0  0  0  0
  -21.4131  -29.3018   22.3734 N   0  0  0  0  0  0
  -26.4291  -37.3792   23.9414 N   0  0  0  0  0  0
  -24.6629  -31.0791   22.1012 N   0  0  0  0  0  0
  -23.4176  -28.8180   23.3018 O   0  0  0  0  0  0
  -28.4442  -26.7821   20.0949 O   0  0  0  0  0  0
  -26.5573  -34.8923   22.4688 O   0  0  0  0  0  0
  -23.5320  -32.1432   23.7528 O   0  0  0  0  0  0
  -31.1001  -18.3207   19.6513 C   0  0  0  0  0  0
  -28.7802  -18.7273   19.1265 C   0  0  0  0  0  0
  -29.7875  -17.8263   19.5168 C   0  0  0  0  0  0
  -31.3676  -19.6590   19.2867 C   0  0  0  0  0  0
  -30.2987  -20.4558   18.7989 C   0  0  0  0  0  0
  -30.1932  -25.5117   19.1412 C   0  0  0  0  0  0
  -28.1362  -24.3354   19.8784 C   0  0  0  0  0  0
  -30.5984  -24.2747   18.3224 C   0  0  0  0  0  0
  -28.5353  -23.1107   19.0244 C   0  0  0  0  0  0
  -28.6682  -25.6437   19.2622 C   0  0  1  0  0  0
  -30.0332  -21.7394   16.6277 C   0  0  0  0  0  0
  -29.4544  -16.3397   19.5650 C   0  0  0  0  0  0
  -30.5171  -21.8084   18.0981 C   0  0  1  0  0  0
  -29.0228  -20.0061   18.7829 N   0  0  0  0  0  0
  -29.8724  -15.5196   20.7115 N   0  0  0  0  0  0
  -30.0166  -23.0050   18.8524 N   0  3  1  0  0  0
  -32.9960  -20.2338   19.3630 Cl  0  0  0  0  0  0
  -31.4760  -12.3595   19.1509 H   0  0  0  0  0  0
  -30.3113  -11.2727   19.8509 H   0  0  0  0  0  0
  -29.7507  -11.7571   17.4422 H   0  0  0  0  0  0
  -29.6752  -13.4654   17.7787 H   0  0  0  0  0  0
  -27.8377  -11.2845   18.8316 H   0  0  0  0  0  0
  -27.3729  -12.6048   17.7941 H   0  0  0  0  0  0
  -27.6859  -14.2172   19.5486 H   0  0  0  0  0  0
  -28.6771  -11.9754   21.3865 H   0  0  0  0  0  0
  -28.4787  -13.6365   21.8607 H   0  0  0  0  0  0
  -25.2764   -9.5672   22.4757 H   0  0  0  0  0  0
  -24.0005   -7.4620   22.7465 H   0  0  0  0  0  0
  -21.0824   -8.8766   19.8962 H   0  0  0  0  0  0
  -22.3690  -10.9669   19.6172 H   0  0  0  0  0  0
  -21.2000   -7.6151   23.9717 H   0  0  0  0  0  0
  -21.1480   -6.0533   25.9082 H   0  0  0  0  0  0
  -22.0602   -2.7616   23.2834 H   0  0  0  0  0  0
  -22.4062  -11.9904   22.4803 H   0  0  0  0  0  0
  -21.1125  -13.1319   22.2613 H   0  0  0  0  0  0
  -24.6742  -15.8393   20.5177 H   0  0  0  0  0  0
  -26.2936  -15.6177   20.0972 H   0  0  0  0  0  0
  -26.7094  -32.5551   23.1154 H   0  0  0  0  0  0
  -25.0122  -33.9790   25.0532 H   0  0  0  0  0  0
  -22.6851  -31.3087   21.4125 H   0  0  0  0  0  0
  -23.3754  -35.9645   23.3293 H   0  0  0  0  0  0
  -24.3586  -36.8918   22.2045 H   0  0  0  0  0  0
  -23.7231  -37.6514   23.6647 H   0  0  0  0  0  0
  -26.0331  -31.6005   20.5922 H   0  0  0  0  0  0
  -26.8140  -30.8933   21.9792 H   0  0  0  0  0  0
  -28.0858  -29.1085   21.1748 H   0  0  0  0  0  0
  -26.0552  -26.0125   18.9443 H   0  0  0  0  0  0
  -23.9846  -27.3087   19.0073 H   0  0  0  0  0  0
  -23.7065  -30.5956   19.4022 H   0  0  0  0  0  0
  -22.7302  -29.2381   19.8741 H   0  0  0  0  0  0
  -25.1271  -36.1977   25.0832 H   0  0  0  0  0  0
  -20.9961  -28.3218   24.1440 H   0  0  0  0  0  0
  -20.5634  -26.2255   23.3604 H   0  0  0  0  0  0
  -21.6631  -26.7403   22.1234 H   0  0  0  0  0  0
  -19.6890  -25.6291   21.1226 H   0  0  0  0  0  0
  -19.6688  -27.3198   20.6748 H   0  0  0  0  0  0
  -17.4190  -26.6694   21.4005 H   0  0  0  0  0  0
  -18.0291  -26.0055   22.8986 H   0  0  0  0  0  0
  -19.7929  -30.7249   24.2296 H   0  0  0  0  0  0
  -17.5000  -31.6256   24.5161 H   0  0  0  0  0  0
  -15.5341  -30.2972   23.7630 H   0  0  0  0  0  0
  -15.8664  -28.0809   22.7040 H   0  0  0  0  0  0
  -24.5942  -30.7020   25.7854 H   0  0  0  0  0  0
  -24.8937  -32.2867   26.4916 H   0  0  0  0  0  0
  -25.8144  -30.8924   27.0252 H   0  0  0  0  0  0
  -26.2789  -29.6820   24.1147 H   0  0  0  0  0  0
  -27.4075  -29.7253   25.4494 H   0  0  0  0  0  0
  -27.8615  -30.4353   23.9167 H   0  0  0  0  0  0
  -27.2694  -33.3591   26.2091 H   0  0  0  0  0  0
  -28.3846  -32.6890   25.0279 H   0  0  0  0  0  0
  -28.0763  -31.8407   26.5348 H   0  0  0  0  0  0
  -28.2602  -38.0103   24.7516 H   0  0  0  0  0  0
  -28.1081  -36.2637   24.6258 H   0  0  0  0  0  0
  -27.2316  -37.1422   25.8861 H   0  0  0  0  0  0
  -20.9275  -29.8765   21.6988 H   0  0  0  0  0  0
  -26.0186  -38.2867   24.1437 H   0  0  0  0  0  0
  -31.9074  -17.6636   19.9398 H   0  0  0  0  0  0
  -27.7596  -18.3940   18.9959 H   0  0  0  0  0  0
  -30.6020  -26.4066   18.6702 H   0  0  0  0  0  0
  -30.6421  -25.4584   20.1340 H   0  0  0  0  0  0
  -28.5289  -24.2177   20.8895 H   0  0  0  0  0  0
  -27.0531  -24.3604   19.9856 H   0  0  0  0  0  0
  -31.6865  -24.2042   18.2986 H   0  0  0  0  0  0
  -30.2781  -24.4317   17.2922 H   0  0  0  0  0  0
  -28.0489  -23.1756   18.0492 H   0  0  0  0  0  0
  -28.1337  -22.2275   19.5162 H   0  0  0  0  0  0
  -28.2469  -25.8059   18.2683 H   0  0  0  0  0  0
  -30.4922  -20.8899   16.1205 H   0  0  0  0  0  0
  -30.3004  -22.6231   16.0521 H   0  0  0  0  0  0
  -28.9535  -21.6060   16.5551 H   0  0  0  0  0  0
  -29.8198  -15.9094   18.6287 H   0  0  0  0  0  0
  -28.3707  -16.2559   19.5011 H   0  0  0  0  0  0
  -31.5948  -21.9438   18.0282 H   0  0  0  0  0  0
  -29.0986  -15.2775   21.3135 H   0  0  0  0  0  0
  -30.3924  -22.8806   19.7805 H   0  0  0  0  0  0
  1 25  1  0  0  0
  1 30  2  0  0  0
  1 85  1  0  0  0
  2  3  1  0  0  0
  2 25  1  0  0  0
  2 88  1  0  0  0
  2 89  1  0  0  0
  3  4  1  0  0  0
  3 90  1  0  0  0
  3 91  1  0  0  0
  4  5  1  0  0  0
  4 92  1  0  0  0
  4 93  1  0  0  0
  5  6  1  0  0  0
  5 26  1  0  0  0
  5 94  1  0  0  0
  6 25  1  0  0  0
  6 95  1  0  0  0
  6 96  1  0  0  0
  7  8  2  0  0  0
  7 26  1  0  0  0
  7 29  1  0  0  0
  8  9  1  0  0  0
  8 22  1  0  0  0
  9 10  1  0  0  0
  9 27  2  0  0  0
 10 11  2  0  0  0
 10 15  1  0  0  0
 11 12  1  0  0  0
 11 97  1  0  0  0
 12 13  2  0  0  0
 12 98  1  0  0  0
 13 14  1  0  0  0
 13 31  1  0  0  0
 14 15  2  0  0  0
 14 99  1  0  0  0
 15100  1  0  0  0
 16 17  2  0  0  0
 16 21  1  0  0  0
 16 31  1  0  0  0
 17 18  1  0  0  0
 17101  1  0  0  0
 18 19  2  0  0  0
 18102  1  0  0  0
 19 20  1  0  0  0
 19 24  1  0  0  0
 20 21  2  0  0  0
 20103  1  0  0  0
 21 23  1  0  0  0
 22 28  1  0  0  0
 22 32  2  0  0  0
 26 27  1  0  0  0
 28104  1  0  0  0
 28105  1  0  0  0
 29106  1  0  0  0
 29107  1  0  0  0
 33 34  1  0  0  0
 33 66  1  0  0  0
 33 70  2  0  0  0
 34 36  1  0  0  0
 34 59  1  0  0  0
 34108  1  0  0  0
 35 44  2  0  0  0
 35 45  1  0  0  0
 35 68  1  0  0  0
 36 56  1  0  0  0
 36109  1  0  0  0
 37 39  1  0  0  0
 37 47  1  0  0  0
 37 66  1  0  0  0
 37110  1  0  0  0
 38 43  2  0  0  0
 38 46  1  0  0  0
 38 47  1  0  0  0
 39 64  1  0  0  0
 39 67  2  0  0  0
 40 52  1  0  0  0
 40 53  2  0  0  0
 40 58  1  0  0  0
 41111  1  0  0  0
 41112  1  0  0  0
 41113  1  0  0  0
 41 48  1  0  0  0
 42 43  1  0  0  0
 42 66  1  0  0  0
 42114  1  0  0  0
 42115  1  0  0  0
 43 44  1  0  0  0
 44116  1  0  0  0
 45 46  2  0  0  0
 45117  1  0  0  0
 46118  1  0  0  0
 47119  1  0  0  0
 47120  1  0  0  0
 48 56  1  0  0  0
 48 65  1  0  0  0
 48121  1  0  0  0
 49 50  1  0  0  0
 49 53  1  0  0  0
 49 64  1  0  0  0
 49122  1  0  0  0
 50 51  1  0  0  0
 50123  1  0  0  0
 50124  1  0  0  0
 51 52  1  0  0  0
 51125  1  0  0  0
 51126  1  0  0  0
 52127  1  0  0  0
 52128  1  0  0  0
 53 54  1  0  0  0
 54 55  2  0  0  0
 54129  1  0  0  0
 55 57  1  0  0  0
 55130  1  0  0  0
 56 69  2  0  0  0
 57 58  2  0  0  0
 57131  1  0  0  0
 58132  1  0  0  0
 59 60  1  0  0  0
 59 61  1  0  0  0
 59 62  1  0  0  0
 60133  1  0  0  0
 60134  1  0  0  0
 60135  1  0  0  0
 61136  1  0  0  0
 61137  1  0  0  0
 61138  1  0  0  0
 62139  1  0  0  0
 62140  1  0  0  0
 62141  1  0  0  0
 63 65  1  0  0  0
 63142  1  0  0  0
 63143  1  0  0  0
 63144  1  0  0  0
 64145  1  0  0  0
 65146  1  0  0  0
 68 80  1  0  0  0
 71 73  2  0  0  0
 71 74  1  0  0  0
 71147  1  0  0  0
 72 73  1  0  0  0
 72 84  2  0  0  0
 72148  1  0  0  0
 73 82  1  0  0  0
 74 75  2  0  0  0
 74 87  1  0  0  0
 75 83  1  0  0  0
 75 84  1  0  0  0
 76 78  1  0  0  0
 76 80  1  0  0  0
 76149  1  0  0  0
 76150  1  0  0  0
 77 79  1  0  0  0
 77 80  1  0  0  0
 77151  1  0  0  0
 77152  1  0  0  0
 78153  1  0  0  0
 78154  1  0  0  0
 78 86  1  0  0  0
 79 86  1  0  0  0
 79155  1  0  0  0
 79156  1  0  0  0
 80157  1  0  0  0
 81158  1  0  0  0
 81159  1  0  0  0
 81160  1  0  0  0
 81 83  1  0  0  0
 82 85  1  0  0  0
 82161  1  0  0  0
 82162  1  0  0  0
 83 86  1  0  0  0
 83163  1  0  0  0
 85164  1  0  0  0
 86165  1  0  0  0
M  CHG  1  86   1
M  ISO  4   1 100  68 101  80 101  85 100
M  END
> <chiral flag>
0

> <version>
0

> <s_m_source_file>
/data/baiqing/PycharmProjects/Reinvent-master-3.2/result/LINK_invent/BTK/process_docking_weight1_custom_sum_contain_oxygen_bond_distance_aromatic_linkinvent_7_9_3/rearranged_h_0156.sdf

> <i_m_source_file_index>
27

> <r_mmod_Potential_Energy-OPLS-2005>
-253.274627685547

> <r_mmod_Stretch_Energy-OPLS-2005>
37.8248825073242

> <r_mmod_Bend_Energy-OPLS-2005>
122.244071960449

> <r_mmod_Torsional_Energy-OPLS-2005>
277.485168457031

> <r_mmod_Improper_Torsional_Energy-OPLS-2005>
15.0531663894653

> <r_mmod_Van_der_Waal_Energy-OPLS-2005>
166.273773193359

> <r_mmod_Electrostatic_Energy-OPLS-2005>
-443.909790039062

> <r_mmod_Solvation_Energy-OPLS-2005>
-443.098754882812

> <b_mmod_Minimization_Converged-OPLS-2005>
0

> <r_mmod_RMS_Derivative-OPLS-2005>
2.20785188674927

$$$$
27
                    3D
 Structure written by MMmdl.
170179  0  0  1  0            999 V2000
  -30.7182  -14.5251   20.5481 C   0  0  0  0  0  0
  -30.4055  -12.3345   19.4292 C   0  0  0  0  0  0
  -29.4830  -12.4811   18.2039 C   0  0  0  0  0  0
  -28.0124  -12.3047   18.6238 C   0  0  0  0  0  0
  -27.6428  -13.1810   19.8451 C   0  0  2  0  0  0
  -28.6892  -13.0504   20.9804 C   0  0  0  0  0  0
  -25.2534  -13.8059   20.5613 C   0  0  0  0  0  0
  -24.1790  -13.0383   20.9175 C   0  0  0  0  0  0
  -24.6337  -11.6847   20.8779 C   0  0  0  0  0  0
  -23.9007  -10.4270   21.0462 C   0  0  0  0  0  0
  -24.3586   -9.4185   21.9209 C   0  0  0  0  0  0
  -23.6276   -8.2214   22.0763 C   0  0  0  0  0  0
  -22.4259   -8.0258   21.3543 C   0  0  0  0  0  0
  -21.9882   -9.0227   20.4646 C   0  0  0  0  0  0
  -22.7205  -10.2120   20.3078 C   0  0  0  0  0  0
  -21.6830   -6.0736   22.5295 C   0  0  0  0  0  0
  -21.4002   -6.5646   23.8224 C   0  0  0  0  0  0
  -21.3648   -5.6801   24.9184 C   0  0  0  0  0  0
  -21.6044   -4.3060   24.7230 C   0  0  0  0  0  0
  -21.8814   -3.8159   23.4354 C   0  0  0  0  0  0
  -21.9177   -4.6970   22.3411 C   0  0  0  0  0  0
  -22.7824  -13.5215   21.1846 C   0  0  0  0  0  0
  -22.1642   -4.2166   21.0986 F   0  0  0  0  0  0
  -21.5634   -3.4542   25.7739 F   0  0  0  0  0  0
  -30.0084  -13.3624   20.4141 N   0  0  0  0  0  0
  -26.2918  -12.9169   20.3222 N   0  0  0  0  0  0
  -25.9234  -11.6383   20.5754 N   0  0  0  0  0  0
  -22.0487  -12.8216   22.0422 N   0  0  0  0  0  0
  -25.4215  -15.1781   20.4004 N   0  0  0  0  0  0
  -31.8745  -14.6006   20.1200 O   0  0  0  0  0  0
  -21.6608   -6.8872   21.4248 O   0  0  0  0  0  0
  -22.3506  -14.5519   20.6700 O   0  0  0  0  0  0
  -24.6154  -31.8661   23.2077 C   0  0  0  0  0  0
  -25.9028  -32.4819   23.8379 C   0  0  1  0  0  0
  -27.2352  -27.4076   20.1130 C   0  0  0  0  0  0
  -25.5869  -33.8619   24.2292 N   0  0  0  0  0  0
  -23.4046  -30.4877   21.5488 C   0  0  2  0  0  0
  -24.8532  -28.9504   20.1157 C   0  0  0  0  0  0
  -22.7416  -29.4634   22.4975 C   0  0  0  0  0  0
  -18.0260  -28.1393   22.8476 C   0  0  0  0  0  0
  -24.1485  -36.7308   23.2638 C   0  0  0  0  0  0
  -25.9359  -30.8248   21.3650 C   0  0  0  0  0  0
  -26.0142  -29.4586   20.7102 C   0  0  0  0  0  0
  -27.2087  -28.6978   20.6986 C   0  0  0  0  0  0
  -26.0539  -26.9208   19.5070 C   0  0  0  0  0  0
  -24.8695  -27.6840   19.5069 C   0  0  0  0  0  0
  -23.6153  -29.8184   20.1645 C   0  0  0  0  0  0
  -25.4116  -36.3104   24.0328 C   0  0  1  0  0  0
  -20.5852  -28.3667   23.1306 C   0  0  2  0  0  0
  -20.6753  -26.9399   22.5408 C   0  0  0  0  0  0
  -19.5744  -26.6390   21.5190 C   0  0  0  0  0  0
  -18.1922  -26.7935   22.1608 C   0  0  0  0  0  0
  -19.1512  -28.8847   23.2888 C   0  0  0  0  0  0
  -18.9445  -30.1457   23.8902 C   0  0  0  0  0  0
  -17.6452  -30.6600   24.0560 C   0  0  0  0  0  0
  -25.9039  -34.9472   23.5117 C   0  0  0  0  0  0
  -16.5338  -29.9105   23.6330 C   0  0  0  0  0  0
  -16.7253  -28.6520   23.0346 C   0  0  0  0  0  0
  -26.4443  -31.6618   25.0728 C   0  0  0  0  0  0
  -25.3684  -31.3753   26.1464 C   0  0  0  0  0  0
  -27.0274  -30.3057   24.6132 C   0  0  0  0  0  0
  -27.6027  -32.4338   25.7484 C   0  0  0  0  0  0
  -27.5580  -37.1811   24.8461 C   0  0  0  0  0  0
  -21.4135  -29.3035   22.3727 N   0  0  0  0  0  0
  -26.4295  -37.3790   23.9403 N   0  0  0  0  0  0
  -24.6698  -31.0739   22.0980 N   0  0  0  0  0  0
  -23.4177  -28.8175   23.3022 O   0  0  0  0  0  0
  -28.4005  -26.6578   20.1511 O   0  0  0  0  0  0
  -26.5622  -34.8917   22.4688 O   0  0  0  0  0  0
  -23.5341  -32.1406   23.7457 O   0  0  0  0  0  0
  -29.6654  -20.8739   21.9916 C   0  0  0  0  0  0
  -29.5418  -22.2185   19.5465 C   0  0  0  0  0  0
  -29.7274  -20.1053   20.8023 C   0  0  0  0  0  0
  -29.6405  -20.8072   19.5669 C   0  0  0  0  0  0
  -29.5428  -22.9811   20.7322 C   0  0  0  0  0  0
  -29.5922  -22.2981   21.9738 C   0  0  0  0  0  0
  -30.5797  -17.9932   22.1234 C   0  0  0  0  0  0
  -28.6595  -17.7446   20.6953 C   0  0  0  0  0  0
  -31.0055  -16.5115   21.9534 C   0  0  0  0  0  0
  -28.9326  -16.2308   20.4938 C   0  0  0  0  0  0
  -29.9402  -18.5654   20.8480 C   0  0  0  0  0  0
  -31.1094  -20.1022   17.6333 C   0  0  0  0  0  0
  -29.7164  -22.4122   24.3742 C   0  0  0  0  0  0
  -29.6936  -20.1016   18.2194 C   0  0  0  0  0  0
  -29.5875  -24.5226   20.6410 C   0  0  0  0  0  0
  -28.2635  -25.2194   20.2290 C   0  0  0  0  0  0
  -30.1328  -15.6224   21.1336 N   0  0  0  0  0  0
  -29.5942  -23.0680   23.1185 O   0  0  0  0  0  0
  -31.4495  -12.4133   19.1192 H   0  0  0  0  0  0
  -30.2994  -11.3383   19.8609 H   0  0  0  0  0  0
  -29.7441  -11.7432   17.4446 H   0  0  0  0  0  0
  -29.6226  -13.4600   17.7426 H   0  0  0  0  0  0
  -27.8586  -11.2504   18.8607 H   0  0  0  0  0  0
  -27.3494  -12.5246   17.7865 H   0  0  0  0  0  0
  -27.6447  -14.1922   19.4530 H   0  0  0  0  0  0
  -28.6882  -12.0347   21.3827 H   0  0  0  0  0  0
  -28.4437  -13.6969   21.8225 H   0  0  0  0  0  0
  -25.2739   -9.5652   22.4765 H   0  0  0  0  0  0
  -24.0002   -7.4596   22.7469 H   0  0  0  0  0  0
  -21.0818   -8.8749   19.8936 H   0  0  0  0  0  0
  -22.3685  -10.9660   19.6190 H   0  0  0  0  0  0
  -21.1991   -7.6151   23.9734 H   0  0  0  0  0  0
  -21.1469   -6.0529   25.9089 H   0  0  0  0  0  0
  -22.0605   -2.7618   23.2857 H   0  0  0  0  0  0
  -22.4115  -11.9877   22.4790 H   0  0  0  0  0  0
  -21.1111  -13.1249   22.2660 H   0  0  0  0  0  0
  -24.6524  -15.8287   20.5149 H   0  0  0  0  0  0
  -26.2664  -15.6244   20.0694 H   0  0  0  0  0  0
  -26.7095  -32.5509   23.1136 H   0  0  0  0  0  0
  -24.9969  -33.9785   25.0402 H   0  0  0  0  0  0
  -22.6928  -31.3041   21.4077 H   0  0  0  0  0  0
  -23.3737  -35.9647   23.3327 H   0  0  0  0  0  0
  -24.3552  -36.8907   22.2038 H   0  0  0  0  0  0
  -23.7247  -37.6525   23.6647 H   0  0  0  0  0  0
  -26.0509  -31.5901   20.5963 H   0  0  0  0  0  0
  -26.8217  -30.8756   21.9869 H   0  0  0  0  0  0
  -28.1043  -29.0863   21.1623 H   0  0  0  0  0  0
  -26.0293  -25.9508   19.0313 H   0  0  0  0  0  0
  -23.9767  -27.2891   19.0412 H   0  0  0  0  0  0
  -23.7235  -30.5909   19.4029 H   0  0  0  0  0  0
  -22.7402  -29.2386   19.8679 H   0  0  0  0  0  0
  -25.1295  -36.1965   25.0821 H   0  0  0  0  0  0
  -20.9919  -28.3223   24.1434 H   0  0  0  0  0  0
  -20.5624  -26.2267   23.3588 H   0  0  0  0  0  0
  -21.6631  -26.7437   22.1220 H   0  0  0  0  0  0
  -19.6907  -25.6295   21.1235 H   0  0  0  0  0  0
  -19.6707  -27.3183   20.6706 H   0  0  0  0  0  0
  -17.4178  -26.6638   21.4033 H   0  0  0  0  0  0
  -18.0364  -26.0094   22.9026 H   0  0  0  0  0  0
  -19.7926  -30.7263   24.2279 H   0  0  0  0  0  0
  -17.5016  -31.6279   24.5162 H   0  0  0  0  0  0
  -15.5349  -30.3017   23.7671 H   0  0  0  0  0  0
  -15.8641  -28.0857   22.7071 H   0  0  0  0  0  0
  -24.5833  -30.7145   25.7778 H   0  0  0  0  0  0
  -24.8900  -32.2922   26.4916 H   0  0  0  0  0  0
  -25.7992  -30.8891   27.0222 H   0  0  0  0  0  0
  -26.2840  -29.6856   24.1113 H   0  0  0  0  0  0
  -27.3944  -29.7276   25.4622 H   0  0  0  0  0  0
  -27.8715  -30.4379   23.9358 H   0  0  0  0  0  0
  -27.2654  -33.3618   26.2120 H   0  0  0  0  0  0
  -28.3801  -32.6943   25.0285 H   0  0  0  0  0  0
  -28.0736  -31.8427   26.5351 H   0  0  0  0  0  0
  -28.2614  -38.0093   24.7496 H   0  0  0  0  0  0
  -28.1063  -36.2624   24.6314 H   0  0  0  0  0  0
  -27.2288  -37.1492   25.8861 H   0  0  0  0  0  0
  -20.9299  -29.8766   21.6959 H   0  0  0  0  0  0
  -26.0185  -38.2866   24.1414 H   0  0  0  0  0  0
  -29.7114  -20.3462   22.9308 H   0  0  0  0  0  0
  -29.5104  -22.7331   18.5954 H   0  0  0  0  0  0
  -31.4557  -18.5767   22.4082 H   0  0  0  0  0  0
  -29.8852  -18.0706   22.9625 H   0  0  0  0  0  0
  -28.0335  -17.8893   21.5770 H   0  0  0  0  0  0
  -28.0558  -18.1085   19.8638 H   0  0  0  0  0  0
  -31.1113  -16.0567   22.9382 H   0  0  0  0  0  0
  -32.0139  -16.5412   21.5378 H   0  0  0  0  0  0
  -28.9792  -16.0466   19.4178 H   0  0  0  0  0  0
  -28.0519  -15.7241   20.8752 H   0  0  0  0  0  0
  -30.6133  -18.3208   20.0251 H   0  0  0  0  0  0
  -31.1121  -19.6804   16.6280 H   0  0  0  0  0  0
  -31.7959  -19.5146   18.2432 H   0  0  0  0  0  0
  -31.5079  -21.1150   17.5676 H   0  0  0  0  0  0
  -29.7490  -23.1584   25.1683 H   0  0  0  0  0  0
  -30.6372  -21.8285   24.4362 H   0  0  0  0  0  0
  -28.8601  -21.7635   24.5676 H   0  0  0  0  0  0
  -29.0163  -20.6159   17.5356 H   0  0  0  0  0  0
  -29.3171  -19.0822   18.2840 H   0  0  0  0  0  0
  -30.3580  -24.7901   19.9165 H   0  0  0  0  0  0
  -29.9342  -24.9390   21.5870 H   0  0  0  0  0  0
  -27.4901  -24.9602   20.9539 H   0  0  0  0  0  0
  -27.9478  -24.8311   19.2612 H   0  0  0  0  0  0
  1 25  1  0  0  0
  1 30  2  0  0  0
  1 87  1  0  0  0
  2  3  1  0  0  0
  2 25  1  0  0  0
  2 89  1  0  0  0
  2 90  1  0  0  0
  3  4  1  0  0  0
  3 91  1  0  0  0
  3 92  1  0  0  0
  4  5  1  0  0  0
  4 93  1  0  0  0
  4 94  1  0  0  0
  5  6  1  0  0  0
  5 26  1  0  0  0
  5 95  1  0  0  0
  6 25  1  0  0  0
  6 96  1  0  0  0
  6 97  1  0  0  0
  7  8  2  0  0  0
  7 26  1  0  0  0
  7 29  1  0  0  0
  8  9  1  0  0  0
  8 22  1  0  0  0
  9 10  1  0  0  0
  9 27  2  0  0  0
 10 11  2  0  0  0
 10 15  1  0  0  0
 11 12  1  0  0  0
 11 98  1  0  0  0
 12 13  2  0  0  0
 12 99  1  0  0  0
 13 14  1  0  0  0
 13 31  1  0  0  0
 14 15  2  0  0  0
 14100  1  0  0  0
 15101  1  0  0  0
 16 17  2  0  0  0
 16 21  1  0  0  0
 16 31  1  0  0  0
 17 18  1  0  0  0
 17102  1  0  0  0
 18 19  2  0  0  0
 18103  1  0  0  0
 19 20  1  0  0  0
 19 24  1  0  0  0
 20 21  2  0  0  0
 20104  1  0  0  0
 21 23  1  0  0  0
 22 28  1  0  0  0
 22 32  2  0  0  0
 26 27  1  0  0  0
 28105  1  0  0  0
 28106  1  0  0  0
 29107  1  0  0  0
 29108  1  0  0  0
 33 34  1  0  0  0
 33 66  1  0  0  0
 33 70  2  0  0  0
 34 36  1  0  0  0
 34 59  1  0  0  0
 34109  1  0  0  0
 35 44  2  0  0  0
 35 45  1  0  0  0
 35 68  1  0  0  0
 36 56  1  0  0  0
 36110  1  0  0  0
 37 39  1  0  0  0
 37 47  1  0  0  0
 37 66  1  0  0  0
 37111  1  0  0  0
 38 43  2  0  0  0
 38 46  1  0  0  0
 38 47  1  0  0  0
 39 64  1  0  0  0
 39 67  2  0  0  0
 40 52  1  0  0  0
 40 53  2  0  0  0
 40 58  1  0  0  0
 41112  1  0  0  0
 41113  1  0  0  0
 41114  1  0  0  0
 41 48  1  0  0  0
 42 43  1  0  0  0
 42 66  1  0  0  0
 42115  1  0  0  0
 42116  1  0  0  0
 43 44  1  0  0  0
 44117  1  0  0  0
 45 46  2  0  0  0
 45118  1  0  0  0
 46119  1  0  0  0
 47120  1  0  0  0
 47121  1  0  0  0
 48 56  1  0  0  0
 48 65  1  0  0  0
 48122  1  0  0  0
 49 50  1  0  0  0
 49 53  1  0  0  0
 49 64  1  0  0  0
 49123  1  0  0  0
 50 51  1  0  0  0
 50124  1  0  0  0
 50125  1  0  0  0
 51 52  1  0  0  0
 51126  1  0  0  0
 51127  1  0  0  0
 52128  1  0  0  0
 52129  1  0  0  0
 53 54  1  0  0  0
 54 55  2  0  0  0
 54130  1  0  0  0
 55 57  1  0  0  0
 55131  1  0  0  0
 56 69  2  0  0  0
 57 58  2  0  0  0
 57132  1  0  0  0
 58133  1  0  0  0
 59 60  1  0  0  0
 59 61  1  0  0  0
 59 62  1  0  0  0
 60134  1  0  0  0
 60135  1  0  0  0
 60136  1  0  0  0
 61137  1  0  0  0
 61138  1  0  0  0
 61139  1  0  0  0
 62140  1  0  0  0
 62141  1  0  0  0
 62142  1  0  0  0
 63 65  1  0  0  0
 63143  1  0  0  0
 63144  1  0  0  0
 63145  1  0  0  0
 64146  1  0  0  0
 65147  1  0  0  0
 68 86  1  0  0  0
 71 73  2  0  0  0
 71 76  1  0  0  0
 71148  1  0  0  0
 72 74  2  0  0  0
 72 75  1  0  0  0
 72149  1  0  0  0
 73 74  1  0  0  0
 73 81  1  0  0  0
 74 84  1  0  0  0
 75 76  2  0  0  0
 75 85  1  0  0  0
 76 88  1  0  0  0
 77 79  1  0  0  0
 77 81  1  0  0  0
 77150  1  0  0  0
 77151  1  0  0  0
 78 80  1  0  0  0
 78 81  1  0  0  0
 78152  1  0  0  0
 78153  1  0  0  0
 79 87  1  0  0  0
 79154  1  0  0  0
 79155  1  0  0  0
 80 87  1  0  0  0
 80156  1  0  0  0
 80157  1  0  0  0
 81158  1  0  0  0
 82 84  1  0  0  0
 82159  1  0  0  0
 82160  1  0  0  0
 82161  1  0  0  0
 83 88  1  0  0  0
 83162  1  0  0  0
 83163  1  0  0  0
 83164  1  0  0  0
 84165  1  0  0  0
 84166  1  0  0  0
 85 86  1  0  0  0
 85167  1  0  0  0
 85168  1  0  0  0
 86169  1  0  0  0
 86170  1  0  0  0
M  ISO  4   1 100  68 101  86 101  87 100
M  END
> <chiral flag>
0

> <version>
0

> <s_m_source_file>
/data/baiqing/PycharmProjects/Reinvent-master-3.2/result/LINK_invent/BTK/process_docking_weight1_custom_sum_contain_oxygen_bond_distance_aromatic_linkinvent_7_9_3/rearranged_h_0156.sdf

> <i_m_source_file_index>
28

> <r_mmod_Potential_Energy-OPLS-2005>
196.648941040039

> <r_mmod_Stretch_Energy-OPLS-2005>
52.5717315673828

> <r_mmod_Bend_Energy-OPLS-2005>
133.495315551758

> <r_mmod_Torsional_Energy-OPLS-2005>
321.957427978516

> <r_mmod_Improper_Torsional_Energy-OPLS-2005>
3.76426339149475

> <r_mmod_Van_der_Waal_Energy-OPLS-2005>
171.007400512695

> <r_mmod_Electrostatic_Energy-OPLS-2005>
-310.391967773438

> <r_mmod_Solvation_Energy-OPLS-2005>
-198.825149536133

> <b_mmod_Minimization_Converged-OPLS-2005>
0

> <r_mmod_RMS_Derivative-OPLS-2005>
2.43466067314148

$$$$
28
                    3D
 Structure written by MMmdl.
190200  0  0  1  0            999 V2000
  -30.7698  -14.3541   20.6747 C   0  0  0  0  0  0
  -30.4079  -12.2858   19.3724 C   0  0  0  0  0  0
  -29.4717  -12.5345   18.1742 C   0  0  0  0  0  0
  -27.9983  -12.3594   18.5950 C   0  0  0  0  0  0
  -27.6536  -13.1785   19.8646 C   0  0  2  0  0  0
  -28.7010  -12.9326   20.9771 C   0  0  0  0  0  0
  -25.2573  -13.8092   20.5648 C   0  0  0  0  0  0
  -24.1791  -13.0397   20.9169 C   0  0  0  0  0  0
  -24.6305  -11.6849   20.8753 C   0  0  0  0  0  0
  -23.8970  -10.4253   21.0416 C   0  0  0  0  0  0
  -24.3533   -9.4164   21.9177 C   0  0  0  0  0  0
  -23.6237   -8.2186   22.0730 C   0  0  0  0  0  0
  -22.4226   -8.0228   21.3528 C   0  0  0  0  0  0
  -21.9846   -9.0194   20.4619 C   0  0  0  0  0  0
  -22.7154  -10.2084   20.3041 C   0  0  0  0  0  0
  -21.6849   -6.0693   22.5275 C   0  0  0  0  0  0
  -21.3992   -6.5592   23.8205 C   0  0  0  0  0  0
  -21.3666   -5.6754   24.9172 C   0  0  0  0  0  0
  -21.6059   -4.3024   24.7237 C   0  0  0  0  0  0
  -21.8822   -3.8099   23.4361 C   0  0  0  0  0  0
  -21.9187   -4.6911   22.3411 C   0  0  0  0  0  0
  -22.7839  -13.5240   21.1892 C   0  0  0  0  0  0
  -22.1665   -4.2095   21.1004 F   0  0  0  0  0  0
  -21.5641   -3.4514   25.7759 F   0  0  0  0  0  0
  -30.0424  -13.2307   20.4404 N   0  0  0  0  0  0
  -26.2955  -12.9187   20.3315 N   0  0  0  0  0  0
  -25.9216  -11.6383   20.5761 N   0  0  0  0  0  0
  -22.0445  -12.8248   22.0449 N   0  0  0  0  0  0
  -25.4287  -15.1805   20.3990 N   0  0  0  0  0  0
  -31.8549  -14.5797   20.1212 O   0  0  0  0  0  0
  -21.6609   -6.8824   21.4232 O   0  0  0  0  0  0
  -22.3551  -14.5580   20.6746 O   0  0  0  0  0  0
  -24.5967  -31.8760   23.2102 C   0  0  0  0  0  0
  -25.8852  -32.4895   23.8411 C   0  0  1  0  0  0
  -27.2779  -27.5136   20.0988 C   0  0  0  0  0  0
  -25.5700  -33.8697   24.2318 N   0  0  0  0  0  0
  -23.3836  -30.4900   21.5513 C   0  0  2  0  0  0
  -24.8375  -28.9563   20.1168 C   0  0  0  0  0  0
  -22.7327  -29.4657   22.5052 C   0  0  0  0  0  0
  -18.0254  -28.1381   22.8503 C   0  0  0  0  0  0
  -24.1446  -36.7408   23.2648 C   0  0  0  0  0  0
  -25.8919  -30.8611   21.3495 C   0  0  0  0  0  0
  -25.9745  -29.4832   20.7379 C   0  0  0  0  0  0
  -27.1706  -28.7569   20.7670 C   0  0  0  0  0  0
  -26.1185  -26.9813   19.4857 C   0  0  0  0  0  0
  -24.9011  -27.6944   19.4947 C   0  0  0  0  0  0
  -23.5910  -29.8112   20.1656 C   0  0  0  0  0  0
  -25.4061  -36.3198   24.0345 C   0  0  1  0  0  0
  -20.5831  -28.3604   23.1398 C   0  0  2  0  0  0
  -20.6718  -26.9353   22.5450 C   0  0  0  0  0  0
  -19.5696  -26.6384   21.5252 C   0  0  0  0  0  0
  -18.1882  -26.7931   22.1645 C   0  0  0  0  0  0
  -19.1500  -28.8801   23.2942 C   0  0  0  0  0  0
  -18.9454  -30.1434   23.8909 C   0  0  0  0  0  0
  -17.6456  -30.6580   24.0601 C   0  0  0  0  0  0
  -25.8986  -34.9542   23.5165 C   0  0  0  0  0  0
  -16.5338  -29.9097   23.6336 C   0  0  0  0  0  0
  -16.7255  -28.6540   23.0321 C   0  0  0  0  0  0
  -26.4322  -31.6638   25.0704 C   0  0  0  0  0  0
  -25.3622  -31.3787   26.1519 C   0  0  0  0  0  0
  -27.0100  -30.3075   24.5987 C   0  0  0  0  0  0
  -27.5951  -32.4303   25.7426 C   0  0  0  0  0  0
  -27.5580  -37.1827   24.8454 C   0  0  0  0  0  0
  -21.4067  -29.2982   22.3807 N   0  0  0  0  0  0
  -26.4269  -37.3854   23.9422 N   0  0  0  0  0  0
  -24.6422  -31.0892   22.0977 N   0  0  0  0  0  0
  -23.4140  -28.8264   23.3099 O   0  0  0  0  0  0
  -28.4603  -26.8025   20.0297 O   0  0  0  0  0  0
  -26.5640  -34.8959   22.4790 O   0  0  0  0  0  0
  -23.5167  -32.1525   23.7489 O   0  0  0  0  0  0
  -28.7952  -22.0628   23.0102 C   0  0  0  0  0  0
  -29.4517  -22.6453   24.1112 C   0  0  0  0  0  0
  -28.4845  -20.6998   22.9664 C   0  0  0  0  0  0
  -29.6579  -21.8622   25.2727 C   0  0  0  0  0  0
  -29.3598  -20.4661   25.2385 C   0  0  0  0  0  0
  -28.8261  -19.8568   24.0602 C   0  0  0  0  0  0
  -28.5102  -16.9326   22.0163 C   0  0  0  0  0  0
  -30.3229  -16.6283   23.6922 C   0  0  0  0  0  0
  -31.1720  -23.8554   22.8246 C   0  0  0  0  0  0
  -29.0311  -25.1373   23.5347 C   0  0  0  0  0  0
  -29.4022  -16.2750   20.9624 C   0  0  0  0  0  0
  -31.0845  -15.7448   22.6604 C   0  0  0  0  0  0
  -31.6524  -25.1576   22.2044 C   0  0  0  0  0  0
  -29.6592  -26.3659   22.8329 C   0  0  0  0  0  0
  -30.0707  -24.0353   23.9013 C   0  0  1  0  0  0
  -29.4009  -17.6799   23.0250 C   0  0  0  0  0  0
  -27.7832  -20.2120   21.7092 C   0  0  0  0  0  0
  -30.2074  -22.5251   26.5377 C   0  0  0  0  0  0
  -29.6360  -19.6344   26.4891 C   0  0  0  0  0  0
  -29.9785  -27.8310   18.4610 C   0  0  0  0  0  0
  -30.8604  -26.8717   20.6422 C   0  0  0  0  0  0
  -29.6819  -27.5668   19.9430 C   0  0  2  0  0  0
  -30.2425  -15.2314   21.5587 N   0  0  0  0  0  0
  -28.6089  -18.4615   23.9885 N   0  0  0  0  0  0
  -30.4798  -25.8931   21.6864 N   0  3  1  0  0  0
  -31.4500  -12.3810   19.0623 H   0  0  0  0  0  0
  -30.2983  -11.2598   19.7289 H   0  0  0  0  0  0
  -29.7114  -11.8596   17.3521 H   0  0  0  0  0  0
  -29.6292  -13.5485   17.7993 H   0  0  0  0  0  0
  -27.8239  -11.2998   18.7829 H   0  0  0  0  0  0
  -27.3347  -12.6305   17.7702 H   0  0  0  0  0  0
  -27.6917  -14.2168   19.5566 H   0  0  0  0  0  0
  -28.6741  -11.8874   21.2915 H   0  0  0  0  0  0
  -28.4600  -13.5148   21.8662 H   0  0  0  0  0  0
  -25.2629   -9.5684   22.4779 H   0  0  0  0  0  0
  -23.9941   -7.4600   22.7460 H   0  0  0  0  0  0
  -21.0759   -8.8673   19.8958 H   0  0  0  0  0  0
  -22.3551  -10.9607   19.6163 H   0  0  0  0  0  0
  -21.1965   -7.6087   23.9717 H   0  0  0  0  0  0
  -21.1516   -6.0467   25.9099 H   0  0  0  0  0  0
  -22.0616   -2.7546   23.2878 H   0  0  0  0  0  0
  -22.3947  -11.9876   22.4871 H   0  0  0  0  0  0
  -21.1096  -13.1339   22.2726 H   0  0  0  0  0  0
  -24.6622  -15.8367   20.4893 H   0  0  0  0  0  0
  -26.2708  -15.6078   20.0362 H   0  0  0  0  0  0
  -26.6936  -32.5683   23.1223 H   0  0  0  0  0  0
  -24.9641  -33.9882   25.0303 H   0  0  0  0  0  0
  -22.6654  -31.3003   21.4102 H   0  0  0  0  0  0
  -23.3691  -35.9760   23.3337 H   0  0  0  0  0  0
  -24.3530  -36.9030   22.2065 H   0  0  0  0  0  0
  -23.7203  -37.6613   23.6673 H   0  0  0  0  0  0
  -25.9533  -31.5892   20.5385 H   0  0  0  0  0  0
  -26.8000  -30.9733   21.9300 H   0  0  0  0  0  0
  -27.9852  -29.1864   21.3257 H   0  0  0  0  0  0
  -26.1699  -26.0290   18.9738 H   0  0  0  0  0  0
  -24.0293  -27.2856   18.9995 H   0  0  0  0  0  0
  -23.6814  -30.5823   19.3988 H   0  0  0  0  0  0
  -22.7178  -29.2196   19.8827 H   0  0  0  0  0  0
  -25.1243  -36.2098   25.0841 H   0  0  0  0  0  0
  -20.9938  -28.3184   24.1521 H   0  0  0  0  0  0
  -20.5644  -26.2215   23.3622 H   0  0  0  0  0  0
  -21.6601  -26.7422   22.1259 H   0  0  0  0  0  0
  -19.6832  -25.6319   21.1233 H   0  0  0  0  0  0
  -19.6646  -27.3256   20.6835 H   0  0  0  0  0  0
  -17.4164  -26.6724   21.4044 H   0  0  0  0  0  0
  -18.0234  -26.0082   22.9034 H   0  0  0  0  0  0
  -19.7931  -30.7256   24.2265 H   0  0  0  0  0  0
  -17.5022  -31.6271   24.5207 H   0  0  0  0  0  0
  -15.5334  -30.3008   23.7643 H   0  0  0  0  0  0
  -15.8672  -28.0893   22.6942 H   0  0  0  0  0  0
  -24.5659  -30.7289   25.7883 H   0  0  0  0  0  0
  -24.8952  -32.3001   26.5045 H   0  0  0  0  0  0
  -25.7931  -30.8801   27.0220 H   0  0  0  0  0  0
  -26.2541  -29.6852   24.1172 H   0  0  0  0  0  0
  -27.4090  -29.7301   25.4335 H   0  0  0  0  0  0
  -27.8271  -30.4447   23.8910 H   0  0  0  0  0  0
  -27.2627  -33.3658   26.1938 H   0  0  0  0  0  0
  -28.3755  -32.6744   25.0236 H   0  0  0  0  0  0
  -28.0589  -31.8409   26.5350 H   0  0  0  0  0  0
  -28.2605  -38.0120   24.7540 H   0  0  0  0  0  0
  -28.1061  -36.2662   24.6204 H   0  0  0  0  0  0
  -27.2342  -37.1423   25.8867 H   0  0  0  0  0  0
  -20.9202  -29.8669   21.7038 H   0  0  0  0  0  0
  -26.0210  -38.2961   24.1383 H   0  0  0  0  0  0
  -28.5945  -22.6607   22.1338 H   0  0  0  0  0  0
  -27.8920  -16.1840   22.5135 H   0  0  0  0  0  0
  -27.8136  -17.5838   21.4972 H   0  0  0  0  0  0
  -31.0594  -17.1273   24.3236 H   0  0  0  0  0  0
  -29.7476  -15.9856   24.3628 H   0  0  0  0  0  0
  -32.0099  -23.2906   23.2373 H   0  0  0  0  0  0
  -30.8086  -23.2565   21.9902 H   0  0  0  0  0  0
  -28.2684  -24.7400   22.8662 H   0  0  0  0  0  0
  -28.4918  -25.4516   24.4309 H   0  0  0  0  0  0
  -30.0369  -17.0163   20.4727 H   0  0  0  0  0  0
  -28.7780  -15.8751   20.1705 H   0  0  0  0  0  0
  -31.5216  -14.8960   23.1920 H   0  0  0  0  0  0
  -31.9289  -16.2999   22.2470 H   0  0  0  0  0  0
  -32.3520  -24.9210   21.4008 H   0  0  0  0  0  0
  -32.1997  -25.7647   22.9266 H   0  0  0  0  0  0
  -30.2779  -26.9396   23.5241 H   0  0  0  0  0  0
  -28.8659  -27.0382   22.5153 H   0  0  0  0  0  0
  -30.5854  -24.3869   24.7912 H   0  0  0  0  0  0
  -30.0421  -18.3656   22.4682 H   0  0  0  0  0  0
  -27.2954  -21.0333   21.1856 H   0  0  0  0  0  0
  -26.9964  -19.5008   21.9553 H   0  0  0  0  0  0
  -28.4923  -19.7709   21.0090 H   0  0  0  0  0  0
  -29.8766  -23.5625   26.6170 H   0  0  0  0  0  0
  -31.2990  -22.5162   26.5508 H   0  0  0  0  0  0
  -29.8471  -22.0515   27.4507 H   0  0  0  0  0  0
  -30.6306  -19.8471   26.8809 H   0  0  0  0  0  0
  -29.5879  -18.5601   26.3273 H   0  0  0  0  0  0
  -28.9044  -19.8834   27.2587 H   0  0  0  0  0  0
  -29.3064  -28.5860   18.0625 H   0  0  0  0  0  0
  -29.8621  -26.9218   17.8725 H   0  0  0  0  0  0
  -30.9971  -28.1923   18.3129 H   0  0  0  0  0  0
  -31.5402  -27.6152   21.0595 H   0  0  0  0  0  0
  -31.4324  -26.3278   19.8872 H   0  0  0  0  0  0
  -29.6416  -28.5369   20.4265 H   0  0  0  0  0  0
  -28.4905  -18.0088   24.8866 H   0  0  0  0  0  0
  -29.8986  -25.2280   21.1977 H   0  0  0  0  0  0
  1 25  1  0  0  0
  1 30  2  0  0  0
  1 93  1  0  0  0
  2  3  1  0  0  0
  2 25  1  0  0  0
  2 96  1  0  0  0
  2 97  1  0  0  0
  3  4  1  0  0  0
  3 98  1  0  0  0
  3 99  1  0  0  0
  4  5  1  0  0  0
  4100  1  0  0  0
  4101  1  0  0  0
  5  6  1  0  0  0
  5 26  1  0  0  0
  5102  1  0  0  0
  6 25  1  0  0  0
  6103  1  0  0  0
  6104  1  0  0  0
  7  8  2  0  0  0
  7 26  1  0  0  0
  7 29  1  0  0  0
  8  9  1  0  0  0
  8 22  1  0  0  0
  9 10  1  0  0  0
  9 27  2  0  0  0
 10 11  2  0  0  0
 10 15  1  0  0  0
 11 12  1  0  0  0
 11105  1  0  0  0
 12 13  2  0  0  0
 12106  1  0  0  0
 13 14  1  0  0  0
 13 31  1  0  0  0
 14 15  2  0  0  0
 14107  1  0  0  0
 15108  1  0  0  0
 16 17  2  0  0  0
 16 21  1  0  0  0
 16 31  1  0  0  0
 17 18  1  0  0  0
 17109  1  0  0  0
 18 19  2  0  0  0
 18110  1  0  0  0
 19 20  1  0  0  0
 19 24  1  0  0  0
 20 21  2  0  0  0
 20111  1  0  0  0
 21 23  1  0  0  0
 22 28  1  0  0  0
 22 32  2  0  0  0
 26 27  1  0  0  0
 28112  1  0  0  0
 28113  1  0  0  0
 29114  1  0  0  0
 29115  1  0  0  0
 33 34  1  0  0  0
 33 66  1  0  0  0
 33 70  2  0  0  0
 34 36  1  0  0  0
 34 59  1  0  0  0
 34116  1  0  0  0
 35 44  2  0  0  0
 35 45  1  0  0  0
 35 68  1  0  0  0
 36 56  1  0  0  0
 36117  1  0  0  0
 37 39  1  0  0  0
 37 47  1  0  0  0
 37 66  1  0  0  0
 37118  1  0  0  0
 38 43  2  0  0  0
 38 46  1  0  0  0
 38 47  1  0  0  0
 39 64  1  0  0  0
 39 67  2  0  0  0
 40 52  1  0  0  0
 40 53  2  0  0  0
 40 58  1  0  0  0
 41119  1  0  0  0
 41120  1  0  0  0
 41121  1  0  0  0
 41 48  1  0  0  0
 42 43  1  0  0  0
 42 66  1  0  0  0
 42122  1  0  0  0
 42123  1  0  0  0
 43 44  1  0  0  0
 44124  1  0  0  0
 45 46  2  0  0  0
 45125  1  0  0  0
 46126  1  0  0  0
 47127  1  0  0  0
 47128  1  0  0  0
 48 56  1  0  0  0
 48 65  1  0  0  0
 48129  1  0  0  0
 49 50  1  0  0  0
 49 53  1  0  0  0
 49 64  1  0  0  0
 49130  1  0  0  0
 50 51  1  0  0  0
 50131  1  0  0  0
 50132  1  0  0  0
 51 52  1  0  0  0
 51133  1  0  0  0
 51134  1  0  0  0
 52135  1  0  0  0
 52136  1  0  0  0
 53 54  1  0  0  0
 54 55  2  0  0  0
 54137  1  0  0  0
 55 57  1  0  0  0
 55138  1  0  0  0
 56 69  2  0  0  0
 57 58  2  0  0  0
 57139  1  0  0  0
 58140  1  0  0  0
 59 60  1  0  0  0
 59 61  1  0  0  0
 59 62  1  0  0  0
 60141  1  0  0  0
 60142  1  0  0  0
 60143  1  0  0  0
 61144  1  0  0  0
 61145  1  0  0  0
 61146  1  0  0  0
 62147  1  0  0  0
 62148  1  0  0  0
 62149  1  0  0  0
 63 65  1  0  0  0
 63150  1  0  0  0
 63151  1  0  0  0
 63152  1  0  0  0
 64153  1  0  0  0
 65154  1  0  0  0
 68 92  1  0  0  0
 71 72  2  0  0  0
 71 73  1  0  0  0
 71155  1  0  0  0
 72 74  1  0  0  0
 72 85  1  0  0  0
 73 76  2  0  0  0
 73 87  1  0  0  0
 74 75  2  0  0  0
 74 88  1  0  0  0
 75 76  1  0  0  0
 75 89  1  0  0  0
 76 94  1  0  0  0
 77 81  1  0  0  0
 77 86  1  0  0  0
 77156  1  0  0  0
 77157  1  0  0  0
 78 82  1  0  0  0
 78 86  1  0  0  0
 78158  1  0  0  0
 78159  1  0  0  0
 79 83  1  0  0  0
 79 85  1  0  0  0
 79160  1  0  0  0
 79161  1  0  0  0
 80 84  1  0  0  0
 80 85  1  0  0  0
 80162  1  0  0  0
 80163  1  0  0  0
 81 93  1  0  0  0
 81164  1  0  0  0
 81165  1  0  0  0
 82 93  1  0  0  0
 82166  1  0  0  0
 82167  1  0  0  0
 83 95  1  0  0  0
 83168  1  0  0  0
 83169  1  0  0  0
 84 95  1  0  0  0
 84170  1  0  0  0
 84171  1  0  0  0
 85172  1  0  0  0
 86 94  1  0  0  0
 86173  1  0  0  0
 87174  1  0  0  0
 87175  1  0  0  0
 87176  1  0  0  0
 88177  1  0  0  0
 88178  1  0  0  0
 88179  1  0  0  0
 89180  1  0  0  0
 89181  1  0  0  0
 89182  1  0  0  0
 90183  1  0  0  0
 90184  1  0  0  0
 90185  1  0  0  0
 90 92  1  0  0  0
 91 92  1  0  0  0
 91186  1  0  0  0
 91187  1  0  0  0
 91 95  1  0  0  0
 92188  1  0  0  0
 94189  1  0  0  0
 95190  1  0  0  0
M  CHG  1  95   1
M  ISO  4   1 100  68 101  92 101  93 100
M  END
> <chiral flag>
0

> <version>
0

> <s_m_source_file>
/data/baiqing/PycharmProjects/Reinvent-master-3.2/result/LINK_invent/BTK/process_docking_weight1_custom_sum_contain_oxygen_bond_distance_aromatic_linkinvent_7_9_3/rearranged_h_0156.sdf

> <i_m_source_file_index>
29

> <r_mmod_Potential_Energy-OPLS-2005>
90.3034973144531

> <r_mmod_Stretch_Energy-OPLS-2005>
45.6319580078125

> <r_mmod_Bend_Energy-OPLS-2005>
137.034591674805

> <r_mmod_Torsional_Energy-OPLS-2005>
408.275756835938

> <r_mmod_Improper_Torsional_Energy-OPLS-2005>
10.1039886474609

> <r_mmod_Van_der_Waal_Energy-OPLS-2005>
185.522964477539

> <r_mmod_Electrostatic_Energy-OPLS-2005>
-314.764709472656

> <r_mmod_Solvation_Energy-OPLS-2005>
-391.089813232422

> <b_mmod_Minimization_Converged-OPLS-2005>
0

> <r_mmod_RMS_Derivative-OPLS-2005>
5.88455724716187

$$$$
29
                    3D
 Structure written by MMmdl.
160169  0  0  1  0            999 V2000
  -30.5846  -14.7342   20.4591 C   0  0  0  0  0  0
  -30.4397  -12.4540   19.4501 C   0  0  0  0  0  0
  -29.5063  -12.5051   18.2221 C   0  0  0  0  0  0
  -28.0319  -12.3279   18.6380 C   0  0  0  0  0  0
  -27.6367  -13.2226   19.8432 C   0  0  2  0  0  0
  -28.6852  -13.1415   20.9711 C   0  0  0  0  0  0
  -25.2505  -13.8151   20.5717 C   0  0  0  0  0  0
  -24.1794  -13.0409   20.9216 C   0  0  0  0  0  0
  -24.6360  -11.6885   20.8726 C   0  0  0  0  0  0
  -23.9015  -10.4282   21.0381 C   0  0  0  0  0  0
  -24.3579   -9.4198   21.9160 C   0  0  0  0  0  0
  -23.6271   -8.2225   22.0726 C   0  0  0  0  0  0
  -22.4253   -8.0250   21.3517 C   0  0  0  0  0  0
  -21.9878   -9.0219   20.4620 C   0  0  0  0  0  0
  -22.7187  -10.2106   20.3033 C   0  0  0  0  0  0
  -21.6847   -6.0722   22.5282 C   0  0  0  0  0  0
  -21.4024   -6.5637   23.8210 C   0  0  0  0  0  0
  -21.3660   -5.6787   24.9171 C   0  0  0  0  0  0
  -21.6052   -4.3048   24.7224 C   0  0  0  0  0  0
  -21.8827   -3.8136   23.4344 C   0  0  0  0  0  0
  -21.9190   -4.6958   22.3394 C   0  0  0  0  0  0
  -22.7820  -13.5199   21.1887 C   0  0  0  0  0  0
  -22.1663   -4.2147   21.0977 F   0  0  0  0  0  0
  -21.5619   -3.4528   25.7729 F   0  0  0  0  0  0
  -29.9807  -13.5041   20.3800 N   0  0  0  0  0  0
  -26.2902  -12.9335   20.3243 N   0  0  0  0  0  0
  -25.9275  -11.6485   20.5696 N   0  0  0  0  0  0
  -22.0477  -12.8167   22.0441 N   0  0  0  0  0  0
  -25.4177  -15.1883   20.4231 N   0  0  0  0  0  0
  -31.7922  -14.8579   20.2351 O   0  0  0  0  0  0
  -21.6616   -6.8851   21.4227 O   0  0  0  0  0  0
  -22.3503  -14.5499   20.6742 O   0  0  0  0  0  0
  -24.6309  -31.8564   23.1936 C   0  0  0  0  0  0
  -25.9148  -32.4765   23.8269 C   0  0  1  0  0  0
  -27.2180  -27.2863   20.1256 C   0  0  0  0  0  0
  -25.5951  -33.8564   24.2212 N   0  0  0  0  0  0
  -23.4243  -30.4768   21.5394 C   0  0  2  0  0  0
  -24.8681  -28.9167   20.1130 C   0  0  0  0  0  0
  -22.7477  -29.4604   22.4900 C   0  0  0  0  0  0
  -18.0295  -28.1391   22.8501 C   0  0  0  0  0  0
  -24.1486  -36.7289   23.2618 C   0  0  0  0  0  0
  -25.9650  -30.7771   21.3672 C   0  0  0  0  0  0
  -26.0381  -29.3986   20.7147 C   0  0  0  0  0  0
  -27.2210  -28.5959   20.7033 C   0  0  0  0  0  0
  -26.0261  -26.8525   19.5149 C   0  0  0  0  0  0
  -24.8637  -27.6500   19.5041 C   0  0  0  0  0  0
  -23.6402  -29.8047   20.1567 C   0  0  0  0  0  0
  -25.4121  -36.3081   24.0299 C   0  0  1  0  0  0
  -20.5894  -28.3700   23.1285 C   0  0  2  0  0  0
  -20.6790  -26.9424   22.5414 C   0  0  0  0  0  0
  -19.5764  -26.6392   21.5221 C   0  0  0  0  0  0
  -18.1943  -26.7932   22.1631 C   0  0  0  0  0  0
  -19.1551  -28.8861   23.2889 C   0  0  0  0  0  0
  -18.9466  -30.1460   23.8905 C   0  0  0  0  0  0
  -17.6469  -30.6591   24.0566 C   0  0  0  0  0  0
  -25.9068  -34.9457   23.5062 C   0  0  0  0  0  0
  -16.5361  -29.9094   23.6322 C   0  0  0  0  0  0
  -16.7285  -28.6506   23.0357 C   0  0  0  0  0  0
  -26.4509  -31.6593   25.0675 C   0  0  0  0  0  0
  -25.3721  -31.3779   26.1385 C   0  0  0  0  0  0
  -27.0292  -30.2974   24.6171 C   0  0  0  0  0  0
  -27.6064  -32.4319   25.7470 C   0  0  0  0  0  0
  -27.5569  -37.1801   24.8457 C   0  0  0  0  0  0
  -21.4181  -29.3053   22.3664 N   0  0  0  0  0  0
  -26.4276  -37.3807   23.9411 N   0  0  0  0  0  0
  -24.6930  -31.0547   22.0906 N   0  0  0  0  0  0
  -23.4190  -28.8163   23.2999 O   0  0  0  0  0  0
  -28.3373  -26.4388   20.0966 O   0  0  0  0  0  0
  -26.5630  -34.8953   22.4613 O   0  0  0  0  0  0
  -23.5465  -32.1353   23.7257 O   0  0  0  0  0  0
  -29.6190  -19.8025   20.3574 C   0  0  0  0  0  0
  -29.1964  -18.5134   20.8582 C   0  0  0  0  0  0
  -28.7771  -20.9824   20.5091 C   0  0  0  0  0  0
  -27.9977  -18.5327   21.5588 C   0  0  0  0  0  0
  -27.5070  -20.7592   21.0893 C   0  0  0  0  0  0
  -27.9489  -17.4158   22.5649 C   0  0  0  0  0  0
  -29.4356  -16.9845   22.6474 C   0  0  0  0  0  0
  -30.0157  -17.1968   21.2255 C   0  0  2  0  0  0
  -25.3381  -21.5567   21.7779 C   0  0  0  0  0  0
  -29.3068  -22.4664   20.2729 C   0  0  0  0  0  0
  -28.4377  -23.7260   19.7353 C   0  0  0  0  0  0
  -28.2351  -25.0500   20.6379 C   0  0  0  0  0  0
  -27.1369  -19.5673   21.6237 N   0  0  0  0  0  0
  -29.7564  -15.8355   20.5942 N   0  0  0  0  0  0
  -26.6257  -21.8127   21.2187 O   0  0  0  0  0  0
  -31.4747  -12.6109   19.1406 H   0  0  0  0  0  0
  -30.4075  -11.4760   19.9330 H   0  0  0  0  0  0
  -29.7876  -11.7366   17.5018 H   0  0  0  0  0  0
  -29.6276  -13.4617   17.7118 H   0  0  0  0  0  0
  -27.8882  -11.2777   18.8960 H   0  0  0  0  0  0
  -27.3725  -12.5234   17.7918 H   0  0  0  0  0  0
  -27.6304  -14.2454   19.4672 H   0  0  0  0  0  0
  -28.7244  -12.1384   21.3975 H   0  0  0  0  0  0
  -28.4230  -13.8108   21.7924 H   0  0  0  0  0  0
  -25.2707   -9.5693   22.4748 H   0  0  0  0  0  0
  -23.9998   -7.4599   22.7421 H   0  0  0  0  0  0
  -21.0816   -8.8691   19.8915 H   0  0  0  0  0  0
  -22.3600  -10.9636   19.6150 H   0  0  0  0  0  0
  -21.2044   -7.6151   23.9716 H   0  0  0  0  0  0
  -21.1466   -6.0518   25.9071 H   0  0  0  0  0  0
  -22.0609   -2.7605   23.2838 H   0  0  0  0  0  0
  -22.4115  -11.9864   22.4867 H   0  0  0  0  0  0
  -21.1054  -13.1107   22.2587 H   0  0  0  0  0  0
  -24.6436  -15.8307   20.5514 H   0  0  0  0  0  0
  -26.2477  -15.6338   20.0572 H   0  0  0  0  0  0
  -26.7225  -32.5432   23.1030 H   0  0  0  0  0  0
  -25.0173  -33.9675   25.0408 H   0  0  0  0  0  0
  -22.7234  -31.3006   21.3934 H   0  0  0  0  0  0
  -23.3759  -35.9610   23.3286 H   0  0  0  0  0  0
  -24.3583  -36.8901   22.2031 H   0  0  0  0  0  0
  -23.7232  -37.6488   23.6646 H   0  0  0  0  0  0
  -26.0974  -31.5363   20.5955 H   0  0  0  0  0  0
  -26.8451  -30.8272   21.9971 H   0  0  0  0  0  0
  -28.1246  -28.9645   21.1690 H   0  0  0  0  0  0
  -25.9937  -25.8801   19.0436 H   0  0  0  0  0  0
  -23.9668  -27.2725   19.0325 H   0  0  0  0  0  0
  -23.7678  -30.5784   19.3982 H   0  0  0  0  0  0
  -22.7586  -29.2374   19.8523 H   0  0  0  0  0  0
  -25.1314  -36.1902   25.0792 H   0  0  0  0  0  0
  -20.9996  -28.3285   24.1398 H   0  0  0  0  0  0
  -20.5729  -26.2305   23.3614 H   0  0  0  0  0  0
  -21.6658  -26.7467   22.1202 H   0  0  0  0  0  0
  -19.6936  -25.6301   21.1253 H   0  0  0  0  0  0
  -19.6718  -27.3200   20.6746 H   0  0  0  0  0  0
  -17.4228  -26.6694   21.4018 H   0  0  0  0  0  0
  -18.0340  -26.0066   22.9012 H   0  0  0  0  0  0
  -19.7951  -30.7272   24.2280 H   0  0  0  0  0  0
  -17.5033  -31.6275   24.5163 H   0  0  0  0  0  0
  -15.5368  -30.3014   23.7626 H   0  0  0  0  0  0
  -15.8681  -28.0821   22.7075 H   0  0  0  0  0  0
  -24.5949  -30.7071   25.7723 H   0  0  0  0  0  0
  -24.8875  -32.2966   26.4690 H   0  0  0  0  0  0
  -25.8025  -30.9058   27.0224 H   0  0  0  0  0  0
  -26.2843  -29.6814   24.1126 H   0  0  0  0  0  0
  -27.3837  -29.7174   25.4705 H   0  0  0  0  0  0
  -27.8805  -30.4187   23.9475 H   0  0  0  0  0  0
  -27.2672  -33.3650   26.1978 H   0  0  0  0  0  0
  -28.3928  -32.6800   25.0334 H   0  0  0  0  0  0
  -28.0674  -31.8483   26.5456 H   0  0  0  0  0  0
  -28.2589  -38.0096   24.7516 H   0  0  0  0  0  0
  -28.1055  -36.2631   24.6268 H   0  0  0  0  0  0
  -27.2280  -37.1411   25.8853 H   0  0  0  0  0  0
  -20.9354  -29.8756   21.6860 H   0  0  0  0  0  0
  -26.0145  -38.2871   24.1439 H   0  0  0  0  0  0
  -30.6236  -19.9132   19.9773 H   0  0  0  0  0  0
  -27.3148  -16.6099   22.1941 H   0  0  0  0  0  0
  -27.5633  -17.7471   23.5289 H   0  0  0  0  0  0
  -29.5767  -15.9867   23.0647 H   0  0  0  0  0  0
  -29.9432  -17.6730   23.3263 H   0  0  0  0  0  0
  -31.0871  -17.4059   21.2594 H   0  0  0  0  0  0
  -24.7495  -22.4740   21.7776 H   0  0  0  0  0  0
  -25.4122  -21.2182   22.8133 H   0  0  0  0  0  0
  -24.7886  -20.8127   21.1966 H   0  0  0  0  0  0
  -30.1508  -22.3627   19.5906 H   0  0  0  0  0  0
  -29.7653  -22.7614   21.2173 H   0  0  0  0  0  0
  -27.4820  -23.3899   19.3339 H   0  0  0  0  0  0
  -28.9718  -24.0748   18.8512 H   0  0  0  0  0  0
  -29.0077  -25.0236   21.4062 H   0  0  0  0  0  0
  -27.3020  -24.9477   21.1931 H   0  0  0  0  0  0
  -28.7803  -15.5952   20.5227 H   0  0  0  0  0  0
  1 25  1  0  0  0
  1 30  2  0  0  0
  1 84  1  0  0  0
  2  3  1  0  0  0
  2 25  1  0  0  0
  2 86  1  0  0  0
  2 87  1  0  0  0
  3  4  1  0  0  0
  3 88  1  0  0  0
  3 89  1  0  0  0
  4  5  1  0  0  0
  4 90  1  0  0  0
  4 91  1  0  0  0
  5  6  1  0  0  0
  5 26  1  0  0  0
  5 92  1  0  0  0
  6 25  1  0  0  0
  6 93  1  0  0  0
  6 94  1  0  0  0
  7  8  2  0  0  0
  7 26  1  0  0  0
  7 29  1  0  0  0
  8  9  1  0  0  0
  8 22  1  0  0  0
  9 10  1  0  0  0
  9 27  2  0  0  0
 10 11  2  0  0  0
 10 15  1  0  0  0
 11 12  1  0  0  0
 11 95  1  0  0  0
 12 13  2  0  0  0
 12 96  1  0  0  0
 13 14  1  0  0  0
 13 31  1  0  0  0
 14 15  2  0  0  0
 14 97  1  0  0  0
 15 98  1  0  0  0
 16 17  2  0  0  0
 16 21  1  0  0  0
 16 31  1  0  0  0
 17 18  1  0  0  0
 17 99  1  0  0  0
 18 19  2  0  0  0
 18100  1  0  0  0
 19 20  1  0  0  0
 19 24  1  0  0  0
 20 21  2  0  0  0
 20101  1  0  0  0
 21 23  1  0  0  0
 22 28  1  0  0  0
 22 32  2  0  0  0
 26 27  1  0  0  0
 28102  1  0  0  0
 28103  1  0  0  0
 29104  1  0  0  0
 29105  1  0  0  0
 33 34  1  0  0  0
 33 66  1  0  0  0
 33 70  2  0  0  0
 34 36  1  0  0  0
 34 59  1  0  0  0
 34106  1  0  0  0
 35 44  2  0  0  0
 35 45  1  0  0  0
 35 68  1  0  0  0
 36 56  1  0  0  0
 36107  1  0  0  0
 37 39  1  0  0  0
 37 47  1  0  0  0
 37 66  1  0  0  0
 37108  1  0  0  0
 38 43  2  0  0  0
 38 46  1  0  0  0
 38 47  1  0  0  0
 39 64  1  0  0  0
 39 67  2  0  0  0
 40 52  1  0  0  0
 40 53  2  0  0  0
 40 58  1  0  0  0
 41109  1  0  0  0
 41110  1  0  0  0
 41111  1  0  0  0
 41 48  1  0  0  0
 42 43  1  0  0  0
 42 66  1  0  0  0
 42112  1  0  0  0
 42113  1  0  0  0
 43 44  1  0  0  0
 44114  1  0  0  0
 45 46  2  0  0  0
 45115  1  0  0  0
 46116  1  0  0  0
 47117  1  0  0  0
 47118  1  0  0  0
 48 56  1  0  0  0
 48 65  1  0  0  0
 48119  1  0  0  0
 49 50  1  0  0  0
 49 53  1  0  0  0
 49 64  1  0  0  0
 49120  1  0  0  0
 50 51  1  0  0  0
 50121  1  0  0  0
 50122  1  0  0  0
 51 52  1  0  0  0
 51123  1  0  0  0
 51124  1  0  0  0
 52125  1  0  0  0
 52126  1  0  0  0
 53 54  1  0  0  0
 54 55  2  0  0  0
 54127  1  0  0  0
 55 57  1  0  0  0
 55128  1  0  0  0
 56 69  2  0  0  0
 57 58  2  0  0  0
 57129  1  0  0  0
 58130  1  0  0  0
 59 60  1  0  0  0
 59 61  1  0  0  0
 59 62  1  0  0  0
 60131  1  0  0  0
 60132  1  0  0  0
 60133  1  0  0  0
 61134  1  0  0  0
 61135  1  0  0  0
 61136  1  0  0  0
 62137  1  0  0  0
 62138  1  0  0  0
 62139  1  0  0  0
 63 65  1  0  0  0
 63140  1  0  0  0
 63141  1  0  0  0
 63142  1  0  0  0
 64143  1  0  0  0
 65144  1  0  0  0
 68 82  1  0  0  0
 71 72  2  0  0  0
 71 73  1  0  0  0
 71145  1  0  0  0
 72 74  1  0  0  0
 72 78  1  0  0  0
 73 75  2  0  0  0
 73 80  1  0  0  0
 74 76  1  0  0  0
 74 83  2  0  0  0
 75 83  1  0  0  0
 75 85  1  0  0  0
 76 77  1  0  0  0
 76146  1  0  0  0
 76147  1  0  0  0
 77 78  1  0  0  0
 77148  1  0  0  0
 77149  1  0  0  0
 78 84  1  0  0  0
 78150  1  0  0  0
 79 85  1  0  0  0
 79151  1  0  0  0
 79152  1  0  0  0
 79153  1  0  0  0
 80 81  1  0  0  0
 80154  1  0  0  0
 80155  1  0  0  0
 81 82  1  0  0  0
 81156  1  0  0  0
 81157  1  0  0  0
 82158  1  0  0  0
 82159  1  0  0  0
 84160  1  0  0  0
M  ISO  4   1 100  68 101  82 101  84 100
M  END
> <chiral flag>
0

> <version>
0

> <s_m_source_file>
/data/baiqing/PycharmProjects/Reinvent-master-3.2/result/LINK_invent/BTK/process_docking_weight1_custom_sum_contain_oxygen_bond_distance_aromatic_linkinvent_7_9_3/rearranged_h_0156.sdf

> <i_m_source_file_index>
30

> <r_mmod_Potential_Energy-OPLS-2005>
104.400604248047

> <r_mmod_Stretch_Energy-OPLS-2005>
110.875617980957

> <r_mmod_Bend_Energy-OPLS-2005>
244.24641418457

> <r_mmod_Torsional_Energy-OPLS-2005>
274.568206787109

> <r_mmod_Improper_Torsional_Energy-OPLS-2005>
15.576247215271

> <r_mmod_Van_der_Waal_Energy-OPLS-2005>
136.060333251953

> <r_mmod_Electrostatic_Energy-OPLS-2005>
-537.0869140625

> <r_mmod_Solvation_Energy-OPLS-2005>
-216.972305297852

> <b_mmod_Minimization_Converged-OPLS-2005>
0

> <r_mmod_RMS_Derivative-OPLS-2005>
3.04468989372253

$$$$
30
                    3D
 Structure written by MMmdl.
180190  0  0  1  0            999 V2000
  -30.5531  -14.7198   19.8955 C   0  0  0  0  0  0
  -30.4323  -12.3142   19.5281 C   0  0  0  0  0  0
  -29.5179  -12.1028   18.3128 C   0  0  0  0  0  0
  -28.0284  -12.0969   18.7298 C   0  0  0  0  0  0
  -27.6227  -13.0771   19.8809 C   0  0  2  0  0  0
  -28.7173  -13.2148   20.9361 C   0  0  0  0  0  0
  -25.2659  -13.7562   20.6361 C   0  0  0  0  0  0
  -24.1727  -13.0124   20.9404 C   0  0  0  0  0  0
  -24.6101  -11.6452   20.8679 C   0  0  0  0  0  0
  -23.8549  -10.4250   21.0246 C   0  0  0  0  0  0
  -24.3028   -9.4471   21.9378 C   0  0  0  0  0  0
  -23.5803   -8.2573   22.1119 C   0  0  0  0  0  0
  -22.3806   -8.0547   21.3863 C   0  0  0  0  0  0
  -21.9251   -9.0319   20.4836 C   0  0  0  0  0  0
  -22.6634  -10.2290   20.2893 C   0  0  0  0  0  0
  -21.6647   -6.0620   22.5298 C   0  0  0  0  0  0
  -21.3890   -6.5525   23.8300 C   0  0  0  0  0  0
  -21.3787   -5.6814   24.9278 C   0  0  0  0  0  0
  -21.6132   -4.3044   24.7366 C   0  0  0  0  0  0
  -21.8735   -3.7952   23.4459 C   0  0  0  0  0  0
  -21.9139   -4.6813   22.3451 C   0  0  0  0  0  0
  -22.7758  -13.4945   21.2196 C   0  0  0  0  0  0
  -22.1574   -4.1876   21.1118 F   0  0  0  0  0  0
  -21.5804   -3.4622   25.7989 F   0  0  0  0  0  0
  -29.9535  -13.5236   20.1978 N   0  0  0  0  0  0
  -26.2989  -12.8487   20.4347 N   0  0  0  0  0  0
  -25.9118  -11.5748   20.6456 N   0  0  0  0  0  0
  -22.0722  -12.8019   22.1003 N   0  0  0  0  0  0
  -25.4458  -15.1295   20.5089 N   0  0  0  0  0  0
  -31.7481  -14.8469   20.1858 O   0  0  0  0  0  0
  -21.6534   -6.8829   21.4255 O   0  0  0  0  0  0
  -22.3474  -14.5266   20.7151 O   0  0  0  0  0  0
  -24.6064  -31.8842   23.2395 C   0  0  0  0  0  0
  -25.8999  -32.4910   23.8608 C   0  0  1  0  0  0
  -27.1635  -27.5101   19.9995 C   0  0  0  0  0  0
  -25.5930  -33.8717   24.2490 N   0  0  0  0  0  0
  -23.3899  -30.5278   21.5807 C   0  0  2  0  0  0
  -24.8331  -29.0682   20.0865 C   0  0  0  0  0  0
  -22.7391  -29.4743   22.5055 C   0  0  0  0  0  0
  -18.0277  -28.1359   22.8515 C   0  0  0  0  0  0
  -24.1506  -36.7376   23.2622 C   0  0  0  0  0  0
  -25.9295  -30.8375   21.4279 C   0  0  0  0  0  0
  -25.9879  -29.4892   20.7607 C   0  0  0  0  0  0
  -27.1526  -28.6750   20.7926 C   0  0  0  0  0  0
  -26.1131  -27.3347   19.0950 C   0  0  0  0  0  0
  -24.8867  -27.9692   19.2405 C   0  0  0  0  0  0
  -23.5895  -29.9083   20.1800 C   0  0  0  0  0  0
  -25.4103  -36.3153   24.0339 C   0  0  1  0  0  0
  -20.5874  -28.3640   23.1340 C   0  0  2  0  0  0
  -20.6781  -26.9389   22.5420 C   0  0  0  0  0  0
  -19.5737  -26.6375   21.5233 C   0  0  0  0  0  0
  -18.1916  -26.7911   22.1656 C   0  0  0  0  0  0
  -19.1526  -28.8812   23.2931 C   0  0  0  0  0  0
  -18.9455  -30.1430   23.8922 C   0  0  0  0  0  0
  -17.6455  -30.6567   24.0563 C   0  0  0  0  0  0
  -25.9001  -34.9507   23.5171 C   0  0  0  0  0  0
  -16.5348  -29.9068   23.6322 C   0  0  0  0  0  0
  -16.7275  -28.6488   23.0348 C   0  0  0  0  0  0
  -26.4441  -31.6633   25.0878 C   0  0  0  0  0  0
  -25.3712  -31.3780   26.1640 C   0  0  0  0  0  0
  -27.0249  -30.3057   24.6253 C   0  0  0  0  0  0
  -27.6045  -32.4350   25.7615 C   0  0  0  0  0  0
  -27.5584  -37.1852   24.8443 C   0  0  0  0  0  0
  -21.4137  -29.3038   22.3764 N   0  0  0  0  0  0
  -26.4296  -37.3827   23.9379 N   0  0  0  0  0  0
  -24.6567  -31.0967   22.1359 N   0  0  0  0  0  0
  -23.4202  -28.8179   23.2980 O   0  0  0  0  0  0
  -28.0189  -26.4430   20.1603 O   0  0  0  0  0  0
  -26.5540  -34.8913   22.4713 O   0  0  0  0  0  0
  -23.5266  -32.1621   23.7793 O   0  0  0  0  0  0
  -27.7500  -16.7713   18.8104 C   0  0  0  0  0  0
  -25.9645  -15.8180   17.4470 C   0  0  0  0  0  0
  -28.1848  -14.9211   17.3143 C   0  0  0  0  0  0
  -26.4411  -16.8909   18.2308 C   0  0  0  0  0  0
  -28.6434  -15.7337   18.3914 C   0  0  0  0  0  0
  -26.8025  -14.7946   17.0390 C   0  0  0  0  0  0
  -25.6412  -23.4063   19.5909 C   0  0  0  0  0  0
  -26.7043  -23.1887   21.8258 C   0  0  0  0  0  0
  -31.8833  -16.2677   17.2240 C   0  0  0  0  0  0
  -30.6292  -16.9250   16.8146 C   0  0  0  0  0  0
  -26.6849  -24.4329   19.1925 C   0  0  0  0  0  0
  -27.7555  -24.2944   21.4746 C   0  0  0  0  0  0
  -26.2943  -22.4130   20.5374 C   0  0  1  0  0  0
  -30.8531  -16.6042   18.2998 C   0  0  0  0  0  0
  -27.1817  -25.2596   20.4313 C   0  0  1  0  0  0
  -25.0706  -13.1357   17.0344 C   0  0  0  0  0  0
  -25.4829  -18.1004   18.2885 C   0  0  0  0  0  0
  -25.4282  -21.1418   20.6612 C   0  0  0  0  0  0
  -25.1355  -18.9190   19.5551 C   0  0  0  0  0  0
  -30.0118  -15.5826   18.9031 N   0  0  0  0  0  0
  -25.6569  -20.2852   19.4675 N   0  3  0  0  0  0
  -26.2851  -13.6512   16.4516 O   0  0  0  0  0  0
  -31.4580  -12.4315   19.1907 H   0  0  0  0  0  0
  -30.4263  -11.4555   20.1976 H   0  0  0  0  0  0
  -29.7337  -11.1292   17.8916 H   0  0  0  0  0  0
  -29.7788  -12.8128   17.5278 H   0  0  0  0  0  0
  -27.8355  -11.0831   19.0686 H   0  0  0  0  0  0
  -27.4155  -12.2051   17.8458 H   0  0  0  0  0  0
  -27.4500  -14.0192   19.4481 H   0  0  0  0  0  0
  -28.8304  -12.2830   21.5017 H   0  0  0  0  0  0
  -28.4384  -13.9781   21.6576 H   0  0  0  0  0  0
  -25.2159   -9.6361   22.5012 H   0  0  0  0  0  0
  -23.9643   -7.4976   22.7798 H   0  0  0  0  0  0
  -21.0273   -8.8128   19.9143 H   0  0  0  0  0  0
  -22.3212  -10.9581   19.5611 H   0  0  0  0  0  0
  -21.1646   -7.5990   23.9496 H   0  0  0  0  0  0
  -21.1708   -6.0702   25.9145 H   0  0  0  0  0  0
  -22.0176   -2.7418   23.3058 H   0  0  0  0  0  0
  -22.4966  -12.0343   22.6161 H   0  0  0  0  0  0
  -21.1316  -13.0797   22.3131 H   0  0  0  0  0  0
  -24.6462  -15.7603   20.5955 H   0  0  0  0  0  0
  -26.3099  -15.6114   20.3155 H   0  0  0  0  0  0
  -26.7067  -32.5645   23.1388 H   0  0  0  0  0  0
  -25.0143  -33.9939   25.0674 H   0  0  0  0  0  0
  -22.6726  -31.3421   21.4680 H   0  0  0  0  0  0
  -23.3741  -35.9733   23.3260 H   0  0  0  0  0  0
  -24.3629  -36.9008   22.2038 H   0  0  0  0  0  0
  -23.7262  -37.6590   23.6637 H   0  0  0  0  0  0
  -26.0562  -31.6087   20.6651 H   0  0  0  0  0  0
  -26.8142  -30.8747   22.0521 H   0  0  0  0  0  0
  -27.9824  -28.9123   21.4433 H   0  0  0  0  0  0
  -26.2744  -26.7858   18.1926 H   0  0  0  0  0  0
  -24.0742  -27.7671   18.5581 H   0  0  0  0  0  0
  -23.6595  -30.6995   19.4334 H   0  0  0  0  0  0
  -22.7265  -29.3066   19.8941 H   0  0  0  0  0  0
  -25.1268  -36.2069   25.0836 H   0  0  0  0  0  0
  -20.9985  -28.3179   24.1450 H   0  0  0  0  0  0
  -20.5706  -26.2245   23.3587 H   0  0  0  0  0  0
  -21.6642  -26.7434   22.1179 H   0  0  0  0  0  0
  -19.6879  -25.6286   21.1229 H   0  0  0  0  0  0
  -19.6658  -27.3213   20.6773 H   0  0  0  0  0  0
  -17.4192  -26.6694   21.4048 H   0  0  0  0  0  0
  -18.0300  -26.0037   22.9034 H   0  0  0  0  0  0
  -19.7925  -30.7260   24.2296 H   0  0  0  0  0  0
  -17.4993  -31.6248   24.5162 H   0  0  0  0  0  0
  -15.5341  -30.2963   23.7611 H   0  0  0  0  0  0
  -15.8693  -28.0798   22.7038 H   0  0  0  0  0  0
  -24.5898  -30.7083   25.8028 H   0  0  0  0  0  0
  -24.8881  -32.2964   26.5011 H   0  0  0  0  0  0
  -25.8074  -30.9040   27.0445 H   0  0  0  0  0  0
  -26.2822  -29.6913   24.1162 H   0  0  0  0  0  0
  -27.3831  -29.7197   25.4722 H   0  0  0  0  0  0
  -27.8756  -30.4356   23.9563 H   0  0  0  0  0  0
  -27.2672  -33.3680   26.2175 H   0  0  0  0  0  0
  -28.3874  -32.6879   25.0436 H   0  0  0  0  0  0
  -28.0691  -31.8476   26.5559 H   0  0  0  0  0  0
  -28.2588  -38.0171   24.7493 H   0  0  0  0  0  0
  -28.1106  -36.2689   24.6263 H   0  0  0  0  0  0
  -27.2305  -37.1497   25.8855 H   0  0  0  0  0  0
  -20.9239  -29.8884   21.7131 H   0  0  0  0  0  0
  -26.0200  -38.2919   24.1380 H   0  0  0  0  0  0
  -28.1216  -17.4784   19.5403 H   0  0  0  0  0  0
  -24.9418  -15.7600   17.0698 H   0  0  0  0  0  0
  -28.8485  -14.3080   16.7537 H   0  0  0  0  0  0
  -25.2395  -22.9211   18.7114 H   0  0  0  0  0  0
  -24.7885  -23.8943   20.0672 H   0  0  0  0  0  0
  -25.8240  -23.6526   22.2830 H   0  0  0  0  0  0
  -27.1069  -22.5031   22.5788 H   0  0  0  0  0  0
  -31.9930  -15.2407   16.9360 H   0  0  0  0  0  0
  -32.7362  -16.9243   17.0422 H   0  0  0  0  0  0
  -29.9431  -16.3514   16.1955 H   0  0  0  0  0  0
  -30.7662  -17.9415   16.4388 H   0  0  0  0  0  0
  -26.1232  -24.9345   18.4251 H   0  0  0  0  0  0
  -27.5157  -23.9707   18.6644 H   0  0  0  0  0  0
  -28.6565  -23.8271   21.0874 H   0  0  0  0  0  0
  -28.0359  -24.8394   22.3749 H   0  0  0  0  0  0
  -27.2422  -22.0956   20.0999 H   0  0  0  0  0  0
  -31.0404  -17.4688   18.9215 H   0  0  0  0  0  0
  -26.2788  -25.6065   20.9488 H   0  0  0  0  0  0
  -24.1607  -13.7411   16.8883 H   0  0  0  0  0  0
  -25.1753  -12.9803   18.1055 H   0  0  0  0  0  0
  -24.8873  -12.1538   16.6025 H   0  0  0  0  0  0
  -24.5237  -17.6618   18.0193 H   0  0  0  0  0  0
  -25.7429  -18.7984   17.4910 H   0  0  0  0  0  0
  -24.3637  -21.3948   20.7323 H   0  0  0  0  0  0
  -25.6853  -20.5860   21.5577 H   0  0  0  0  0  0
  -25.3796  -18.4368   20.5079 H   0  0  0  0  0  0
  -24.0478  -19.0989   19.5200 H   0  0  0  0  0  0
  -26.6425  -20.1988   19.2841 H   0  0  0  0  0  0
  -25.2368  -20.7413   18.6654 H   0  0  0  0  0  0
  1 25  1  0  0  0
  1 30  2  0  0  0
  1 90  1  0  0  0
  2  3  1  0  0  0
  2 25  1  0  0  0
  2 93  1  0  0  0
  2 94  1  0  0  0
  3  4  1  0  0  0
  3 95  1  0  0  0
  3 96  1  0  0  0
  4  5  1  0  0  0
  4 97  1  0  0  0
  4 98  1  0  0  0
  5  6  1  0  0  0
  5 26  1  0  0  0
  5 99  1  0  0  0
  6 25  1  0  0  0
  6100  1  0  0  0
  6101  1  0  0  0
  7  8  2  0  0  0
  7 26  1  0  0  0
  7 29  1  0  0  0
  8  9  1  0  0  0
  8 22  1  0  0  0
  9 10  1  0  0  0
  9 27  2  0  0  0
 10 11  2  0  0  0
 10 15  1  0  0  0
 11 12  1  0  0  0
 11102  1  0  0  0
 12 13  2  0  0  0
 12103  1  0  0  0
 13 14  1  0  0  0
 13 31  1  0  0  0
 14 15  2  0  0  0
 14104  1  0  0  0
 15105  1  0  0  0
 16 17  2  0  0  0
 16 21  1  0  0  0
 16 31  1  0  0  0
 17 18  1  0  0  0
 17106  1  0  0  0
 18 19  2  0  0  0
 18107  1  0  0  0
 19 20  1  0  0  0
 19 24  1  0  0  0
 20 21  2  0  0  0
 20108  1  0  0  0
 21 23  1  0  0  0
 22 28  1  0  0  0
 22 32  2  0  0  0
 26 27  1  0  0  0
 28109  1  0  0  0
 28110  1  0  0  0
 29111  1  0  0  0
 29112  1  0  0  0
 33 34  1  0  0  0
 33 66  1  0  0  0
 33 70  2  0  0  0
 34 36  1  0  0  0
 34 59  1  0  0  0
 34113  1  0  0  0
 35 44  2  0  0  0
 35 45  1  0  0  0
 35 68  1  0  0  0
 36 56  1  0  0  0
 36114  1  0  0  0
 37 39  1  0  0  0
 37 47  1  0  0  0
 37 66  1  0  0  0
 37115  1  0  0  0
 38 43  2  0  0  0
 38 46  1  0  0  0
 38 47  1  0  0  0
 39 64  1  0  0  0
 39 67  2  0  0  0
 40 52  1  0  0  0
 40 53  2  0  0  0
 40 58  1  0  0  0
 41116  1  0  0  0
 41117  1  0  0  0
 41118  1  0  0  0
 41 48  1  0  0  0
 42 43  1  0  0  0
 42 66  1  0  0  0
 42119  1  0  0  0
 42120  1  0  0  0
 43 44  1  0  0  0
 44121  1  0  0  0
 45 46  2  0  0  0
 45122  1  0  0  0
 46123  1  0  0  0
 47124  1  0  0  0
 47125  1  0  0  0
 48 56  1  0  0  0
 48 65  1  0  0  0
 48126  1  0  0  0
 49 50  1  0  0  0
 49 53  1  0  0  0
 49 64  1  0  0  0
 49127  1  0  0  0
 50 51  1  0  0  0
 50128  1  0  0  0
 50129  1  0  0  0
 51 52  1  0  0  0
 51130  1  0  0  0
 51131  1  0  0  0
 52132  1  0  0  0
 52133  1  0  0  0
 53 54  1  0  0  0
 54 55  2  0  0  0
 54134  1  0  0  0
 55 57  1  0  0  0
 55135  1  0  0  0
 56 69  2  0  0  0
 57 58  2  0  0  0
 57136  1  0  0  0
 58137  1  0  0  0
 59 60  1  0  0  0
 59 61  1  0  0  0
 59 62  1  0  0  0
 60138  1  0  0  0
 60139  1  0  0  0
 60140  1  0  0  0
 61141  1  0  0  0
 61142  1  0  0  0
 61143  1  0  0  0
 62144  1  0  0  0
 62145  1  0  0  0
 62146  1  0  0  0
 63 65  1  0  0  0
 63147  1  0  0  0
 63148  1  0  0  0
 63149  1  0  0  0
 64150  1  0  0  0
 65151  1  0  0  0
 68 85  1  0  0  0
 71 74  2  0  0  0
 71 75  1  0  0  0
 71152  1  0  0  0
 72 74  1  0  0  0
 72 76  2  0  0  0
 72153  1  0  0  0
 73 75  2  0  0  0
 73 76  1  0  0  0
 73154  1  0  0  0
 74 87  1  0  0  0
 75 90  1  0  0  0
 76 92  1  0  0  0
 77 81  1  0  0  0
 77 83  1  0  0  0
 77155  1  0  0  0
 77156  1  0  0  0
 78 82  1  0  0  0
 78 83  1  0  0  0
 78157  1  0  0  0
 78158  1  0  0  0
 79 80  1  0  0  0
 79 84  1  0  0  0
 79159  1  0  0  0
 79160  1  0  0  0
 80 84  1  0  0  0
 80161  1  0  0  0
 80162  1  0  0  0
 81 85  1  0  0  0
 81163  1  0  0  0
 81164  1  0  0  0
 82 85  1  0  0  0
 82165  1  0  0  0
 82166  1  0  0  0
 83 88  1  0  0  0
 83167  1  0  0  0
 84 90  1  0  0  0
 84168  1  0  0  0
 85169  1  0  0  0
 86 92  1  0  0  0
 86170  1  0  0  0
 86171  1  0  0  0
 86172  1  0  0  0
 87 89  1  0  0  0
 87173  1  0  0  0
 87174  1  0  0  0
 88 91  1  0  0  0
 88175  1  0  0  0
 88176  1  0  0  0
 89 91  1  0  0  0
 89177  1  0  0  0
 89178  1  0  0  0
 91179  1  0  0  0
 91180  1  0  0  0
M  CHG  1  91   1
M  ISO  4   1 100  68 101  85 101  90 100
M  END
> <chiral flag>
0

> <version>
0

> <s_m_source_file>
/data/baiqing/PycharmProjects/Reinvent-master-3.2/result/LINK_invent/BTK/process_docking_weight1_custom_sum_contain_oxygen_bond_distance_aromatic_linkinvent_7_9_3/rearranged_h_0156.sdf

> <i_m_source_file_index>
31

> <r_mmod_Potential_Energy-OPLS-2005>
729.825012207031

> <r_mmod_Stretch_Energy-OPLS-2005>
85.723503112793

> <r_mmod_Bend_Energy-OPLS-2005>
235.751174926758

> <r_mmod_Torsional_Energy-OPLS-2005>
563.681274414062

> <r_mmod_Improper_Torsional_Energy-OPLS-2005>
17.4418067932129

> <r_mmod_Van_der_Waal_Energy-OPLS-2005>
233.57421875

> <r_mmod_Electrostatic_Energy-OPLS-2005>
-176.615859985352

> <r_mmod_Solvation_Energy-OPLS-2005>
-465.815216064453

> <b_mmod_Minimization_Converged-OPLS-2005>
0

> <r_mmod_RMS_Derivative-OPLS-2005>
30.1418552398682

$$$$
31
                    3D
 Structure written by MMmdl.
171180  0  0  1  0            999 V2000
  -30.6224  -14.5272   20.5558 C   0  0  0  0  0  0
  -30.4250  -12.3184   19.4559 C   0  0  0  0  0  0
  -29.5125  -12.4863   18.2195 C   0  0  0  0  0  0
  -28.0250  -12.3421   18.6067 C   0  0  0  0  0  0
  -27.6564  -13.1690   19.8689 C   0  0  2  0  0  0
  -28.6885  -12.9869   21.0047 C   0  0  0  0  0  0
  -25.2613  -13.7656   20.5330 C   0  0  0  0  0  0
  -24.1837  -13.0179   20.9051 C   0  0  0  0  0  0
  -24.6372  -11.6669   20.8716 C   0  0  0  0  0  0
  -23.8993  -10.4179   21.0381 C   0  0  0  0  0  0
  -24.3587   -9.4152   21.9169 C   0  0  0  0  0  0
  -23.6283   -8.2209   22.0768 C   0  0  0  0  0  0
  -22.4272   -8.0259   21.3540 C   0  0  0  0  0  0
  -21.9862   -9.0204   20.4645 C   0  0  0  0  0  0
  -22.7173  -10.2061   20.3030 C   0  0  0  0  0  0
  -21.6883   -6.0742   22.5241 C   0  0  0  0  0  0
  -21.4049   -6.5673   23.8161 C   0  0  0  0  0  0
  -21.3613   -5.6817   24.9113 C   0  0  0  0  0  0
  -21.6031   -4.3080   24.7161 C   0  0  0  0  0  0
  -21.8861   -3.8161   23.4295 C   0  0  0  0  0  0
  -21.9214   -4.6977   22.3355 C   0  0  0  0  0  0
  -22.7897  -13.5146   21.1747 C   0  0  0  0  0  0
  -22.1695   -4.2175   21.0929 F   0  0  0  0  0  0
  -21.5568   -3.4571   25.7664 F   0  0  0  0  0  0
  -30.0004  -13.3189   20.4519 N   0  0  0  0  0  0
  -26.3055  -12.8901   20.3298 N   0  0  0  0  0  0
  -25.9311  -11.6120   20.5774 N   0  0  0  0  0  0
  -22.0489  -12.8201   22.0312 N   0  0  0  0  0  0
  -25.4425  -15.1133   20.3162 N   0  0  0  0  0  0
  -31.8221  -14.6433   20.2706 O   0  0  0  0  0  0
  -21.6642   -6.8871   21.4211 O   0  0  0  0  0  0
  -22.3710  -14.5531   20.6609 O   0  0  0  0  0  0
  -24.6099  -31.8721   23.2150 C   0  0  0  0  0  0
  -25.8998  -32.4855   23.8401 C   0  0  1  0  0  0
  -27.2339  -27.4828   20.0445 C   0  0  0  0  0  0
  -25.5905  -33.8668   24.2338 N   0  0  0  0  0  0
  -23.3951  -30.4951   21.5621 C   0  0  2  0  0  0
  -24.8363  -28.9549   20.1241 C   0  0  0  0  0  0
  -22.7425  -29.4603   22.5109 C   0  0  0  0  0  0
  -18.0255  -28.1442   22.8596 C   0  0  0  0  0  0
  -24.1488  -36.7334   23.2626 C   0  0  0  0  0  0
  -25.9212  -30.8460   21.3618 C   0  0  0  0  0  0
  -25.9968  -29.4759   20.7123 C   0  0  0  0  0  0
  -27.2027  -28.7413   20.6804 C   0  0  0  0  0  0
  -26.0560  -26.9592   19.4816 C   0  0  0  0  0  0
  -24.8528  -27.6856   19.5245 C   0  0  0  0  0  0
  -23.5938  -29.8188   20.1777 C   0  0  0  0  0  0
  -25.4118  -36.3141   24.0318 C   0  0  1  0  0  0
  -20.5843  -28.3662   23.1480 C   0  0  2  0  0  0
  -20.6787  -26.9405   22.5540 C   0  0  0  0  0  0
  -19.5813  -26.6482   21.5284 C   0  0  0  0  0  0
  -18.2004  -26.7911   22.1865 C   0  0  0  0  0  0
  -19.1530  -28.8885   23.2922 C   0  0  0  0  0  0
  -18.9450  -30.1486   23.8880 C   0  0  0  0  0  0
  -17.6488  -30.6733   24.0455 C   0  0  0  0  0  0
  -25.9056  -34.9494   23.5135 C   0  0  0  0  0  0
  -16.5334  -29.9141   23.6431 C   0  0  0  0  0  0
  -16.7265  -28.6542   23.0554 C   0  0  0  0  0  0
  -26.4476  -31.6603   25.0732 C   0  0  0  0  0  0
  -25.3780  -31.3675   26.1510 C   0  0  0  0  0  0
  -27.0263  -30.3025   24.6088 C   0  0  0  0  0  0
  -27.6030  -32.4327   25.7519 C   0  0  0  0  0  0
  -27.5587  -37.1809   24.8451 C   0  0  0  0  0  0
  -21.4143  -29.3068   22.3964 N   0  0  0  0  0  0
  -26.4309  -37.3815   23.9388 N   0  0  0  0  0  0
  -24.6616  -31.0838   22.1040 N   0  0  0  0  0  0
  -23.4315  -28.8005   23.2967 O   0  0  0  0  0  0
  -28.4092  -26.8012   19.8649 O   0  0  0  0  0  0
  -26.5594  -34.8950   22.4701 O   0  0  0  0  0  0
  -23.5270  -32.1408   23.7551 O   0  0  0  0  0  0
  -26.0573  -20.1233   20.5629 C   0  0  0  0  0  0
  -28.1584  -19.0372   21.2128 C   0  0  0  0  0  0
  -26.6869  -21.3640   20.4917 C   0  0  0  0  0  0
  -28.7163  -20.3435   21.4298 C   0  0  0  0  0  0
  -27.9874  -21.5031   21.0260 C   0  0  0  0  0  0
  -26.7555  -18.9576   20.9604 C   0  0  0  0  0  0
  -29.3009  -17.7643   19.4196 C   0  0  0  0  0  0
  -30.0685  -16.4736   19.2135 C   0  0  0  0  0  0
  -28.9574  -16.3723   21.3345 C   0  0  0  0  0  0
  -29.1467  -17.8641   20.9202 C   0  0  2  0  0  0
  -25.8938  -22.5379   19.9236 C   0  0  0  0  0  0
  -30.0679  -20.5007   22.1354 C   0  0  0  0  0  0
  -24.6386  -17.8258   21.1359 C   0  0  0  0  0  0
  -28.5048  -22.9234   21.2367 C   0  0  0  0  0  0
  -28.7713  -25.9140   20.9030 C   0  0  0  0  0  0
  -29.6830  -24.7909   20.3400 C   0  0  0  0  0  0
  -29.7931  -15.6026   20.3674 N   0  0  0  0  0  0
  -26.0773  -17.7682   21.1080 O   0  0  0  0  0  0
  -29.0354  -23.5377   20.0667 O   0  0  0  0  0  0
  -31.4750  -12.4334   19.1711 H   0  0  0  0  0  0
  -30.3327  -11.3094   19.8656 H   0  0  0  0  0  0
  -29.7753  -11.7518   17.4528 H   0  0  0  0  0  0
  -29.6857  -13.4641   17.7688 H   0  0  0  0  0  0
  -27.8323  -11.2833   18.7868 H   0  0  0  0  0  0
  -27.3892  -12.6245   17.7665 H   0  0  0  0  0  0
  -27.6799  -14.2079   19.5548 H   0  0  0  0  0  0
  -28.6896  -11.9569   21.3753 H   0  0  0  0  0  0
  -28.4439  -13.6206   21.8588 H   0  0  0  0  0  0
  -25.2751   -9.5710   22.4683 H   0  0  0  0  0  0
  -23.9987   -7.4688   22.7569 H   0  0  0  0  0  0
  -21.0747   -8.8737   19.9026 H   0  0  0  0  0  0
  -22.3652  -10.9583   19.6133 H   0  0  0  0  0  0
  -21.2137   -7.6203   23.9676 H   0  0  0  0  0  0
  -21.1352   -6.0536   25.9005 H   0  0  0  0  0  0
  -22.0691   -2.7636   23.2755 H   0  0  0  0  0  0
  -22.3999  -11.9737   22.4577 H   0  0  0  0  0  0
  -21.1167  -13.1301   22.2659 H   0  0  0  0  0  0
  -24.6795  -15.7616   20.4430 H   0  0  0  0  0  0
  -26.3423  -15.5669   20.2154 H   0  0  0  0  0  0
  -26.7088  -32.5569   23.1165 H   0  0  0  0  0  0
  -25.0082  -33.9849   25.0477 H   0  0  0  0  0  0
  -22.6811  -31.3134   21.4353 H   0  0  0  0  0  0
  -23.3757  -35.9664   23.3321 H   0  0  0  0  0  0
  -24.3545  -36.8921   22.2031 H   0  0  0  0  0  0
  -23.7238  -37.6549   23.6651 H   0  0  0  0  0  0
  -26.0281  -31.6180   20.5973 H   0  0  0  0  0  0
  -26.8075  -30.8949   21.9830 H   0  0  0  0  0  0
  -28.1089  -29.1557   21.1007 H   0  0  0  0  0  0
  -26.0783  -26.0027   18.9752 H   0  0  0  0  0  0
  -23.9615  -27.2722   19.0757 H   0  0  0  0  0  0
  -23.6811  -30.5923   19.4110 H   0  0  0  0  0  0
  -22.7084  -29.2414   19.8978 H   0  0  0  0  0  0
  -25.1298  -36.2028   25.0806 H   0  0  0  0  0  0
  -20.9849  -28.3203   24.1624 H   0  0  0  0  0  0
  -20.5589  -26.2245   23.3625 H   0  0  0  0  0  0
  -21.6728  -26.7435   22.1529 H   0  0  0  0  0  0
  -19.7077  -25.6449   21.1042 H   0  0  0  0  0  0
  -19.6762  -27.3538   20.7049 H   0  0  0  0  0  0
  -17.4094  -26.6532   21.4509 H   0  0  0  0  0  0
  -18.0725  -26.0324   22.9587 H   0  0  0  0  0  0
  -19.7957  -30.7253   24.2192 H   0  0  0  0  0  0
  -17.5088  -31.6476   24.4920 H   0  0  0  0  0  0
  -15.5377  -30.3057   23.7943 H   0  0  0  0  0  0
  -15.8645  -28.0760   22.7485 H   0  0  0  0  0  0
  -24.5922  -30.7070   25.7884 H   0  0  0  0  0  0
  -24.9049  -32.2813   26.5097 H   0  0  0  0  0  0
  -25.8153  -30.8761   27.0175 H   0  0  0  0  0  0
  -26.2785  -29.6846   24.1128 H   0  0  0  0  0  0
  -27.3934  -29.7257   25.4570 H   0  0  0  0  0  0
  -27.8661  -30.4336   23.9259 H   0  0  0  0  0  0
  -27.2616  -33.3553   26.2200 H   0  0  0  0  0  0
  -28.3792  -32.6955   25.0348 H   0  0  0  0  0  0
  -28.0761  -31.8407   26.5342 H   0  0  0  0  0  0
  -28.2624  -38.0093   24.7493 H   0  0  0  0  0  0
  -28.1070  -36.2615   24.6312 H   0  0  0  0  0  0
  -27.2275  -37.1474   25.8846 H   0  0  0  0  0  0
  -20.9165  -29.9178   21.7625 H   0  0  0  0  0  0
  -26.0210  -38.2900   24.1400 H   0  0  0  0  0  0
  -25.0165  -20.1105   20.2788 H   0  0  0  0  0  0
  -28.3160  -17.6859   18.9473 H   0  0  0  0  0  0
  -29.8002  -18.6369   19.0011 H   0  0  0  0  0  0
  -31.1308  -16.7108   19.1417 H   0  0  0  0  0  0
  -29.7750  -15.9844   18.2844 H   0  0  0  0  0  0
  -27.9220  -16.0760   21.2007 H   0  0  0  0  0  0
  -29.2132  -16.1876   22.3771 H   0  0  0  0  0  0
  -30.1426  -18.1160   21.2849 H   0  0  0  0  0  0
  -25.2032  -22.2259   19.1346 H   0  0  0  0  0  0
  -26.5509  -23.2755   19.4664 H   0  0  0  0  0  0
  -25.3304  -23.0214   20.7199 H   0  0  0  0  0  0
  -30.3869  -19.6210   22.6990 H   0  0  0  0  0  0
  -30.0061  -21.2438   22.9261 H   0  0  0  0  0  0
  -30.8608  -20.7848   21.4360 H   0  0  0  0  0  0
  -24.2217  -16.9451   21.6191 H   0  0  0  0  0  0
  -24.2610  -17.8563   20.1105 H   0  0  0  0  0  0
  -24.2238  -18.6728   21.6865 H   0  0  0  0  0  0
  -29.1920  -22.9868   22.0725 H   0  0  0  0  0  0
  -27.6387  -23.4899   21.5593 H   0  0  0  0  0  0
  -29.3345  -26.5039   21.6242 H   0  0  0  0  0  0
  -27.8876  -25.5466   21.4245 H   0  0  0  0  0  0
  -30.4942  -24.6025   21.0440 H   0  0  0  0  0  0
  -30.1751  -25.1315   19.4302 H   0  0  0  0  0  0
  1 25  1  0  0  0
  1 30  2  0  0  0
  1 87  1  0  0  0
  2  3  1  0  0  0
  2 25  1  0  0  0
  2 90  1  0  0  0
  2 91  1  0  0  0
  3  4  1  0  0  0
  3 92  1  0  0  0
  3 93  1  0  0  0
  4  5  1  0  0  0
  4 94  1  0  0  0
  4 95  1  0  0  0
  5  6  1  0  0  0
  5 26  1  0  0  0
  5 96  1  0  0  0
  6 25  1  0  0  0
  6 97  1  0  0  0
  6 98  1  0  0  0
  7  8  2  0  0  0
  7 26  1  0  0  0
  7 29  1  0  0  0
  8  9  1  0  0  0
  8 22  1  0  0  0
  9 10  1  0  0  0
  9 27  2  0  0  0
 10 11  2  0  0  0
 10 15  1  0  0  0
 11 12  1  0  0  0
 11 99  1  0  0  0
 12 13  2  0  0  0
 12100  1  0  0  0
 13 14  1  0  0  0
 13 31  1  0  0  0
 14 15  2  0  0  0
 14101  1  0  0  0
 15102  1  0  0  0
 16 17  2  0  0  0
 16 21  1  0  0  0
 16 31  1  0  0  0
 17 18  1  0  0  0
 17103  1  0  0  0
 18 19  2  0  0  0
 18104  1  0  0  0
 19 20  1  0  0  0
 19 24  1  0  0  0
 20 21  2  0  0  0
 20105  1  0  0  0
 21 23  1  0  0  0
 22 28  1  0  0  0
 22 32  2  0  0  0
 26 27  1  0  0  0
 28106  1  0  0  0
 28107  1  0  0  0
 29108  1  0  0  0
 29109  1  0  0  0
 33 34  1  0  0  0
 33 66  1  0  0  0
 33 70  2  0  0  0
 34 36  1  0  0  0
 34 59  1  0  0  0
 34110  1  0  0  0
 35 44  2  0  0  0
 35 45  1  0  0  0
 35 68  1  0  0  0
 36 56  1  0  0  0
 36111  1  0  0  0
 37 39  1  0  0  0
 37 47  1  0  0  0
 37 66  1  0  0  0
 37112  1  0  0  0
 38 43  2  0  0  0
 38 46  1  0  0  0
 38 47  1  0  0  0
 39 64  1  0  0  0
 39 67  2  0  0  0
 40 52  1  0  0  0
 40 53  2  0  0  0
 40 58  1  0  0  0
 41113  1  0  0  0
 41114  1  0  0  0
 41115  1  0  0  0
 41 48  1  0  0  0
 42 43  1  0  0  0
 42 66  1  0  0  0
 42116  1  0  0  0
 42117  1  0  0  0
 43 44  1  0  0  0
 44118  1  0  0  0
 45 46  2  0  0  0
 45119  1  0  0  0
 46120  1  0  0  0
 47121  1  0  0  0
 47122  1  0  0  0
 48 56  1  0  0  0
 48 65  1  0  0  0
 48123  1  0  0  0
 49 50  1  0  0  0
 49 53  1  0  0  0
 49 64  1  0  0  0
 49124  1  0  0  0
 50 51  1  0  0  0
 50125  1  0  0  0
 50126  1  0  0  0
 51 52  1  0  0  0
 51127  1  0  0  0
 51128  1  0  0  0
 52129  1  0  0  0
 52130  1  0  0  0
 53 54  1  0  0  0
 54 55  2  0  0  0
 54131  1  0  0  0
 55 57  1  0  0  0
 55132  1  0  0  0
 56 69  2  0  0  0
 57 58  2  0  0  0
 57133  1  0  0  0
 58134  1  0  0  0
 59 60  1  0  0  0
 59 61  1  0  0  0
 59 62  1  0  0  0
 60135  1  0  0  0
 60136  1  0  0  0
 60137  1  0  0  0
 61138  1  0  0  0
 61139  1  0  0  0
 61140  1  0  0  0
 62141  1  0  0  0
 62142  1  0  0  0
 62143  1  0  0  0
 63 65  1  0  0  0
 63144  1  0  0  0
 63145  1  0  0  0
 63146  1  0  0  0
 64147  1  0  0  0
 65148  1  0  0  0
 68 85  1  0  0  0
 71 73  2  0  0  0
 71 76  1  0  0  0
 71149  1  0  0  0
 72 74  1  0  0  0
 72 76  2  0  0  0
 72 80  1  0  0  0
 73 75  1  0  0  0
 73 81  1  0  0  0
 74 75  2  0  0  0
 74 82  1  0  0  0
 75 84  1  0  0  0
 76 88  1  0  0  0
 77 78  1  0  0  0
 77 80  1  0  0  0
 77150  1  0  0  0
 77151  1  0  0  0
 78 87  1  0  0  0
 78152  1  0  0  0
 78153  1  0  0  0
 79 80  1  0  0  0
 79 87  1  0  0  0
 79154  1  0  0  0
 79155  1  0  0  0
 80156  1  0  0  0
 81157  1  0  0  0
 81158  1  0  0  0
 81159  1  0  0  0
 82160  1  0  0  0
 82161  1  0  0  0
 82162  1  0  0  0
 83 88  1  0  0  0
 83163  1  0  0  0
 83164  1  0  0  0
 83165  1  0  0  0
 84 89  1  0  0  0
 84166  1  0  0  0
 84167  1  0  0  0
 85 86  1  0  0  0
 85168  1  0  0  0
 85169  1  0  0  0
 86 89  1  0  0  0
 86170  1  0  0  0
 86171  1  0  0  0
M  ISO  4   1 100  68 101  85 101  87 100
M  END
> <chiral flag>
0

> <version>
0

> <s_m_source_file>
/data/baiqing/PycharmProjects/Reinvent-master-3.2/result/LINK_invent/BTK/process_docking_weight1_custom_sum_contain_oxygen_bond_distance_aromatic_linkinvent_7_9_3/rearranged_h_0156.sdf

> <i_m_source_file_index>
32

> <r_mmod_Potential_Energy-OPLS-2005>
379.813781738281

> <r_mmod_Stretch_Energy-OPLS-2005>
51.1246299743652

> <r_mmod_Bend_Energy-OPLS-2005>
160.717330932617

> <r_mmod_Torsional_Energy-OPLS-2005>
425.415405273438

> <r_mmod_Improper_Torsional_Energy-OPLS-2005>
27.0042781829834

> <r_mmod_Van_der_Waal_Energy-OPLS-2005>
174.994262695312

> <r_mmod_Electrostatic_Energy-OPLS-2005>
-290.590576171875

> <r_mmod_Solvation_Energy-OPLS-2005>
-194.958282470703

> <b_mmod_Minimization_Converged-OPLS-2005>
0

> <r_mmod_RMS_Derivative-OPLS-2005>
10.8192501068115

$$$$
32
                    3D
 Structure written by MMmdl.
167176  0  0  1  0            999 V2000
  -30.6260  -14.6992   20.4374 C   0  0  0  0  0  0
  -30.4267  -12.4181   19.4623 C   0  0  0  0  0  0
  -29.5030  -12.4819   18.2268 C   0  0  0  0  0  0
  -28.0261  -12.3212   18.6398 C   0  0  0  0  0  0
  -27.6376  -13.2242   19.8385 C   0  0  2  0  0  0
  -28.6839  -13.1596   20.9723 C   0  0  0  0  0  0
  -25.2538  -13.8177   20.5689 C   0  0  0  0  0  0
  -24.1827  -13.0435   20.9189 C   0  0  0  0  0  0
  -24.6397  -11.6911   20.8708 C   0  0  0  0  0  0
  -23.9075  -10.4294   21.0397 C   0  0  0  0  0  0
  -24.3626   -9.4201   21.9174 C   0  0  0  0  0  0
  -23.6295   -8.2233   22.0765 C   0  0  0  0  0  0
  -22.4271   -8.0280   21.3557 C   0  0  0  0  0  0
  -21.9906   -9.0247   20.4644 C   0  0  0  0  0  0
  -22.7240  -10.2129   20.3048 C   0  0  0  0  0  0
  -21.6850   -6.0738   22.5280 C   0  0  0  0  0  0
  -21.4009   -6.5641   23.8212 C   0  0  0  0  0  0
  -21.3655   -5.6789   24.9167 C   0  0  0  0  0  0
  -21.6043   -4.3058   24.7213 C   0  0  0  0  0  0
  -21.8818   -3.8151   23.4336 C   0  0  0  0  0  0
  -21.9188   -4.6968   22.3390 C   0  0  0  0  0  0
  -22.7851  -13.5226   21.1828 C   0  0  0  0  0  0
  -22.1657   -4.2164   21.0959 F   0  0  0  0  0  0
  -21.5627   -3.4530   25.7717 F   0  0  0  0  0  0
  -29.9877  -13.4867   20.3862 N   0  0  0  0  0  0
  -26.2943  -12.9374   20.3224 N   0  0  0  0  0  0
  -25.9334  -11.6538   20.5729 N   0  0  0  0  0  0
  -22.0491  -12.8233   22.0401 N   0  0  0  0  0  0
  -25.4166  -15.1883   20.4114 N   0  0  0  0  0  0
  -31.8222  -14.7850   20.1448 O   0  0  0  0  0  0
  -21.6632   -6.8879   21.4253 O   0  0  0  0  0  0
  -22.3528  -14.5524   20.6669 O   0  0  0  0  0  0
  -24.6295  -31.8539   23.2010 C   0  0  0  0  0  0
  -25.9134  -32.4773   23.8356 C   0  0  1  0  0  0
  -27.2139  -27.2901   20.1372 C   0  0  0  0  0  0
  -25.5955  -33.8582   24.2328 N   0  0  0  0  0  0
  -23.4221  -30.4728   21.5434 C   0  0  2  0  0  0
  -24.8718  -28.9349   20.0907 C   0  0  0  0  0  0
  -22.7472  -29.4557   22.4972 C   0  0  0  0  0  0
  -18.0247  -28.1475   22.8564 C   0  0  0  0  0  0
  -24.1495  -36.7291   23.2647 C   0  0  0  0  0  0
  -25.9667  -30.7791   21.3783 C   0  0  0  0  0  0
  -26.0323  -29.4064   20.7120 C   0  0  0  0  0  0
  -27.2030  -28.5925   20.7282 C   0  0  0  0  0  0
  -26.0455  -26.8808   19.4647 C   0  0  0  0  0  0
  -24.8840  -27.6815   19.4553 C   0  0  0  0  0  0
  -23.6397  -29.8173   20.1522 C   0  0  0  0  0  0
  -25.4119  -36.3096   24.0364 C   0  0  1  0  0  0
  -20.5859  -28.3679   23.1390 C   0  0  2  0  0  0
  -20.6696  -26.9415   22.5514 C   0  0  0  0  0  0
  -19.5800  -26.6704   21.5103 C   0  0  0  0  0  0
  -18.1899  -26.8143   22.1375 C   0  0  0  0  0  0
  -19.1525  -28.8871   23.3000 C   0  0  0  0  0  0
  -18.9445  -30.1374   23.9219 C   0  0  0  0  0  0
  -17.6438  -30.6564   24.0848 C   0  0  0  0  0  0
  -25.9060  -34.9460   23.5158 C   0  0  0  0  0  0
  -16.5348  -29.9157   23.6501 C   0  0  0  0  0  0
  -16.7248  -28.6578   23.0456 C   0  0  0  0  0  0
  -26.4488  -31.6576   25.0750 C   0  0  0  0  0  0
  -25.3711  -31.3678   26.1487 C   0  0  0  0  0  0
  -27.0357  -30.3003   24.6225 C   0  0  0  0  0  0
  -27.6040  -32.4323   25.7515 C   0  0  0  0  0  0
  -27.5590  -37.1803   24.8476 C   0  0  0  0  0  0
  -21.4156  -29.3038   22.3780 N   0  0  0  0  0  0
  -26.4297  -37.3785   23.9436 N   0  0  0  0  0  0
  -24.6919  -31.0516   22.0972 N   0  0  0  0  0  0
  -23.4186  -28.8111   23.3064 O   0  0  0  0  0  0
  -28.3189  -26.4461   20.3154 O   0  0  0  0  0  0
  -26.5597  -34.8928   22.4693 O   0  0  0  0  0  0
  -23.5448  -32.1330   23.7327 O   0  0  0  0  0  0
  -29.5947  -19.6160   19.4279 C   0  0  0  0  0  0
  -28.7611  -18.8786   21.5367 C   0  0  0  0  0  0
  -29.0083  -20.9133   19.6199 C   0  0  0  0  0  0
  -28.3308  -21.2589   20.8181 C   0  0  0  0  0  0
  -29.5116  -18.5615   20.3835 C   0  0  0  0  0  0
  -28.2049  -20.1861   21.7639 C   0  0  0  0  0  0
  -29.0659  -21.9527   18.5118 C   0  0  0  0  0  0
  -27.7831  -22.7505   21.0442 C   0  0  1  0  0  0
  -27.6820  -23.7499   19.7810 C   0  0  2  0  0  0
  -27.8047  -22.8508   18.5120 C   0  0  1  0  0  0
  -26.3769  -22.7632   21.6990 C   0  0  0  0  0  0
  -26.5735  -19.4499   23.3075 C   0  0  0  0  0  0
  -30.3632  -17.2314   20.2271 C   0  0  0  0  0  0
  -28.5511  -25.1196   19.6879 C   0  0  0  0  0  0
  -29.8626  -15.8417   20.5546 N   0  0  0  0  0  0
  -27.6349  -23.5750   17.2349 N   0  3  0  0  0  0
  -27.5569  -20.4152   22.9510 O   0  0  0  0  0  0
  -31.4656  -12.5378   19.1500 H   0  0  0  0  0  0
  -30.3629  -11.4444   19.9495 H   0  0  0  0  0  0
  -29.7784  -11.7013   17.5150 H   0  0  0  0  0  0
  -29.6429  -13.4320   17.7054 H   0  0  0  0  0  0
  -27.8755  -11.2750   18.9031 H   0  0  0  0  0  0
  -27.3719  -12.5170   17.7882 H   0  0  0  0  0  0
  -27.6280  -14.2412   19.4482 H   0  0  0  0  0  0
  -28.7145  -12.1664   21.4244 H   0  0  0  0  0  0
  -28.4278  -13.8557   21.7752 H   0  0  0  0  0  0
  -25.2774   -9.5669   22.4751 H   0  0  0  0  0  0
  -23.9997   -7.4627   22.7492 H   0  0  0  0  0  0
  -21.0833   -8.8744   19.8957 H   0  0  0  0  0  0
  -22.3675  -10.9663   19.6152 H   0  0  0  0  0  0
  -21.2010   -7.6150   23.9717 H   0  0  0  0  0  0
  -21.1481   -6.0513   25.9064 H   0  0  0  0  0  0
  -22.0614   -2.7625   23.2804 H   0  0  0  0  0  0
  -22.4112  -11.9914   22.4817 H   0  0  0  0  0  0
  -21.1105  -13.1289   22.2571 H   0  0  0  0  0  0
  -24.6355  -15.8278   20.4994 H   0  0  0  0  0  0
  -26.2517  -15.6392   20.0612 H   0  0  0  0  0  0
  -26.7201  -32.5432   23.1086 H   0  0  0  0  0  0
  -25.0161  -33.9723   25.0522 H   0  0  0  0  0  0
  -22.7172  -31.2963   21.4075 H   0  0  0  0  0  0
  -23.3785  -35.9587   23.3297 H   0  0  0  0  0  0
  -24.3572  -36.8892   22.2050 H   0  0  0  0  0  0
  -23.7219  -37.6487   23.6661 H   0  0  0  0  0  0
  -26.1139  -31.5450   20.6129 H   0  0  0  0  0  0
  -26.8421  -30.8169   22.0189 H   0  0  0  0  0  0
  -28.0860  -28.9494   21.2382 H   0  0  0  0  0  0
  -25.9911  -25.9260   18.9668 H   0  0  0  0  0  0
  -23.9955  -27.3228   18.9556 H   0  0  0  0  0  0
  -22.7585  -29.2511   19.8409 H   0  0  0  0  0  0
  -23.7671  -30.6093   19.4135 H   0  0  0  0  0  0
  -25.1282  -36.1950   25.0850 H   0  0  0  0  0  0
  -20.9922  -28.3210   24.1504 H   0  0  0  0  0  0
  -20.5195  -26.2380   23.3694 H   0  0  0  0  0  0
  -21.6615  -26.7137   22.1574 H   0  0  0  0  0  0
  -19.7025  -25.6820   21.0618 H   0  0  0  0  0  0
  -19.6791  -27.3845   20.6967 H   0  0  0  0  0  0
  -17.4245  -26.7212   21.3680 H   0  0  0  0  0  0
  -18.0061  -26.0008   22.8414 H   0  0  0  0  0  0
  -19.7909  -30.7060   24.2821 H   0  0  0  0  0  0
  -17.5019  -31.6168   24.5669 H   0  0  0  0  0  0
  -15.5360  -30.3096   23.7841 H   0  0  0  0  0  0
  -15.8616  -28.0953   22.7161 H   0  0  0  0  0  0
  -24.5904  -30.7009   25.7815 H   0  0  0  0  0  0
  -24.8889  -32.2821   26.4962 H   0  0  0  0  0  0
  -25.8055  -30.8820   27.0239 H   0  0  0  0  0  0
  -26.2944  -29.6726   24.1272 H   0  0  0  0  0  0
  -27.4062  -29.7301   25.4754 H   0  0  0  0  0  0
  -27.8811  -30.4310   23.9471 H   0  0  0  0  0  0
  -27.2662  -33.3629   26.2091 H   0  0  0  0  0  0
  -28.3841  -32.6864   25.0332 H   0  0  0  0  0  0
  -28.0745  -31.8458   26.5411 H   0  0  0  0  0  0
  -28.2613  -38.0089   24.7535 H   0  0  0  0  0  0
  -28.1077  -36.2635   24.6295 H   0  0  0  0  0  0
  -27.2315  -37.1444   25.8870 H   0  0  0  0  0  0
  -20.9222  -29.8798   21.7080 H   0  0  0  0  0  0
  -26.0197  -38.2872   24.1374 H   0  0  0  0  0  0
  -30.1502  -19.4338   18.5187 H   0  0  0  0  0  0
  -28.6703  -18.1113   22.2881 H   0  0  0  0  0  0
  -29.1365  -21.4235   17.5605 H   0  0  0  0  0  0
  -29.9731  -22.5526   18.6284 H   0  0  0  0  0  0
  -28.4522  -23.2132   21.7692 H   0  0  0  0  0  0
  -26.6511  -24.0935   19.7278 H   0  0  0  0  0  0
  -26.9496  -22.1718   18.5343 H   0  0  0  0  0  0
  -25.6623  -22.2045   21.0967 H   0  0  0  0  0  0
  -25.9856  -23.7735   21.8012 H   0  0  0  0  0  0
  -26.3531  -22.3521   22.7020 H   0  0  0  0  0  0
  -25.9144  -19.2055   22.4705 H   0  0  0  0  0  0
  -25.9413  -19.8509   24.0921 H   0  0  0  0  0  0
  -27.0157  -18.5277   23.6923 H   0  0  0  0  0  0
  -31.2652  -17.3884   20.8213 H   0  0  0  0  0  0
  -30.7187  -17.1985   19.1948 H   0  0  0  0  0  0
  -28.6727  -25.3934   18.6404 H   0  0  0  0  0  0
  -29.5640  -24.8572   19.9917 H   0  0  0  0  0  0
  -28.8732  -15.7267   20.6996 H   0  0  0  0  0  0
  -28.3315  -24.2855   17.1007 H   0  0  0  0  0  0
  -26.7225  -23.9958   17.1774 H   0  0  0  0  0  0
  -27.7074  -22.9255   16.4721 H   0  0  0  0  0  0
  1 25  1  0  0  0
  1 30  2  0  0  0
  1 85  1  0  0  0
  2  3  1  0  0  0
  2 25  1  0  0  0
  2 88  1  0  0  0
  2 89  1  0  0  0
  3  4  1  0  0  0
  3 90  1  0  0  0
  3 91  1  0  0  0
  4  5  1  0  0  0
  4 92  1  0  0  0
  4 93  1  0  0  0
  5  6  1  0  0  0
  5 26  1  0  0  0
  5 94  1  0  0  0
  6 25  1  0  0  0
  6 95  1  0  0  0
  6 96  1  0  0  0
  7  8  2  0  0  0
  7 26  1  0  0  0
  7 29  1  0  0  0
  8  9  1  0  0  0
  8 22  1  0  0  0
  9 10  1  0  0  0
  9 27  2  0  0  0
 10 11  2  0  0  0
 10 15  1  0  0  0
 11 12  1  0  0  0
 11 97  1  0  0  0
 12 13  2  0  0  0
 12 98  1  0  0  0
 13 14  1  0  0  0
 13 31  1  0  0  0
 14 15  2  0  0  0
 14 99  1  0  0  0
 15100  1  0  0  0
 16 17  2  0  0  0
 16 21  1  0  0  0
 16 31  1  0  0  0
 17 18  1  0  0  0
 17101  1  0  0  0
 18 19  2  0  0  0
 18102  1  0  0  0
 19 20  1  0  0  0
 19 24  1  0  0  0
 20 21  2  0  0  0
 20103  1  0  0  0
 21 23  1  0  0  0
 22 28  1  0  0  0
 22 32  2  0  0  0
 26 27  1  0  0  0
 28104  1  0  0  0
 28105  1  0  0  0
 29106  1  0  0  0
 29107  1  0  0  0
 33 34  1  0  0  0
 33 66  1  0  0  0
 33 70  2  0  0  0
 34 36  1  0  0  0
 34 59  1  0  0  0
 34108  1  0  0  0
 35 44  2  0  0  0
 35 45  1  0  0  0
 35 68  1  0  0  0
 36 56  1  0  0  0
 36109  1  0  0  0
 37 39  1  0  0  0
 37 47  1  0  0  0
 37 66  1  0  0  0
 37110  1  0  0  0
 38 43  2  0  0  0
 38 46  1  0  0  0
 38 47  1  0  0  0
 39 64  1  0  0  0
 39 67  2  0  0  0
 40 52  1  0  0  0
 40 53  2  0  0  0
 40 58  1  0  0  0
 41111  1  0  0  0
 41112  1  0  0  0
 41113  1  0  0  0
 41 48  1  0  0  0
 42 43  1  0  0  0
 42 66  1  0  0  0
 42114  1  0  0  0
 42115  1  0  0  0
 43 44  1  0  0  0
 44116  1  0  0  0
 45 46  2  0  0  0
 45117  1  0  0  0
 46118  1  0  0  0
 47119  1  0  0  0
 47120  1  0  0  0
 48 56  1  0  0  0
 48 65  1  0  0  0
 48121  1  0  0  0
 49 50  1  0  0  0
 49 53  1  0  0  0
 49 64  1  0  0  0
 49122  1  0  0  0
 50 51  1  0  0  0
 50123  1  0  0  0
 50124  1  0  0  0
 51 52  1  0  0  0
 51125  1  0  0  0
 51126  1  0  0  0
 52127  1  0  0  0
 52128  1  0  0  0
 53 54  1  0  0  0
 54 55  2  0  0  0
 54129  1  0  0  0
 55 57  1  0  0  0
 55130  1  0  0  0
 56 69  2  0  0  0
 57 58  2  0  0  0
 57131  1  0  0  0
 58132  1  0  0  0
 59 60  1  0  0  0
 59 61  1  0  0  0
 59 62  1  0  0  0
 60133  1  0  0  0
 60134  1  0  0  0
 60135  1  0  0  0
 61136  1  0  0  0
 61137  1  0  0  0
 61138  1  0  0  0
 62139  1  0  0  0
 62140  1  0  0  0
 62141  1  0  0  0
 63 65  1  0  0  0
 63142  1  0  0  0
 63143  1  0  0  0
 63144  1  0  0  0
 64145  1  0  0  0
 65146  1  0  0  0
 68 84  1  0  0  0
 71 73  2  0  0  0
 71 75  1  0  0  0
 71147  1  0  0  0
 72 75  2  0  0  0
 72 76  1  0  0  0
 72148  1  0  0  0
 73 74  1  0  0  0
 73 77  1  0  0  0
 74 76  2  0  0  0
 74 78  1  0  0  0
 75 83  1  0  0  0
 76 87  1  0  0  0
 77 80  1  0  0  0
 77149  1  0  0  0
 77150  1  0  0  0
 78 79  1  0  0  0
 78 81  1  0  0  0
 78151  1  0  0  0
 79 80  1  0  0  0
 79 84  1  0  0  0
 79152  1  0  0  0
 80 86  1  0  0  0
 80153  1  0  0  0
 81154  1  0  0  0
 81155  1  0  0  0
 81156  1  0  0  0
 82 87  1  0  0  0
 82157  1  0  0  0
 82158  1  0  0  0
 82159  1  0  0  0
 83 85  1  0  0  0
 83160  1  0  0  0
 83161  1  0  0  0
 84162  1  0  0  0
 84163  1  0  0  0
 85164  1  0  0  0
 86165  1  0  0  0
 86166  1  0  0  0
 86167  1  0  0  0
M  CHG  1  86   1
M  ISO  4   1 100  68 101  84 101  85 100
M  END
> <chiral flag>
0

> <version>
0

> <s_m_source_file>
/data/baiqing/PycharmProjects/Reinvent-master-3.2/result/LINK_invent/BTK/process_docking_weight1_custom_sum_contain_oxygen_bond_distance_aromatic_linkinvent_7_9_3/rearranged_h_0156.sdf

> <i_m_source_file_index>
33

> <r_mmod_Potential_Energy-OPLS-2005>
-61.6389770507812

> <r_mmod_Stretch_Energy-OPLS-2005>
107.127540588379

> <r_mmod_Bend_Energy-OPLS-2005>
210.713165283203

> <r_mmod_Torsional_Energy-OPLS-2005>
256.165802001953

> <r_mmod_Improper_Torsional_Energy-OPLS-2005>
7.63796377182007

> <r_mmod_Van_der_Waal_Energy-OPLS-2005>
153.270477294922

> <r_mmod_Electrostatic_Energy-OPLS-2005>
-354.887084960938

> <r_mmod_Solvation_Energy-OPLS-2005>
-517.919128417969

> <b_mmod_Minimization_Converged-OPLS-2005>
0

> <r_mmod_RMS_Derivative-OPLS-2005>
7.57172441482544

$$$$
33
                    3D
 Structure written by MMmdl.
162171  0  0  1  0            999 V2000
  -30.5031  -14.8997   20.4362 C   0  0  0  0  0  0
  -30.4503  -12.5554   19.4806 C   0  0  0  0  0  0
  -29.5187  -12.5293   18.2444 C   0  0  0  0  0  0
  -28.0480  -12.3255   18.6585 C   0  0  0  0  0  0
  -27.6374  -13.2345   19.8454 C   0  0  2  0  0  0
  -28.6816  -13.2033   20.9822 C   0  0  0  0  0  0
  -25.2515  -13.8198   20.5712 C   0  0  0  0  0  0
  -24.1814  -13.0435   20.9219 C   0  0  0  0  0  0
  -24.6397  -11.6916   20.8754 C   0  0  0  0  0  0
  -23.9067  -10.4294   21.0408 C   0  0  0  0  0  0
  -24.3629   -9.4215   21.9186 C   0  0  0  0  0  0
  -23.6303   -8.2249   22.0760 C   0  0  0  0  0  0
  -22.4286   -8.0282   21.3552 C   0  0  0  0  0  0
  -21.9923   -9.0254   20.4653 C   0  0  0  0  0  0
  -22.7242  -10.2129   20.3057 C   0  0  0  0  0  0
  -21.6863   -6.0741   22.5277 C   0  0  0  0  0  0
  -21.4013   -6.5647   23.8211 C   0  0  0  0  0  0
  -21.3656   -5.6797   24.9174 C   0  0  0  0  0  0
  -21.6041   -4.3062   24.7225 C   0  0  0  0  0  0
  -21.8818   -3.8150   23.4349 C   0  0  0  0  0  0
  -21.9198   -4.6967   22.3407 C   0  0  0  0  0  0
  -22.7836  -13.5215   21.1887 C   0  0  0  0  0  0
  -22.1666   -4.2153   21.0983 F   0  0  0  0  0  0
  -21.5630   -3.4542   25.7738 F   0  0  0  0  0  0
  -29.9650  -13.6194   20.3996 N   0  0  0  0  0  0
  -26.2921  -12.9395   20.3254 N   0  0  0  0  0  0
  -25.9322  -11.6537   20.5732 N   0  0  0  0  0  0
  -22.0486  -12.8196   22.0430 N   0  0  0  0  0  0
  -25.4175  -15.1920   20.4100 N   0  0  0  0  0  0
  -31.6888  -15.0499   20.1150 O   0  0  0  0  0  0
  -21.6651   -6.8884   21.4242 O   0  0  0  0  0  0
  -22.3526  -14.5532   20.6738 O   0  0  0  0  0  0
  -24.6378  -31.8460   23.1857 C   0  0  0  0  0  0
  -25.9159  -32.4683   23.8241 C   0  0  1  0  0  0
  -27.2255  -27.1655   20.1566 C   0  0  0  0  0  0
  -25.5931  -33.8488   24.2168 N   0  0  0  0  0  0
  -23.4379  -30.4624   21.5325 C   0  0  2  0  0  0
  -24.8852  -28.8754   20.1233 C   0  0  0  0  0  0
  -22.7519  -29.4561   22.4887 C   0  0  0  0  0  0
  -18.0312  -28.1383   22.8479 C   0  0  0  0  0  0
  -24.1500  -36.7230   23.2658 C   0  0  0  0  0  0
  -25.9887  -30.7265   21.3779 C   0  0  0  0  0  0
  -26.0592  -29.3361   20.7313 C   0  0  0  0  0  0
  -27.2300  -28.4978   20.7236 C   0  0  0  0  0  0
  -26.0233  -26.7819   19.5286 C   0  0  0  0  0  0
  -24.8750  -27.6078   19.5117 C   0  0  0  0  0  0
  -23.6619  -29.7778   20.1574 C   0  0  0  0  0  0
  -25.4117  -36.3001   24.0327 C   0  0  1  0  0  0
  -20.5916  -28.3678   23.1263 C   0  0  2  0  0  0
  -20.6799  -26.9390   22.5413 C   0  0  0  0  0  0
  -19.5784  -26.6370   21.5210 C   0  0  0  0  0  0
  -18.1958  -26.7930   22.1618 C   0  0  0  0  0  0
  -19.1571  -28.8844   23.2876 C   0  0  0  0  0  0
  -18.9500  -30.1462   23.8857 C   0  0  0  0  0  0
  -17.6495  -30.6578   24.0548 C   0  0  0  0  0  0
  -25.9071  -34.9391   23.5055 C   0  0  0  0  0  0
  -16.5381  -29.9068   23.6350 C   0  0  0  0  0  0
  -16.7298  -28.6502   23.0346 C   0  0  0  0  0  0
  -26.4497  -31.6552   25.0674 C   0  0  0  0  0  0
  -25.3706  -31.3747   26.1382 C   0  0  0  0  0  0
  -27.0363  -30.2963   24.6220 C   0  0  0  0  0  0
  -27.6023  -32.4305   25.7467 C   0  0  0  0  0  0
  -27.5563  -37.1764   24.8474 C   0  0  0  0  0  0
  -21.4220  -29.3012   22.3622 N   0  0  0  0  0  0
  -26.4275  -37.3709   23.9430 N   0  0  0  0  0  0
  -24.7078  -31.0335   22.0875 N   0  0  0  0  0  0
  -23.4173  -28.8141   23.3058 O   0  0  0  0  0  0
  -28.3546  -26.2894   20.1011 O   0  0  0  0  0  0
  -26.5654  -34.8897   22.4637 O   0  0  0  0  0  0
  -23.5508  -32.1311   23.7110 O   0  0  0  0  0  0
  -30.4759  -18.4731   20.1807 C   0  0  0  0  0  0
  -28.3066  -18.1290   21.0045 C   0  0  0  0  0  0
  -29.0055  -20.5583   20.6223 C   0  0  0  0  0  0
  -30.2384  -19.9172   20.1937 C   0  0  0  0  0  0
  -29.5224  -17.4922   20.6056 C   0  0  0  0  0  0
  -28.0425  -19.5614   21.0393 C   0  0  0  0  0  0
  -27.6281  -22.7290   21.7263 C   0  0  0  0  0  0
  -28.7527  -23.4300   19.7764 C   0  0  0  0  0  0
  -28.8195  -22.2078   20.8556 C   0  0  2  0  0  0
  -27.5209  -24.3038   21.6878 C   0  0  2  0  0  0
  -28.4707  -24.8238   20.5860 C   0  0  2  0  0  0
  -31.4145  -20.7873   19.7892 C   0  0  0  0  0  0
  -25.9062  -19.1113   22.0979 C   0  0  0  0  0  0
  -29.6123  -15.9679   20.6838 N   0  0  0  0  0  0
  -27.9115  -24.8351   22.9432 O   0  0  0  0  0  0
  -26.8366  -20.0275   21.5252 O   0  0  0  0  0  0
  -31.4810  -12.7321   19.1682 H   0  0  0  0  0  0
  -30.4516  -11.5879   19.9839 H   0  0  0  0  0  0
  -29.8232  -11.7371   17.5587 H   0  0  0  0  0  0
  -29.6156  -13.4653   17.6916 H   0  0  0  0  0  0
  -27.9239  -11.2781   18.9360 H   0  0  0  0  0  0
  -27.3881  -12.4932   17.8066 H   0  0  0  0  0  0
  -27.6148  -14.2473   19.4436 H   0  0  0  0  0  0
  -28.7600  -12.2063   21.4171 H   0  0  0  0  0  0
  -28.3881  -13.8688   21.7963 H   0  0  0  0  0  0
  -25.2767   -9.5699   22.4773 H   0  0  0  0  0  0
  -24.0015   -7.4639   22.7480 H   0  0  0  0  0  0
  -21.0856   -8.8758   19.8955 H   0  0  0  0  0  0
  -22.3687  -10.9678   19.6175 H   0  0  0  0  0  0
  -21.1998   -7.6151   23.9714 H   0  0  0  0  0  0
  -21.1480   -6.0532   25.9079 H   0  0  0  0  0  0
  -22.0602   -2.7614   23.2846 H   0  0  0  0  0  0
  -22.4109  -11.9830   22.4772 H   0  0  0  0  0  0
  -21.1103  -13.1219   22.2657 H   0  0  0  0  0  0
  -24.6249  -15.8218   20.4718 H   0  0  0  0  0  0
  -26.2224  -15.6154   19.9677 H   0  0  0  0  0  0
  -26.7194  -32.5289   23.0945 H   0  0  0  0  0  0
  -25.0088  -33.9611   25.0328 H   0  0  0  0  0  0
  -22.7402  -31.2869   21.3713 H   0  0  0  0  0  0
  -23.3762  -35.9564   23.3304 H   0  0  0  0  0  0
  -24.3615  -36.8884   22.2082 H   0  0  0  0  0  0
  -23.7262  -37.6438   23.6689 H   0  0  0  0  0  0
  -26.1396  -31.4757   20.5989 H   0  0  0  0  0  0
  -26.8626  -30.7787   22.0158 H   0  0  0  0  0  0
  -28.1357  -28.8594   21.1887 H   0  0  0  0  0  0
  -25.9686  -25.8158   19.0445 H   0  0  0  0  0  0
  -23.9729  -27.2493   19.0362 H   0  0  0  0  0  0
  -23.7948  -30.5434   19.3917 H   0  0  0  0  0  0
  -22.7753  -29.2181   19.8525 H   0  0  0  0  0  0
  -25.1312  -36.1803   25.0808 H   0  0  0  0  0  0
  -21.0021  -28.3232   24.1377 H   0  0  0  0  0  0
  -20.5713  -26.2258   23.3606 H   0  0  0  0  0  0
  -21.6661  -26.7412   22.1189 H   0  0  0  0  0  0
  -19.6954  -25.6281   21.1239 H   0  0  0  0  0  0
  -19.6742  -27.3173   20.6733 H   0  0  0  0  0  0
  -17.4234  -26.6691   21.4008 H   0  0  0  0  0  0
  -18.0341  -26.0070   22.9011 H   0  0  0  0  0  0
  -19.7981  -30.7310   24.2163 H   0  0  0  0  0  0
  -17.5059  -31.6258   24.5157 H   0  0  0  0  0  0
  -15.5384  -30.2958   23.7710 H   0  0  0  0  0  0
  -15.8705  -28.0825   22.7036 H   0  0  0  0  0  0
  -24.5905  -30.7052   25.7731 H   0  0  0  0  0  0
  -24.8872  -32.2939   26.4712 H   0  0  0  0  0  0
  -25.8011  -30.9016   27.0224 H   0  0  0  0  0  0
  -26.2968  -29.6679   24.1238 H   0  0  0  0  0  0
  -27.4050  -29.7237   25.4757 H   0  0  0  0  0  0
  -27.8827  -30.4254   23.9467 H   0  0  0  0  0  0
  -27.2615  -33.3647   26.1941 H   0  0  0  0  0  0
  -28.3873  -32.6798   25.0312 H   0  0  0  0  0  0
  -28.0616  -31.8499   26.5491 H   0  0  0  0  0  0
  -28.2539  -38.0092   24.7492 H   0  0  0  0  0  0
  -28.1093  -36.2614   24.6298 H   0  0  0  0  0  0
  -27.2300  -37.1401   25.8885 H   0  0  0  0  0  0
  -20.9400  -29.8689   21.6790 H   0  0  0  0  0  0
  -26.0135  -38.2782   24.1431 H   0  0  0  0  0  0
  -31.4407  -18.1116   19.8511 H   0  0  0  0  0  0
  -27.5390  -17.4445   21.3290 H   0  0  0  0  0  0
  -27.6651  -22.3397   22.7448 H   0  0  0  0  0  0
  -26.6996  -22.3674   21.2858 H   0  0  0  0  0  0
  -27.9415  -23.2497   19.0696 H   0  0  0  0  0  0
  -29.6667  -23.4993   19.1900 H   0  0  0  0  0  0
  -29.7090  -22.4369   21.4442 H   0  0  0  0  0  0
  -26.4920  -24.6000   21.4749 H   0  0  0  0  0  0
  -29.4365  -24.9300   21.0818 H   0  0  0  0  0  0
  -32.0701  -20.2667   19.0894 H   0  0  0  0  0  0
  -32.0002  -21.0464   20.6719 H   0  0  0  0  0  0
  -31.0966  -21.7080   19.3059 H   0  0  0  0  0  0
  -25.0709  -19.6569   22.5358 H   0  0  0  0  0  0
  -26.3552  -18.5201   22.8983 H   0  0  0  0  0  0
  -25.4977  -18.4441   21.3372 H   0  0  0  0  0  0
  -28.7320  -15.5659   20.9692 H   0  0  0  0  0  0
  -27.8637  -25.7857   22.8718 H   0  0  0  0  0  0
  1 25  1  0  0  0
  1 30  2  0  0  0
  1 84  1  0  0  0
  2  3  1  0  0  0
  2 25  1  0  0  0
  2 87  1  0  0  0
  2 88  1  0  0  0
  3  4  1  0  0  0
  3 89  1  0  0  0
  3 90  1  0  0  0
  4  5  1  0  0  0
  4 91  1  0  0  0
  4 92  1  0  0  0
  5  6  1  0  0  0
  5 26  1  0  0  0
  5 93  1  0  0  0
  6 25  1  0  0  0
  6 94  1  0  0  0
  6 95  1  0  0  0
  7  8  2  0  0  0
  7 26  1  0  0  0
  7 29  1  0  0  0
  8  9  1  0  0  0
  8 22  1  0  0  0
  9 10  1  0  0  0
  9 27  2  0  0  0
 10 11  2  0  0  0
 10 15  1  0  0  0
 11 12  1  0  0  0
 11 96  1  0  0  0
 12 13  2  0  0  0
 12 97  1  0  0  0
 13 14  1  0  0  0
 13 31  1  0  0  0
 14 15  2  0  0  0
 14 98  1  0  0  0
 15 99  1  0  0  0
 16 17  2  0  0  0
 16 21  1  0  0  0
 16 31  1  0  0  0
 17 18  1  0  0  0
 17100  1  0  0  0
 18 19  2  0  0  0
 18101  1  0  0  0
 19 20  1  0  0  0
 19 24  1  0  0  0
 20 21  2  0  0  0
 20102  1  0  0  0
 21 23  1  0  0  0
 22 28  1  0  0  0
 22 32  2  0  0  0
 26 27  1  0  0  0
 28103  1  0  0  0
 28104  1  0  0  0
 29105  1  0  0  0
 29106  1  0  0  0
 33 34  1  0  0  0
 33 66  1  0  0  0
 33 70  2  0  0  0
 34 36  1  0  0  0
 34 59  1  0  0  0
 34107  1  0  0  0
 35 44  2  0  0  0
 35 45  1  0  0  0
 35 68  1  0  0  0
 36 56  1  0  0  0
 36108  1  0  0  0
 37 39  1  0  0  0
 37 47  1  0  0  0
 37 66  1  0  0  0
 37109  1  0  0  0
 38 43  2  0  0  0
 38 46  1  0  0  0
 38 47  1  0  0  0
 39 64  1  0  0  0
 39 67  2  0  0  0
 40 52  1  0  0  0
 40 53  2  0  0  0
 40 58  1  0  0  0
 41110  1  0  0  0
 41111  1  0  0  0
 41112  1  0  0  0
 41 48  1  0  0  0
 42 43  1  0  0  0
 42 66  1  0  0  0
 42113  1  0  0  0
 42114  1  0  0  0
 43 44  1  0  0  0
 44115  1  0  0  0
 45 46  2  0  0  0
 45116  1  0  0  0
 46117  1  0  0  0
 47118  1  0  0  0
 47119  1  0  0  0
 48 56  1  0  0  0
 48 65  1  0  0  0
 48120  1  0  0  0
 49 50  1  0  0  0
 49 53  1  0  0  0
 49 64  1  0  0  0
 49121  1  0  0  0
 50 51  1  0  0  0
 50122  1  0  0  0
 50123  1  0  0  0
 51 52  1  0  0  0
 51124  1  0  0  0
 51125  1  0  0  0
 52126  1  0  0  0
 52127  1  0  0  0
 53 54  1  0  0  0
 54 55  2  0  0  0
 54128  1  0  0  0
 55 57  1  0  0  0
 55129  1  0  0  0
 56 69  2  0  0  0
 57 58  2  0  0  0
 57130  1  0  0  0
 58131  1  0  0  0
 59 60  1  0  0  0
 59 61  1  0  0  0
 59 62  1  0  0  0
 60132  1  0  0  0
 60133  1  0  0  0
 60134  1  0  0  0
 61135  1  0  0  0
 61136  1  0  0  0
 61137  1  0  0  0
 62138  1  0  0  0
 62139  1  0  0  0
 62140  1  0  0  0
 63 65  1  0  0  0
 63141  1  0  0  0
 63142  1  0  0  0
 63143  1  0  0  0
 64144  1  0  0  0
 65145  1  0  0  0
 68 81  1  0  0  0
 71 74  2  0  0  0
 71 75  1  0  0  0
 71146  1  0  0  0
 72 75  2  0  0  0
 72 76  1  0  0  0
 72147  1  0  0  0
 73 74  1  0  0  0
 73 76  2  0  0  0
 73 79  1  0  0  0
 74 82  1  0  0  0
 75 84  1  0  0  0
 76 86  1  0  0  0
 77 79  1  0  0  0
 77 80  1  0  0  0
 77148  1  0  0  0
 77149  1  0  0  0
 78 79  1  0  0  0
 78 81  1  0  0  0
 78150  1  0  0  0
 78151  1  0  0  0
 79152  1  0  0  0
 80 81  1  0  0  0
 80 85  1  0  0  0
 80153  1  0  0  0
 81154  1  0  0  0
 82155  1  0  0  0
 82156  1  0  0  0
 82157  1  0  0  0
 83 86  1  0  0  0
 83158  1  0  0  0
 83159  1  0  0  0
 83160  1  0  0  0
 84161  1  0  0  0
 85162  1  0  0  0
M  ISO  4   1 100  68 101  81 101  84 100
M  END
> <chiral flag>
0

> <version>
0

> <s_m_source_file>
/data/baiqing/PycharmProjects/Reinvent-master-3.2/result/LINK_invent/BTK/process_docking_weight1_custom_sum_contain_oxygen_bond_distance_aromatic_linkinvent_7_9_3/rearranged_h_0156.sdf

> <i_m_source_file_index>
34

> <r_mmod_Potential_Energy-OPLS-2005>
534.762451171875

> <r_mmod_Stretch_Energy-OPLS-2005>
210.616775512695

> <r_mmod_Bend_Energy-OPLS-2005>
349.383270263672

> <r_mmod_Torsional_Energy-OPLS-2005>
277.357849121094

> <r_mmod_Improper_Torsional_Energy-OPLS-2005>
5.96456670761108

> <r_mmod_Van_der_Waal_Energy-OPLS-2005>
134.600799560547

> <r_mmod_Electrostatic_Energy-OPLS-2005>
-372.469909667969

> <r_mmod_Solvation_Energy-OPLS-2005>
-223.83317565918

> <b_mmod_Minimization_Converged-OPLS-2005>
0

> <r_mmod_RMS_Derivative-OPLS-2005>
3.04628777503967

$$$$
34
                    3D
 Structure written by MMmdl.
174183  0  0  1  0            999 V2000
  -30.7083  -14.4848   20.4947 C   0  0  0  0  0  0
  -30.4114  -12.2974   19.4121 C   0  0  0  0  0  0
  -29.4773  -12.4740   18.1977 C   0  0  0  0  0  0
  -28.0033  -12.3197   18.6245 C   0  0  0  0  0  0
  -27.6483  -13.1860   19.8607 C   0  0  2  0  0  0
  -28.7007  -13.0478   20.9817 C   0  0  0  0  0  0
  -25.2591  -13.8125   20.5737 C   0  0  0  0  0  0
  -24.1812  -13.0432   20.9173 C   0  0  0  0  0  0
  -24.6309  -11.6875   20.8734 C   0  0  0  0  0  0
  -23.8977  -10.4260   21.0384 C   0  0  0  0  0  0
  -24.3575   -9.4179   21.9132 C   0  0  0  0  0  0
  -23.6261   -8.2210   22.0725 C   0  0  0  0  0  0
  -22.4253   -8.0198   21.3517 C   0  0  0  0  0  0
  -21.9858   -9.0167   20.4629 C   0  0  0  0  0  0
  -22.7164  -10.2070   20.3020 C   0  0  0  0  0  0
  -21.6836   -6.0674   22.5257 C   0  0  0  0  0  0
  -21.4008   -6.5618   23.8175 C   0  0  0  0  0  0
  -21.3655   -5.6797   24.9157 C   0  0  0  0  0  0
  -21.6059   -4.3057   24.7240 C   0  0  0  0  0  0
  -21.8814   -3.8109   23.4376 C   0  0  0  0  0  0
  -21.9190   -4.6899   22.3413 C   0  0  0  0  0  0
  -22.7835  -13.5199   21.1823 C   0  0  0  0  0  0
  -22.1654   -4.2073   21.0993 F   0  0  0  0  0  0
  -21.5626   -3.4547   25.7765 F   0  0  0  0  0  0
  -30.0245  -13.3143   20.3979 N   0  0  0  0  0  0
  -26.2962  -12.9214   20.3380 N   0  0  0  0  0  0
  -25.9248  -11.6410   20.5808 N   0  0  0  0  0  0
  -22.0533  -12.8162   22.0416 N   0  0  0  0  0  0
  -25.4421  -15.1844   20.4227 N   0  0  0  0  0  0
  -31.8861  -14.6065   20.1451 O   0  0  0  0  0  0
  -21.6616   -6.8801   21.4212 O   0  0  0  0  0  0
  -22.3478  -14.5485   20.6647 O   0  0  0  0  0  0
  -24.6159  -31.8677   23.2102 C   0  0  0  0  0  0
  -25.9041  -32.4811   23.8401 C   0  0  1  0  0  0
  -27.2533  -27.4578   20.0804 C   0  0  0  0  0  0
  -25.5879  -33.8592   24.2350 N   0  0  0  0  0  0
  -23.4040  -30.4925   21.5496 C   0  0  2  0  0  0
  -24.8536  -28.9556   20.1250 C   0  0  0  0  0  0
  -22.7414  -29.4662   22.4976 C   0  0  0  0  0  0
  -18.0264  -28.1389   22.8475 C   0  0  0  0  0  0
  -24.1501  -36.7278   23.2644 C   0  0  0  0  0  0
  -25.9353  -30.8422   21.3612 C   0  0  0  0  0  0
  -26.0189  -29.4810   20.7023 C   0  0  0  0  0  0
  -27.2233  -28.7394   20.6768 C   0  0  0  0  0  0
  -26.0751  -26.9491   19.4968 C   0  0  0  0  0  0
  -24.8725  -27.6793   19.5359 C   0  0  0  0  0  0
  -23.6131  -29.8173   20.1714 C   0  0  0  0  0  0
  -25.4115  -36.3076   24.0361 C   0  0  1  0  0  0
  -20.5848  -28.3666   23.1317 C   0  0  2  0  0  0
  -20.6762  -26.9396   22.5427 C   0  0  0  0  0  0
  -19.5735  -26.6391   21.5218 C   0  0  0  0  0  0
  -18.1909  -26.7926   22.1622 C   0  0  0  0  0  0
  -19.1506  -28.8822   23.2883 C   0  0  0  0  0  0
  -18.9448  -30.1420   23.8909 C   0  0  0  0  0  0
  -17.6457  -30.6576   24.0559 C   0  0  0  0  0  0
  -25.9041  -34.9457   23.5135 C   0  0  0  0  0  0
  -16.5343  -29.9093   23.6313 C   0  0  0  0  0  0
  -16.7251  -28.6498   23.0340 C   0  0  0  0  0  0
  -26.4477  -31.6572   25.0714 C   0  0  0  0  0  0
  -25.3769  -31.3654   26.1482 C   0  0  0  0  0  0
  -27.0360  -30.3012   24.6124 C   0  0  0  0  0  0
  -27.6101  -32.4281   25.7430 C   0  0  0  0  0  0
  -27.5582  -37.1787   24.8473 C   0  0  0  0  0  0
  -21.4124  -29.3011   22.3701 N   0  0  0  0  0  0
  -26.4302  -37.3760   23.9416 N   0  0  0  0  0  0
  -24.6695  -31.0826   22.0975 N   0  0  0  0  0  0
  -23.4159  -28.8221   23.3054 O   0  0  0  0  0  0
  -28.4045  -26.6971   20.0891 O   0  0  0  0  0  0
  -26.5604  -34.8913   22.4703 O   0  0  0  0  0  0
  -23.5331  -32.1420   23.7474 O   0  0  0  0  0  0
  -28.7664  -19.6963   22.6007 C   0  0  0  0  0  0
  -28.9992  -21.0204   20.5774 C   0  0  0  0  0  0
  -29.2558  -19.8244   21.2893 C   0  0  0  0  0  0
  -27.7235  -21.9133   22.4696 C   0  0  0  0  0  0
  -28.0214  -20.7335   23.2064 C   0  0  0  0  0  0
  -28.2346  -22.0628   21.1482 C   0  0  0  0  0  0
  -30.8541  -17.7891   21.5802 C   0  0  0  0  0  0
  -29.0226  -17.7766   19.8261 C   0  0  0  0  0  0
  -30.2362  -16.4057   21.9121 C   0  0  0  0  0  0
  -29.5993  -16.3784   19.5143 C   0  0  0  0  0  0
  -29.9956  -18.6605   20.6203 C   0  0  0  0  0  0
  -27.1419  -23.5350   24.4290 C   0  0  0  0  0  0
  -25.3215  -22.5065   22.9537 C   0  0  0  0  0  0
  -28.3148  -19.8152   25.3936 C   0  0  0  0  0  0
  -28.2962  -25.4844   20.8578 C   0  0  0  0  0  0
  -28.8038  -24.1919   20.1690 C   0  0  0  0  0  0
  -26.7746  -22.9769   23.0399 C   0  0  0  0  0  0
  -29.9601  -15.5917   20.7131 N   0  0  0  0  0  0
  -27.5385  -20.5956   24.4895 O   0  0  0  0  0  0
  -27.8568  -23.1315   20.3591 O   0  0  0  0  0  0
  -31.4550  -12.3879   19.1057 H   0  0  0  0  0  0
  -30.3048  -11.2972   19.8319 H   0  0  0  0  0  0
  -29.7116  -11.7465   17.4184 H   0  0  0  0  0  0
  -29.6360  -13.4603   17.7587 H   0  0  0  0  0  0
  -27.8320  -11.2664   18.8477 H   0  0  0  0  0  0
  -27.3398  -12.5552   17.7901 H   0  0  0  0  0  0
  -27.6596  -14.2128   19.5138 H   0  0  0  0  0  0
  -28.6838  -12.0530   21.4245 H   0  0  0  0  0  0
  -28.4752  -13.7435   21.7907 H   0  0  0  0  0  0
  -25.2718   -9.5664   22.4699 H   0  0  0  0  0  0
  -23.9928   -7.4619   22.7506 H   0  0  0  0  0  0
  -21.0745   -8.8702   19.8973 H   0  0  0  0  0  0
  -22.3582  -10.9593   19.6130 H   0  0  0  0  0  0
  -21.1994   -7.6123   23.9665 H   0  0  0  0  0  0
  -21.1490   -6.0529   25.9069 H   0  0  0  0  0  0
  -22.0602   -2.7554   23.2920 H   0  0  0  0  0  0
  -22.4166  -11.9784   22.4702 H   0  0  0  0  0  0
  -21.1170  -13.1147   22.2732 H   0  0  0  0  0  0
  -24.7002  -15.8640   20.5447 H   0  0  0  0  0  0
  -26.3206  -15.6090   20.1522 H   0  0  0  0  0  0
  -26.7135  -32.5546   23.1187 H   0  0  0  0  0  0
  -25.0025  -33.9762   25.0491 H   0  0  0  0  0  0
  -22.6950  -31.3091   21.4010 H   0  0  0  0  0  0
  -23.3757  -35.9607   23.3311 H   0  0  0  0  0  0
  -24.3597  -36.8861   22.2053 H   0  0  0  0  0  0
  -23.7294  -37.6512   23.6627 H   0  0  0  0  0  0
  -26.0652  -31.6221   20.6077 H   0  0  0  0  0  0
  -26.8169  -30.8814   21.9886 H   0  0  0  0  0  0
  -28.1189  -29.1344   21.1337 H   0  0  0  0  0  0
  -26.0865  -25.9740   19.0293 H   0  0  0  0  0  0
  -23.9701  -27.2538   19.1233 H   0  0  0  0  0  0
  -23.7183  -30.5875   19.4087 H   0  0  0  0  0  0
  -22.7437  -29.2277   19.8757 H   0  0  0  0  0  0
  -25.1296  -36.1933   25.0857 H   0  0  0  0  0  0
  -20.9943  -28.3245   24.1431 H   0  0  0  0  0  0
  -20.5653  -26.2277   23.3617 H   0  0  0  0  0  0
  -21.6649  -26.7445   22.1211 H   0  0  0  0  0  0
  -19.6917  -25.6307   21.1210 H   0  0  0  0  0  0
  -19.6695  -27.3226   20.6759 H   0  0  0  0  0  0
  -17.4194  -26.6650   21.4014 H   0  0  0  0  0  0
  -18.0304  -26.0093   22.9035 H   0  0  0  0  0  0
  -19.7922  -30.7215   24.2321 H   0  0  0  0  0  0
  -17.5015  -31.6262   24.5151 H   0  0  0  0  0  0
  -15.5332  -30.3005   23.7621 H   0  0  0  0  0  0
  -15.8658  -28.0818   22.7076 H   0  0  0  0  0  0
  -24.5917  -30.7039   25.7773 H   0  0  0  0  0  0
  -24.9016  -32.2817   26.4978 H   0  0  0  0  0  0
  -25.8135  -30.8756   27.0206 H   0  0  0  0  0  0
  -26.2922  -29.6701   24.1239 H   0  0  0  0  0  0
  -27.4198  -29.7279   25.4587 H   0  0  0  0  0  0
  -27.8718  -30.4305   23.9245 H   0  0  0  0  0  0
  -27.2735  -33.3541   26.2079 H   0  0  0  0  0  0
  -28.3823  -32.6899   25.0183 H   0  0  0  0  0  0
  -28.0880  -31.8395   26.5264 H   0  0  0  0  0  0
  -28.2613  -38.0069   24.7484 H   0  0  0  0  0  0
  -28.1072  -36.2610   24.6327 H   0  0  0  0  0  0
  -27.2303  -37.1456   25.8878 H   0  0  0  0  0  0
  -20.9293  -29.8686   21.6884 H   0  0  0  0  0  0
  -26.0188  -38.2837   24.1392 H   0  0  0  0  0  0
  -28.9359  -18.7677   23.1281 H   0  0  0  0  0  0
  -29.3426  -21.1172   19.5580 H   0  0  0  0  0  0
  -31.1330  -18.3354   22.4834 H   0  0  0  0  0  0
  -31.8016  -17.5939   21.0790 H   0  0  0  0  0  0
  -28.0927  -17.6544   20.3875 H   0  0  0  0  0  0
  -28.7479  -18.2812   18.8987 H   0  0  0  0  0  0
  -29.3000  -16.5266   22.4520 H   0  0  0  0  0  0
  -30.8987  -15.8683   22.5953 H   0  0  0  0  0  0
  -30.4785  -16.4867   18.8714 H   0  0  0  0  0  0
  -28.8698  -15.8360   18.9197 H   0  0  0  0  0  0
  -30.6891  -19.1221   19.9124 H   0  0  0  0  0  0
  -28.1748  -23.8862   24.4571 H   0  0  0  0  0  0
  -27.0068  -22.8112   25.2293 H   0  0  0  0  0  0
  -26.5027  -24.3850   24.6771 H   0  0  0  0  0  0
  -25.0935  -22.2109   21.9273 H   0  0  0  0  0  0
  -24.6340  -23.3117   23.2200 H   0  0  0  0  0  0
  -25.1282  -21.6500   23.5992 H   0  0  0  0  0  0
  -28.0578  -20.0935   26.4158 H   0  0  0  0  0  0
  -29.3840  -19.9912   25.2749 H   0  0  0  0  0  0
  -28.1197  -18.7474   25.2822 H   0  0  0  0  0  0
  -27.2513  -25.3340   21.1073 H   0  0  0  0  0  0
  -28.8039  -25.6076   21.8150 H   0  0  0  0  0  0
  -28.8898  -24.3647   19.0955 H   0  0  0  0  0  0
  -29.8028  -23.9228   20.5217 H   0  0  0  0  0  0
  -26.8247  -23.8386   22.3980 H   0  0  0  0  0  0
  1 25  1  0  0  0
  1 30  2  0  0  0
  1 88  1  0  0  0
  2  3  1  0  0  0
  2 25  1  0  0  0
  2 91  1  0  0  0
  2 92  1  0  0  0
  3  4  1  0  0  0
  3 93  1  0  0  0
  3 94  1  0  0  0
  4  5  1  0  0  0
  4 95  1  0  0  0
  4 96  1  0  0  0
  5  6  1  0  0  0
  5 26  1  0  0  0
  5 97  1  0  0  0
  6 25  1  0  0  0
  6 98  1  0  0  0
  6 99  1  0  0  0
  7  8  2  0  0  0
  7 26  1  0  0  0
  7 29  1  0  0  0
  8  9  1  0  0  0
  8 22  1  0  0  0
  9 10  1  0  0  0
  9 27  2  0  0  0
 10 11  2  0  0  0
 10 15  1  0  0  0
 11 12  1  0  0  0
 11100  1  0  0  0
 12 13  2  0  0  0
 12101  1  0  0  0
 13 14  1  0  0  0
 13 31  1  0  0  0
 14 15  2  0  0  0
 14102  1  0  0  0
 15103  1  0  0  0
 16 17  2  0  0  0
 16 21  1  0  0  0
 16 31  1  0  0  0
 17 18  1  0  0  0
 17104  1  0  0  0
 18 19  2  0  0  0
 18105  1  0  0  0
 19 20  1  0  0  0
 19 24  1  0  0  0
 20 21  2  0  0  0
 20106  1  0  0  0
 21 23  1  0  0  0
 22 28  1  0  0  0
 22 32  2  0  0  0
 26 27  1  0  0  0
 28107  1  0  0  0
 28108  1  0  0  0
 29109  1  0  0  0
 29110  1  0  0  0
 33 34  1  0  0  0
 33 66  1  0  0  0
 33 70  2  0  0  0
 34 36  1  0  0  0
 34 59  1  0  0  0
 34111  1  0  0  0
 35 44  2  0  0  0
 35 45  1  0  0  0
 35 68  1  0  0  0
 36 56  1  0  0  0
 36112  1  0  0  0
 37 39  1  0  0  0
 37 47  1  0  0  0
 37 66  1  0  0  0
 37113  1  0  0  0
 38 43  2  0  0  0
 38 46  1  0  0  0
 38 47  1  0  0  0
 39 64  1  0  0  0
 39 67  2  0  0  0
 40 52  1  0  0  0
 40 53  2  0  0  0
 40 58  1  0  0  0
 41114  1  0  0  0
 41115  1  0  0  0
 41116  1  0  0  0
 41 48  1  0  0  0
 42 43  1  0  0  0
 42 66  1  0  0  0
 42117  1  0  0  0
 42118  1  0  0  0
 43 44  1  0  0  0
 44119  1  0  0  0
 45 46  2  0  0  0
 45120  1  0  0  0
 46121  1  0  0  0
 47122  1  0  0  0
 47123  1  0  0  0
 48 56  1  0  0  0
 48 65  1  0  0  0
 48124  1  0  0  0
 49 50  1  0  0  0
 49 53  1  0  0  0
 49 64  1  0  0  0
 49125  1  0  0  0
 50 51  1  0  0  0
 50126  1  0  0  0
 50127  1  0  0  0
 51 52  1  0  0  0
 51128  1  0  0  0
 51129  1  0  0  0
 52130  1  0  0  0
 52131  1  0  0  0
 53 54  1  0  0  0
 54 55  2  0  0  0
 54132  1  0  0  0
 55 57  1  0  0  0
 55133  1  0  0  0
 56 69  2  0  0  0
 57 58  2  0  0  0
 57134  1  0  0  0
 58135  1  0  0  0
 59 60  1  0  0  0
 59 61  1  0  0  0
 59 62  1  0  0  0
 60136  1  0  0  0
 60137  1  0  0  0
 60138  1  0  0  0
 61139  1  0  0  0
 61140  1  0  0  0
 61141  1  0  0  0
 62142  1  0  0  0
 62143  1  0  0  0
 62144  1  0  0  0
 63 65  1  0  0  0
 63145  1  0  0  0
 63146  1  0  0  0
 63147  1  0  0  0
 64148  1  0  0  0
 65149  1  0  0  0
 68 85  1  0  0  0
 71 73  2  0  0  0
 71 75  1  0  0  0
 71150  1  0  0  0
 72 73  1  0  0  0
 72 76  2  0  0  0
 72151  1  0  0  0
 73 81  1  0  0  0
 74 75  2  0  0  0
 74 76  1  0  0  0
 74 87  1  0  0  0
 75 89  1  0  0  0
 76 90  1  0  0  0
 77 79  1  0  0  0
 77 81  1  0  0  0
 77152  1  0  0  0
 77153  1  0  0  0
 78 80  1  0  0  0
 78 81  1  0  0  0
 78154  1  0  0  0
 78155  1  0  0  0
 79 88  1  0  0  0
 79156  1  0  0  0
 79157  1  0  0  0
 80 88  1  0  0  0
 80158  1  0  0  0
 80159  1  0  0  0
 81160  1  0  0  0
 82161  1  0  0  0
 82162  1  0  0  0
 82163  1  0  0  0
 82 87  1  0  0  0
 83 87  1  0  0  0
 83164  1  0  0  0
 83165  1  0  0  0
 83166  1  0  0  0
 84 89  1  0  0  0
 84167  1  0  0  0
 84168  1  0  0  0
 84169  1  0  0  0
 85 86  1  0  0  0
 85170  1  0  0  0
 85171  1  0  0  0
 86 90  1  0  0  0
 86172  1  0  0  0
 86173  1  0  0  0
 87174  1  0  0  0
M  ISO  4   1 100  68 101  85 101  88 100
M  END
> <chiral flag>
0

> <version>
0

> <s_m_source_file>
/data/baiqing/PycharmProjects/Reinvent-master-3.2/result/LINK_invent/BTK/process_docking_weight1_custom_sum_contain_oxygen_bond_distance_aromatic_linkinvent_7_9_3/rearranged_h_0156.sdf

> <i_m_source_file_index>
35

> <r_mmod_Potential_Energy-OPLS-2005>
290.843536376953

> <r_mmod_Stretch_Energy-OPLS-2005>
42.472225189209

> <r_mmod_Bend_Energy-OPLS-2005>
110.810958862305

> <r_mmod_Torsional_Energy-OPLS-2005>
414.928527832031

> <r_mmod_Improper_Torsional_Energy-OPLS-2005>
10.8967409133911

> <r_mmod_Van_der_Waal_Energy-OPLS-2005>
168.692337036133

> <r_mmod_Electrostatic_Energy-OPLS-2005>
-283.983612060547

> <r_mmod_Solvation_Energy-OPLS-2005>
-191.442184448242

> <b_mmod_Minimization_Converged-OPLS-2005>
0

> <r_mmod_RMS_Derivative-OPLS-2005>
6.44049310684204

$$$$
35
                    3D
 Structure written by MMmdl.
169178  0  0  1  0            999 V2000
  -30.6193  -14.5680   20.5562 C   0  0  0  0  0  0
  -30.4259  -12.3536   19.4625 C   0  0  0  0  0  0
  -29.5098  -12.5125   18.2292 C   0  0  0  0  0  0
  -28.0263  -12.3644   18.6241 C   0  0  0  0  0  0
  -27.6493  -13.2110   19.8709 C   0  0  2  0  0  0
  -28.6808  -13.0193   21.0049 C   0  0  0  0  0  0
  -25.2398  -13.8101   20.5392 C   0  0  0  0  0  0
  -24.1737  -13.0364   20.9130 C   0  0  0  0  0  0
  -24.6364  -11.6876   20.8769 C   0  0  0  0  0  0
  -23.9047  -10.4267   21.0432 C   0  0  0  0  0  0
  -24.3606   -9.4191   21.9202 C   0  0  0  0  0  0
  -23.6284   -8.2232   22.0761 C   0  0  0  0  0  0
  -22.4274   -8.0274   21.3547 C   0  0  0  0  0  0
  -21.9915   -9.0237   20.4633 C   0  0  0  0  0  0
  -22.7239  -10.2116   20.3053 C   0  0  0  0  0  0
  -21.6850   -6.0729   22.5287 C   0  0  0  0  0  0
  -21.4002   -6.5629   23.8212 C   0  0  0  0  0  0
  -21.3661   -5.6784   24.9171 C   0  0  0  0  0  0
  -21.6050   -4.3054   24.7219 C   0  0  0  0  0  0
  -21.8824   -3.8146   23.4339 C   0  0  0  0  0  0
  -21.9187   -4.6960   22.3402 C   0  0  0  0  0  0
  -22.7781  -13.5185   21.1812 C   0  0  0  0  0  0
  -22.1665   -4.2149   21.0979 F   0  0  0  0  0  0
  -21.5632   -3.4535   25.7732 F   0  0  0  0  0  0
  -30.0031  -13.3528   20.4611 N   0  0  0  0  0  0
  -26.2909  -12.9310   20.3262 N   0  0  0  0  0  0
  -25.9288  -11.6481   20.5797 N   0  0  0  0  0  0
  -22.0433  -12.8175   22.0387 N   0  0  0  0  0  0
  -25.3837  -15.1747   20.3368 N   0  0  0  0  0  0
  -31.7625  -14.7536   20.1275 O   0  0  0  0  0  0
  -21.6635   -6.8866   21.4254 O   0  0  0  0  0  0
  -22.3481  -14.5514   20.6722 O   0  0  0  0  0  0
  -24.6143  -31.8648   23.2064 C   0  0  0  0  0  0
  -25.9006  -32.4801   23.8415 C   0  0  1  0  0  0
  -27.2380  -27.3955   20.1274 C   0  0  0  0  0  0
  -25.5853  -33.8610   24.2321 N   0  0  0  0  0  0
  -23.4085  -30.4814   21.5483 C   0  0  2  0  0  0
  -24.8540  -28.9395   20.1178 C   0  0  0  0  0  0
  -22.7440  -29.4618   22.5010 C   0  0  0  0  0  0
  -18.0261  -28.1375   22.8463 C   0  0  0  0  0  0
  -24.1467  -36.7320   23.2633 C   0  0  0  0  0  0
  -25.9380  -30.8143   21.3685 C   0  0  0  0  0  0
  -26.0142  -29.4487   20.7156 C   0  0  0  0  0  0
  -27.2049  -28.6873   20.7047 C   0  0  0  0  0  0
  -26.0613  -26.9039   19.5186 C   0  0  0  0  0  0
  -24.8753  -27.6705   19.5126 C   0  0  0  0  0  0
  -23.6176  -29.8074   20.1656 C   0  0  0  0  0  0
  -25.4088  -36.3108   24.0331 C   0  0  1  0  0  0
  -20.5856  -28.3673   23.1310 C   0  0  2  0  0  0
  -20.6754  -26.9414   22.5433 C   0  0  0  0  0  0
  -19.5747  -26.6402   21.5204 C   0  0  0  0  0  0
  -18.1897  -26.7932   22.1569 C   0  0  0  0  0  0
  -19.1515  -28.8839   23.2868 C   0  0  0  0  0  0
  -18.9447  -30.1422   23.8910 C   0  0  0  0  0  0
  -17.6461  -30.6580   24.0554 C   0  0  0  0  0  0
  -25.9037  -34.9466   23.5146 C   0  0  0  0  0  0
  -16.5345  -29.9082   23.6339 C   0  0  0  0  0  0
  -16.7259  -28.6495   23.0365 C   0  0  0  0  0  0
  -26.4467  -31.6596   25.0748 C   0  0  0  0  0  0
  -25.3733  -31.3686   26.1498 C   0  0  0  0  0  0
  -27.0329  -30.3028   24.6153 C   0  0  0  0  0  0
  -27.6019  -32.4377   25.7504 C   0  0  0  0  0  0
  -27.5580  -37.1779   24.8438 C   0  0  0  0  0  0
  -21.4171  -29.3021   22.3729 N   0  0  0  0  0  0
  -26.4278  -37.3792   23.9411 N   0  0  0  0  0  0
  -24.6718  -31.0722   22.0979 N   0  0  0  0  0  0
  -23.4172  -28.8169   23.3096 O   0  0  0  0  0  0
  -28.4327  -26.6968   20.1671 O   0  0  0  0  0  0
  -26.5637  -34.8917   22.4715 O   0  0  0  0  0  0
  -23.5319  -32.1435   23.7419 O   0  0  0  0  0  0
  -27.3692  -19.1768   22.5853 C   0  0  0  0  0  0
  -29.5226  -19.5343   20.8581 C   0  0  0  0  0  0
  -27.7768  -20.4822   22.2409 C   0  0  0  0  0  0
  -28.8006  -20.6880   21.3008 C   0  0  0  0  0  0
  -28.0529  -18.0364   22.0930 C   0  0  0  0  0  0
  -29.2020  -18.2005   21.2667 C   0  0  0  0  0  0
  -27.2225  -21.7077   22.9427 C   0  0  0  0  0  0
  -29.0605  -22.1574   20.8083 C   0  0  2  0  0  0
  -28.3674  -22.7291   23.1546 C   0  0  2  0  0  0
  -27.5132  -16.6745   22.4894 C   0  0  0  0  0  0
  -30.4330  -22.2775   20.1170 C   0  0  0  0  0  0
  -28.0034  -23.7891   24.2226 C   0  0  0  0  0  0
  -30.1693  -17.0541   20.8089 C   0  0  0  0  0  0
  -28.0978  -24.5139   21.4058 C   0  0  0  0  0  0
  -28.5008  -25.2508   20.0851 C   0  0  0  0  0  0
  -29.8410  -15.6097   20.9677 N   0  0  0  0  0  0
  -28.8590  -23.2621   21.8368 N   0  3  2  0  0  0
  -31.4730  -12.4693   19.1792 H   0  0  0  0  0  0
  -30.3403  -11.3476   19.8778 H   0  0  0  0  0  0
  -29.7717  -11.7759   17.4693 H   0  0  0  0  0  0
  -29.6731  -13.4907   17.7763 H   0  0  0  0  0  0
  -27.8402  -11.3087   18.8240 H   0  0  0  0  0  0
  -27.3872  -12.6308   17.7813 H   0  0  0  0  0  0
  -27.6847  -14.2551   19.5627 H   0  0  0  0  0  0
  -28.6706  -11.9851   21.3568 H   0  0  0  0  0  0
  -28.4256  -13.6274   21.8750 H   0  0  0  0  0  0
  -25.2736   -9.5685   22.4778 H   0  0  0  0  0  0
  -23.9987   -7.4630   22.7484 H   0  0  0  0  0  0
  -21.0849   -8.8753   19.8919 H   0  0  0  0  0  0
  -22.3702  -10.9658   19.6156 H   0  0  0  0  0  0
  -21.1998   -7.6131   23.9718 H   0  0  0  0  0  0
  -21.1480   -6.0506   25.9071 H   0  0  0  0  0  0
  -22.0601   -2.7608   23.2841 H   0  0  0  0  0  0
  -22.4037  -11.9802   22.4716 H   0  0  0  0  0  0
  -21.1060  -13.1220   22.2593 H   0  0  0  0  0  0
  -24.6036  -15.8147   20.4316 H   0  0  0  0  0  0
  -26.2079  -15.6149   19.9515 H   0  0  0  0  0  0
  -26.7038  -32.5495   23.1153 H   0  0  0  0  0  0
  -24.9961  -33.9780   25.0440 H   0  0  0  0  0  0
  -22.6985  -31.2980   21.4030 H   0  0  0  0  0  0
  -23.3749  -35.9636   23.3288 H   0  0  0  0  0  0
  -24.3570  -36.8983   22.2054 H   0  0  0  0  0  0
  -23.7206  -37.6489   23.6717 H   0  0  0  0  0  0
  -26.0625  -31.5759   20.5991 H   0  0  0  0  0  0
  -26.8179  -30.8623   21.9987 H   0  0  0  0  0  0
  -28.1047  -29.0767   21.1589 H   0  0  0  0  0  0
  -26.0393  -25.9374   19.0382 H   0  0  0  0  0  0
  -23.9836  -27.2709   19.0464 H   0  0  0  0  0  0
  -23.7257  -30.5770   19.4000 H   0  0  0  0  0  0
  -22.7412  -29.2241   19.8786 H   0  0  0  0  0  0
  -25.1252  -36.1992   25.0833 H   0  0  0  0  0  0
  -20.9890  -28.3247   24.1456 H   0  0  0  0  0  0
  -20.5672  -26.2304   23.3634 H   0  0  0  0  0  0
  -21.6625  -26.7477   22.1229 H   0  0  0  0  0  0
  -19.6961  -25.6326   21.1215 H   0  0  0  0  0  0
  -19.6700  -27.3241   20.6743 H   0  0  0  0  0  0
  -17.4221  -26.6726   21.3913 H   0  0  0  0  0  0
  -18.0209  -26.0049   22.8916 H   0  0  0  0  0  0
  -19.7941  -30.7167   24.2346 H   0  0  0  0  0  0
  -17.5044  -31.6273   24.5133 H   0  0  0  0  0  0
  -15.5350  -30.2970   23.7700 H   0  0  0  0  0  0
  -15.8647  -28.0800   22.7121 H   0  0  0  0  0  0
  -24.6030  -30.6872   25.7895 H   0  0  0  0  0  0
  -24.8744  -32.2785   26.4833 H   0  0  0  0  0  0
  -25.8095  -30.9032   27.0346 H   0  0  0  0  0  0
  -26.2887  -29.6755   24.1225 H   0  0  0  0  0  0
  -27.4096  -29.7303   25.4646 H   0  0  0  0  0  0
  -27.8735  -30.4358   23.9331 H   0  0  0  0  0  0
  -27.2624  -33.3708   26.2040 H   0  0  0  0  0  0
  -28.3824  -32.6896   25.0310 H   0  0  0  0  0  0
  -28.0710  -31.8554   26.5449 H   0  0  0  0  0  0
  -28.2533  -38.0124   24.7549 H   0  0  0  0  0  0
  -28.1132  -36.2657   24.6198 H   0  0  0  0  0  0
  -27.2333  -37.1369   25.8842 H   0  0  0  0  0  0
  -20.9386  -29.8770   21.6941 H   0  0  0  0  0  0
  -26.0177  -38.2872   24.1438 H   0  0  0  0  0  0
  -26.5352  -19.0497   23.2635 H   0  0  0  0  0  0
  -30.3650  -19.6555   20.1953 H   0  0  0  0  0  0
  -26.7940  -21.4181   23.9027 H   0  0  0  0  0  0
  -26.4156  -22.1519   22.3579 H   0  0  0  0  0  0
  -28.2965  -22.3268   20.0494 H   0  0  0  0  0  0
  -29.2137  -22.1858   23.5804 H   0  0  0  0  0  0
  -26.5450  -16.7578   22.9895 H   0  0  0  0  0  0
  -28.1939  -16.1407   23.1517 H   0  0  0  0  0  0
  -27.3596  -16.0737   21.5980 H   0  0  0  0  0  0
  -31.2382  -21.9374   20.7672 H   0  0  0  0  0  0
  -30.6763  -23.2864   19.8001 H   0  0  0  0  0  0
  -30.4619  -21.6680   19.2141 H   0  0  0  0  0  0
  -27.0038  -24.1931   24.0578 H   0  0  0  0  0  0
  -28.7105  -24.6180   24.2608 H   0  0  0  0  0  0
  -28.0065  -23.3474   25.2188 H   0  0  0  0  0  0
  -31.1123  -17.2244   21.3313 H   0  0  0  0  0  0
  -30.3862  -17.2186   19.7517 H   0  0  0  0  0  0
  -27.0212  -24.3247   21.4241 H   0  0  0  0  0  0
  -28.2738  -25.2730   22.1690 H   0  0  0  0  0  0
  -27.9804  -24.8593   19.2123 H   0  0  0  0  0  0
  -29.5580  -25.0856   19.8998 H   0  0  0  0  0  0
  -28.9199  -15.3889   21.3072 H   0  0  0  0  0  0
  -29.7982  -23.5823   22.0351 H   0  0  0  0  0  0
  1 25  1  0  0  0
  1 30  2  0  0  0
  1 86  1  0  0  0
  2  3  1  0  0  0
  2 25  1  0  0  0
  2 88  1  0  0  0
  2 89  1  0  0  0
  3  4  1  0  0  0
  3 90  1  0  0  0
  3 91  1  0  0  0
  4  5  1  0  0  0
  4 92  1  0  0  0
  4 93  1  0  0  0
  5  6  1  0  0  0
  5 26  1  0  0  0
  5 94  1  0  0  0
  6 25  1  0  0  0
  6 95  1  0  0  0
  6 96  1  0  0  0
  7  8  2  0  0  0
  7 26  1  0  0  0
  7 29  1  0  0  0
  8  9  1  0  0  0
  8 22  1  0  0  0
  9 10  1  0  0  0
  9 27  2  0  0  0
 10 11  2  0  0  0
 10 15  1  0  0  0
 11 12  1  0  0  0
 11 97  1  0  0  0
 12 13  2  0  0  0
 12 98  1  0  0  0
 13 14  1  0  0  0
 13 31  1  0  0  0
 14 15  2  0  0  0
 14 99  1  0  0  0
 15100  1  0  0  0
 16 17  2  0  0  0
 16 21  1  0  0  0
 16 31  1  0  0  0
 17 18  1  0  0  0
 17101  1  0  0  0
 18 19  2  0  0  0
 18102  1  0  0  0
 19 20  1  0  0  0
 19 24  1  0  0  0
 20 21  2  0  0  0
 20103  1  0  0  0
 21 23  1  0  0  0
 22 28  1  0  0  0
 22 32  2  0  0  0
 26 27  1  0  0  0
 28104  1  0  0  0
 28105  1  0  0  0
 29106  1  0  0  0
 29107  1  0  0  0
 33 34  1  0  0  0
 33 66  1  0  0  0
 33 70  2  0  0  0
 34 36  1  0  0  0
 34 59  1  0  0  0
 34108  1  0  0  0
 35 44  2  0  0  0
 35 45  1  0  0  0
 35 68  1  0  0  0
 36 56  1  0  0  0
 36109  1  0  0  0
 37 39  1  0  0  0
 37 47  1  0  0  0
 37 66  1  0  0  0
 37110  1  0  0  0
 38 43  2  0  0  0
 38 46  1  0  0  0
 38 47  1  0  0  0
 39 64  1  0  0  0
 39 67  2  0  0  0
 40 52  1  0  0  0
 40 53  2  0  0  0
 40 58  1  0  0  0
 41111  1  0  0  0
 41112  1  0  0  0
 41113  1  0  0  0
 41 48  1  0  0  0
 42 43  1  0  0  0
 42 66  1  0  0  0
 42114  1  0  0  0
 42115  1  0  0  0
 43 44  1  0  0  0
 44116  1  0  0  0
 45 46  2  0  0  0
 45117  1  0  0  0
 46118  1  0  0  0
 47119  1  0  0  0
 47120  1  0  0  0
 48 56  1  0  0  0
 48 65  1  0  0  0
 48121  1  0  0  0
 49 50  1  0  0  0
 49 53  1  0  0  0
 49 64  1  0  0  0
 49122  1  0  0  0
 50 51  1  0  0  0
 50123  1  0  0  0
 50124  1  0  0  0
 51 52  1  0  0  0
 51125  1  0  0  0
 51126  1  0  0  0
 52127  1  0  0  0
 52128  1  0  0  0
 53 54  1  0  0  0
 54 55  2  0  0  0
 54129  1  0  0  0
 55 57  1  0  0  0
 55130  1  0  0  0
 56 69  2  0  0  0
 57 58  2  0  0  0
 57131  1  0  0  0
 58132  1  0  0  0
 59 60  1  0  0  0
 59 61  1  0  0  0
 59 62  1  0  0  0
 60133  1  0  0  0
 60134  1  0  0  0
 60135  1  0  0  0
 61136  1  0  0  0
 61137  1  0  0  0
 61138  1  0  0  0
 62139  1  0  0  0
 62140  1  0  0  0
 62141  1  0  0  0
 63 65  1  0  0  0
 63142  1  0  0  0
 63143  1  0  0  0
 63144  1  0  0  0
 64145  1  0  0  0
 65146  1  0  0  0
 68 85  1  0  0  0
 71 73  2  0  0  0
 71 75  1  0  0  0
 71147  1  0  0  0
 72 74  2  0  0  0
 72 76  1  0  0  0
 72148  1  0  0  0
 73 74  1  0  0  0
 73 77  1  0  0  0
 74 78  1  0  0  0
 75 76  2  0  0  0
 75 80  1  0  0  0
 76 83  1  0  0  0
 77 79  1  0  0  0
 77149  1  0  0  0
 77150  1  0  0  0
 78 81  1  0  0  0
 78 87  1  0  0  0
 78151  1  0  0  0
 79 82  1  0  0  0
 79 87  1  0  0  0
 79152  1  0  0  0
 80153  1  0  0  0
 80154  1  0  0  0
 80155  1  0  0  0
 81156  1  0  0  0
 81157  1  0  0  0
 81158  1  0  0  0
 82159  1  0  0  0
 82160  1  0  0  0
 82161  1  0  0  0
 83 86  1  0  0  0
 83162  1  0  0  0
 83163  1  0  0  0
 84 85  1  0  0  0
 84164  1  0  0  0
 84165  1  0  0  0
 84 87  1  0  0  0
 85166  1  0  0  0
 85167  1  0  0  0
 86168  1  0  0  0
 87169  1  0  0  0
M  CHG  1  87   1
M  ISO  4   1 100  68 101  85 101  86 100
M  END
> <chiral flag>
0

> <version>
0

> <s_m_source_file>
/data/baiqing/PycharmProjects/Reinvent-master-3.2/result/LINK_invent/BTK/process_docking_weight1_custom_sum_contain_oxygen_bond_distance_aromatic_linkinvent_7_9_3/rearranged_h_0156.sdf

> <i_m_source_file_index>
36

> <r_mmod_Potential_Energy-OPLS-2005>
-81.5711822509766

> <r_mmod_Stretch_Energy-OPLS-2005>
65.8272323608398

> <r_mmod_Bend_Energy-OPLS-2005>
153.593780517578

> <r_mmod_Torsional_Energy-OPLS-2005>
241.151565551758

> <r_mmod_Improper_Torsional_Energy-OPLS-2005>
5.07400751113892

> <r_mmod_Van_der_Waal_Energy-OPLS-2005>
161.67431640625

> <r_mmod_Electrostatic_Energy-OPLS-2005>
-324.434143066406

> <r_mmod_Solvation_Energy-OPLS-2005>
-410.598022460938

> <b_mmod_Minimization_Converged-OPLS-2005>
0

> <r_mmod_RMS_Derivative-OPLS-2005>
5.19536685943604

$$$$
36
                    3D
 Structure written by MMmdl.
164173  0  0  1  0            999 V2000
  -30.6636  -14.5962   20.5012 C   0  0  0  0  0  0
  -30.4186  -12.3674   19.4527 C   0  0  0  0  0  0
  -29.5041  -12.5023   18.2187 C   0  0  0  0  0  0
  -28.0253  -12.3525   18.6249 C   0  0  0  0  0  0
  -27.6467  -13.2244   19.8543 C   0  0  2  0  0  0
  -28.6872  -13.0998   20.9888 C   0  0  0  0  0  0
  -25.2531  -13.8194   20.5705 C   0  0  0  0  0  0
  -24.1810  -13.0449   20.9183 C   0  0  0  0  0  0
  -24.6397  -11.6924   20.8746 C   0  0  0  0  0  0
  -23.9092  -10.4307   21.0431 C   0  0  0  0  0  0
  -24.3652   -9.4206   21.9203 C   0  0  0  0  0  0
  -23.6313   -8.2245   22.0763 C   0  0  0  0  0  0
  -22.4290   -8.0294   21.3558 C   0  0  0  0  0  0
  -21.9954   -9.0253   20.4635 C   0  0  0  0  0  0
  -22.7290  -10.2133   20.3053 C   0  0  0  0  0  0
  -21.6846   -6.0758   22.5299 C   0  0  0  0  0  0
  -21.4001   -6.5663   23.8235 C   0  0  0  0  0  0
  -21.3661   -5.6808   24.9197 C   0  0  0  0  0  0
  -21.6047   -4.3068   24.7236 C   0  0  0  0  0  0
  -21.8830   -3.8165   23.4360 C   0  0  0  0  0  0
  -21.9193   -4.6989   22.3416 C   0  0  0  0  0  0
  -22.7826  -13.5204   21.1838 C   0  0  0  0  0  0
  -22.1656   -4.2179   21.0991 F   0  0  0  0  0  0
  -21.5635   -3.4547   25.7746 F   0  0  0  0  0  0
  -30.0028  -13.4033   20.4145 N   0  0  0  0  0  0
  -26.2957  -12.9389   20.3279 N   0  0  0  0  0  0
  -25.9315  -11.6541   20.5722 N   0  0  0  0  0  0
  -22.0482  -12.8155   22.0359 N   0  0  0  0  0  0
  -25.4275  -15.1917   20.4162 N   0  0  0  0  0  0
  -31.8509  -14.6930   20.1744 O   0  0  0  0  0  0
  -21.6636   -6.8904   21.4270 O   0  0  0  0  0  0
  -22.3498  -14.5524   20.6713 O   0  0  0  0  0  0
  -24.6238  -31.8659   23.2043 C   0  0  0  0  0  0
  -25.9096  -32.4807   23.8362 C   0  0  1  0  0  0
  -27.2002  -27.3521   20.1058 C   0  0  0  0  0  0
  -25.5912  -33.8610   24.2279 N   0  0  0  0  0  0
  -23.4147  -30.4923   21.5493 C   0  0  2  0  0  0
  -24.8558  -28.9610   20.1041 C   0  0  0  0  0  0
  -22.7462  -29.4671   22.4952 C   0  0  0  0  0  0
  -18.0289  -28.1410   22.8498 C   0  0  0  0  0  0
  -24.1504  -36.7312   23.2627 C   0  0  0  0  0  0
  -25.9536  -30.8083   21.3690 C   0  0  0  0  0  0
  -26.0271  -29.4411   20.7066 C   0  0  0  0  0  0
  -27.2109  -28.6477   20.6995 C   0  0  0  0  0  0
  -26.0158  -26.9273   19.4686 C   0  0  0  0  0  0
  -24.8501  -27.7096   19.4757 C   0  0  0  0  0  0
  -23.6210  -29.8351   20.1615 C   0  0  0  0  0  0
  -25.4130  -36.3116   24.0323 C   0  0  1  0  0  0
  -20.5877  -28.3721   23.1306 C   0  0  2  0  0  0
  -20.6790  -26.9449   22.5418 C   0  0  0  0  0  0
  -19.5757  -26.6401   21.5237 C   0  0  0  0  0  0
  -18.1937  -26.7945   22.1648 C   0  0  0  0  0  0
  -19.1533  -28.8882   23.2898 C   0  0  0  0  0  0
  -18.9457  -30.1477   23.8917 C   0  0  0  0  0  0
  -17.6461  -30.6607   24.0576 C   0  0  0  0  0  0
  -25.9068  -34.9476   23.5107 C   0  0  0  0  0  0
  -16.5360  -29.9109   23.6320 C   0  0  0  0  0  0
  -16.7281  -28.6527   23.0352 C   0  0  0  0  0  0
  -26.4432  -31.6590   25.0728 C   0  0  0  0  0  0
  -25.3632  -31.3741   26.1421 C   0  0  0  0  0  0
  -27.0223  -30.2997   24.6155 C   0  0  0  0  0  0
  -27.5968  -32.4285   25.7577 C   0  0  0  0  0  0
  -27.5604  -37.1825   24.8451 C   0  0  0  0  0  0
  -21.4177  -29.3082   22.3696 N   0  0  0  0  0  0
  -26.4307  -37.3812   23.9406 N   0  0  0  0  0  0
  -24.6831  -31.0693   22.0985 N   0  0  0  0  0  0
  -23.4204  -28.8204   23.3011 O   0  0  0  0  0  0
  -28.2538  -26.4423   20.1773 O   0  0  0  0  0  0
  -26.5648  -34.8940   22.4685 O   0  0  0  0  0  0
  -23.5406  -32.1451   23.7387 O   0  0  0  0  0  0
  -29.3358  -23.3012   21.8136 C   0  0  0  0  0  0
  -28.4469  -21.5826   19.7984 C   0  0  0  0  0  0
  -28.5187  -23.8589   20.7965 C   0  0  0  0  0  0
  -29.6890  -21.9249   21.8435 C   0  0  0  0  0  0
  -28.0912  -22.9682   19.7651 C   0  0  0  0  0  0
  -29.2416  -21.0298   20.8386 C   0  0  0  0  0  0
  -28.8839  -17.7933   19.4263 C   0  0  0  0  0  0
  -28.7904  -17.6006   21.9203 C   0  0  0  0  0  0
  -29.9831  -16.6862   19.4541 C   0  0  0  0  0  0
  -29.9300  -16.5369   21.8318 C   0  0  0  0  0  0
  -28.7120  -18.6037   20.7349 C   0  0  0  0  0  0
  -30.4986  -21.3917   23.0165 C   0  0  0  0  0  0
  -27.2126  -23.4537   18.6217 C   0  0  0  0  0  0
  -27.9207  -25.2891   21.0247 C   0  0  0  0  0  0
  -29.8928  -15.7346   20.5904 N   0  0  0  0  0  0
  -29.6574  -19.6913   20.8928 O   0  0  0  0  0  0
  -31.4660  -12.4634   19.1617 H   0  0  0  0  0  0
  -30.3196  -11.3767   19.8982 H   0  0  0  0  0  0
  -29.7638  -11.7574   17.4648 H   0  0  0  0  0  0
  -29.6560  -13.4783   17.7540 H   0  0  0  0  0  0
  -27.8489  -11.2994   18.8481 H   0  0  0  0  0  0
  -27.3822  -12.5945   17.7796 H   0  0  0  0  0  0
  -27.6610  -14.2579   19.5047 H   0  0  0  0  0  0
  -28.6790  -12.0954   21.4152 H   0  0  0  0  0  0
  -28.4441  -13.7815   21.8046 H   0  0  0  0  0  0
  -25.2819   -9.5664   22.4747 H   0  0  0  0  0  0
  -24.0029   -7.4642   22.7487 H   0  0  0  0  0  0
  -21.0903   -8.8772   19.8909 H   0  0  0  0  0  0
  -22.3795  -10.9656   19.6118 H   0  0  0  0  0  0
  -21.1980   -7.6173   23.9747 H   0  0  0  0  0  0
  -21.1464   -6.0542   25.9107 H   0  0  0  0  0  0
  -22.0604   -2.7624   23.2863 H   0  0  0  0  0  0
  -22.4122  -11.9810   22.4720 H   0  0  0  0  0  0
  -21.1084  -13.1144   22.2567 H   0  0  0  0  0  0
  -24.6677  -15.8538   20.5296 H   0  0  0  0  0  0
  -26.2952  -15.6279   20.1351 H   0  0  0  0  0  0
  -26.7192  -32.5496   23.1142 H   0  0  0  0  0  0
  -24.9988  -33.9762   25.0370 H   0  0  0  0  0  0
  -22.7073  -31.3138   21.4134 H   0  0  0  0  0  0
  -23.3785  -35.9623   23.3260 H   0  0  0  0  0  0
  -24.3593  -36.8962   22.2042 H   0  0  0  0  0  0
  -23.7227  -37.6492   23.6672 H   0  0  0  0  0  0
  -26.0766  -31.5759   20.6033 H   0  0  0  0  0  0
  -26.8393  -30.8575   21.9919 H   0  0  0  0  0  0
  -28.1078  -29.0020   21.1862 H   0  0  0  0  0  0
  -25.9639  -25.9586   18.9986 H   0  0  0  0  0  0
  -23.9521  -27.3355   19.0028 H   0  0  0  0  0  0
  -23.7280  -30.6164   19.4068 H   0  0  0  0  0  0
  -22.7410  -29.2605   19.8656 H   0  0  0  0  0  0
  -25.1299  -36.1974   25.0812 H   0  0  0  0  0  0
  -20.9990  -28.3302   24.1422 H   0  0  0  0  0  0
  -20.5746  -26.2331   23.3607 H   0  0  0  0  0  0
  -21.6656  -26.7504   22.1199 H   0  0  0  0  0  0
  -19.6939  -25.6317   21.1262 H   0  0  0  0  0  0
  -19.6684  -27.3216   20.6762 H   0  0  0  0  0  0
  -17.4207  -26.6706   21.4046 H   0  0  0  0  0  0
  -18.0329  -26.0093   22.9047 H   0  0  0  0  0  0
  -19.7928  -30.7292   24.2297 H   0  0  0  0  0  0
  -17.5016  -31.6288   24.5188 H   0  0  0  0  0  0
  -15.5367  -30.3038   23.7611 H   0  0  0  0  0  0
  -15.8683  -28.0859   22.7050 H   0  0  0  0  0  0
  -24.5777  -30.7143   25.7713 H   0  0  0  0  0  0
  -24.8845  -32.2924   26.4838 H   0  0  0  0  0  0
  -25.7897  -30.8879   27.0206 H   0  0  0  0  0  0
  -26.2802  -29.6871   24.1016 H   0  0  0  0  0  0
  -27.3709  -29.7121   25.4658 H   0  0  0  0  0  0
  -27.8768  -30.4226   23.9496 H   0  0  0  0  0  0
  -27.2526  -33.3539   26.2212 H   0  0  0  0  0  0
  -28.3808  -32.6918   25.0470 H   0  0  0  0  0  0
  -28.0609  -31.8363   26.5477 H   0  0  0  0  0  0
  -28.2565  -38.0178   24.7580 H   0  0  0  0  0  0
  -28.1157  -36.2706   24.6192 H   0  0  0  0  0  0
  -27.2321  -37.1370   25.8849 H   0  0  0  0  0  0
  -20.9348  -29.8788   21.6889 H   0  0  0  0  0  0
  -26.0188  -38.2882   24.1429 H   0  0  0  0  0  0
  -29.6451  -23.9351   22.6330 H   0  0  0  0  0  0
  -28.1024  -20.9348   19.0039 H   0  0  0  0  0  0
  -27.9323  -17.3099   19.2039 H   0  0  0  0  0  0
  -29.0594  -18.4764   18.5939 H   0  0  0  0  0  0
  -28.8642  -18.1526   22.8586 H   0  0  0  0  0  0
  -27.8388  -17.0685   21.9800 H   0  0  0  0  0  0
  -30.9660  -17.1624   19.4574 H   0  0  0  0  0  0
  -29.9251  -16.1239   18.5188 H   0  0  0  0  0  0
  -29.8707  -15.8776   22.7019 H   0  0  0  0  0  0
  -30.8948  -17.0447   21.9024 H   0  0  0  0  0  0
  -27.7118  -19.0402   20.7395 H   0  0  0  0  0  0
  -30.7934  -22.1846   23.7030 H   0  0  0  0  0  0
  -31.4062  -20.8913   22.6762 H   0  0  0  0  0  0
  -29.9085  -20.6703   23.5849 H   0  0  0  0  0  0
  -27.3775  -22.8621   17.7191 H   0  0  0  0  0  0
  -27.4405  -24.4867   18.3608 H   0  0  0  0  0  0
  -26.1550  -23.3761   18.8778 H   0  0  0  0  0  0
  -28.1827  -25.5963   22.0382 H   0  0  0  0  0  0
  -26.8443  -25.1237   21.0698 H   0  0  0  0  0  0
  1 25  1  0  0  0
  1 30  2  0  0  0
  1 85  1  0  0  0
  2  3  1  0  0  0
  2 25  1  0  0  0
  2 87  1  0  0  0
  2 88  1  0  0  0
  3  4  1  0  0  0
  3 89  1  0  0  0
  3 90  1  0  0  0
  4  5  1  0  0  0
  4 91  1  0  0  0
  4 92  1  0  0  0
  5  6  1  0  0  0
  5 26  1  0  0  0
  5 93  1  0  0  0
  6 25  1  0  0  0
  6 94  1  0  0  0
  6 95  1  0  0  0
  7  8  2  0  0  0
  7 26  1  0  0  0
  7 29  1  0  0  0
  8  9  1  0  0  0
  8 22  1  0  0  0
  9 10  1  0  0  0
  9 27  2  0  0  0
 10 11  2  0  0  0
 10 15  1  0  0  0
 11 12  1  0  0  0
 11 96  1  0  0  0
 12 13  2  0  0  0
 12 97  1  0  0  0
 13 14  1  0  0  0
 13 31  1  0  0  0
 14 15  2  0  0  0
 14 98  1  0  0  0
 15 99  1  0  0  0
 16 17  2  0  0  0
 16 21  1  0  0  0
 16 31  1  0  0  0
 17 18  1  0  0  0
 17100  1  0  0  0
 18 19  2  0  0  0
 18101  1  0  0  0
 19 20  1  0  0  0
 19 24  1  0  0  0
 20 21  2  0  0  0
 20102  1  0  0  0
 21 23  1  0  0  0
 22 28  1  0  0  0
 22 32  2  0  0  0
 26 27  1  0  0  0
 28103  1  0  0  0
 28104  1  0  0  0
 29105  1  0  0  0
 29106  1  0  0  0
 33 34  1  0  0  0
 33 66  1  0  0  0
 33 70  2  0  0  0
 34 36  1  0  0  0
 34 59  1  0  0  0
 34107  1  0  0  0
 35 44  2  0  0  0
 35 45  1  0  0  0
 35 68  1  0  0  0
 36 56  1  0  0  0
 36108  1  0  0  0
 37 39  1  0  0  0
 37 47  1  0  0  0
 37 66  1  0  0  0
 37109  1  0  0  0
 38 43  2  0  0  0
 38 46  1  0  0  0
 38 47  1  0  0  0
 39 64  1  0  0  0
 39 67  2  0  0  0
 40 52  1  0  0  0
 40 53  2  0  0  0
 40 58  1  0  0  0
 41110  1  0  0  0
 41111  1  0  0  0
 41112  1  0  0  0
 41 48  1  0  0  0
 42 43  1  0  0  0
 42 66  1  0  0  0
 42113  1  0  0  0
 42114  1  0  0  0
 43 44  1  0  0  0
 44115  1  0  0  0
 45 46  2  0  0  0
 45116  1  0  0  0
 46117  1  0  0  0
 47118  1  0  0  0
 47119  1  0  0  0
 48 56  1  0  0  0
 48 65  1  0  0  0
 48120  1  0  0  0
 49 50  1  0  0  0
 49 53  1  0  0  0
 49 64  1  0  0  0
 49121  1  0  0  0
 50 51  1  0  0  0
 50122  1  0  0  0
 50123  1  0  0  0
 51 52  1  0  0  0
 51124  1  0  0  0
 51125  1  0  0  0
 52126  1  0  0  0
 52127  1  0  0  0
 53 54  1  0  0  0
 54 55  2  0  0  0
 54128  1  0  0  0
 55 57  1  0  0  0
 55129  1  0  0  0
 56 69  2  0  0  0
 57 58  2  0  0  0
 57130  1  0  0  0
 58131  1  0  0  0
 59 60  1  0  0  0
 59 61  1  0  0  0
 59 62  1  0  0  0
 60132  1  0  0  0
 60133  1  0  0  0
 60134  1  0  0  0
 61135  1  0  0  0
 61136  1  0  0  0
 61137  1  0  0  0
 62138  1  0  0  0
 62139  1  0  0  0
 62140  1  0  0  0
 63 65  1  0  0  0
 63141  1  0  0  0
 63142  1  0  0  0
 63143  1  0  0  0
 64144  1  0  0  0
 65145  1  0  0  0
 68 84  1  0  0  0
 71 73  2  0  0  0
 71 74  1  0  0  0
 71146  1  0  0  0
 72 75  2  0  0  0
 72 76  1  0  0  0
 72147  1  0  0  0
 73 75  1  0  0  0
 73 84  1  0  0  0
 74 76  2  0  0  0
 74 82  1  0  0  0
 75 83  1  0  0  0
 76 86  1  0  0  0
 77 79  1  0  0  0
 77 81  1  0  0  0
 77148  1  0  0  0
 77149  1  0  0  0
 78 80  1  0  0  0
 78 81  1  0  0  0
 78150  1  0  0  0
 78151  1  0  0  0
 79 85  1  0  0  0
 79152  1  0  0  0
 79153  1  0  0  0
 80 85  1  0  0  0
 80154  1  0  0  0
 80155  1  0  0  0
 81 86  1  0  0  0
 81156  1  0  0  0
 82157  1  0  0  0
 82158  1  0  0  0
 82159  1  0  0  0
 83160  1  0  0  0
 83161  1  0  0  0
 83162  1  0  0  0
 84163  1  0  0  0
 84164  1  0  0  0
M  ISO  4   1 100  68 101  84 101  85 100
M  END
> <chiral flag>
0

> <version>
0

> <s_m_source_file>
/data/baiqing/PycharmProjects/Reinvent-master-3.2/result/LINK_invent/BTK/process_docking_weight1_custom_sum_contain_oxygen_bond_distance_aromatic_linkinvent_7_9_3/rearranged_h_0156.sdf

> <i_m_source_file_index>
37

> <r_mmod_Potential_Energy-OPLS-2005>
305.675048828125

> <r_mmod_Stretch_Energy-OPLS-2005>
64.3945388793945

> <r_mmod_Bend_Energy-OPLS-2005>
139.448257446289

> <r_mmod_Torsional_Energy-OPLS-2005>
382.279602050781

> <r_mmod_Improper_Torsional_Energy-OPLS-2005>
16.7732257843018

> <r_mmod_Van_der_Waal_Energy-OPLS-2005>
140.388320922852

> <r_mmod_Electrostatic_Energy-OPLS-2005>
-289.587463378906

> <r_mmod_Solvation_Energy-OPLS-2005>
-194.138809204102

> <b_mmod_Minimization_Converged-OPLS-2005>
0

> <r_mmod_RMS_Derivative-OPLS-2005>
3.22018051147461

$$$$
37
                    3D
 Structure written by MMmdl.
170179  0  0  1  0            999 V2000
  -30.7424  -14.5674   20.5616 C   0  0  0  0  0  0
  -30.4030  -12.3636   19.4658 C   0  0  0  0  0  0
  -29.4948  -12.4998   18.2293 C   0  0  0  0  0  0
  -28.0225  -12.3250   18.6391 C   0  0  0  0  0  0
  -27.6440  -13.2074   19.8553 C   0  0  2  0  0  0
  -28.6863  -13.1071   20.9969 C   0  0  0  0  0  0
  -25.2530  -13.8152   20.5678 C   0  0  0  0  0  0
  -24.1795  -13.0429   20.9202 C   0  0  0  0  0  0
  -24.6355  -11.6900   20.8757 C   0  0  0  0  0  0
  -23.9033  -10.4290   21.0419 C   0  0  0  0  0  0
  -24.3593   -9.4208   21.9195 C   0  0  0  0  0  0
  -23.6277   -8.2238   22.0762 C   0  0  0  0  0  0
  -22.4262   -8.0270   21.3546 C   0  0  0  0  0  0
  -21.9893   -9.0242   20.4649 C   0  0  0  0  0  0
  -22.7211  -10.2127   20.3068 C   0  0  0  0  0  0
  -21.6847   -6.0730   22.5285 C   0  0  0  0  0  0
  -21.4003   -6.5638   23.8218 C   0  0  0  0  0  0
  -21.3666   -5.6793   24.9180 C   0  0  0  0  0  0
  -21.6051   -4.3059   24.7231 C   0  0  0  0  0  0
  -21.8817   -3.8145   23.4350 C   0  0  0  0  0  0
  -21.9187   -4.6962   22.3407 C   0  0  0  0  0  0
  -22.7826  -13.5233   21.1863 C   0  0  0  0  0  0
  -22.1655   -4.2149   21.0982 F   0  0  0  0  0  0
  -21.5640   -3.4542   25.7743 F   0  0  0  0  0  0
  -30.0133  -13.4099   20.4395 N   0  0  0  0  0  0
  -26.2931  -12.9307   20.3298 N   0  0  0  0  0  0
  -25.9275  -11.6477   20.5774 N   0  0  0  0  0  0
  -22.0462  -12.8236   22.0418 N   0  0  0  0  0  0
  -25.4254  -15.1867   20.4060 N   0  0  0  0  0  0
  -31.8538  -14.6481   20.0290 O   0  0  0  0  0  0
  -21.6626   -6.8867   21.4244 O   0  0  0  0  0  0
  -22.3527  -14.5547   20.6722 O   0  0  0  0  0  0
  -24.6199  -31.8650   23.2065 C   0  0  0  0  0  0
  -25.9074  -32.4802   23.8383 C   0  0  1  0  0  0
  -27.2252  -27.3759   20.1259 C   0  0  0  0  0  0
  -25.5911  -33.8602   24.2305 N   0  0  0  0  0  0
  -23.4117  -30.4879   21.5471 C   0  0  2  0  0  0
  -24.8626  -28.9535   20.1066 C   0  0  0  0  0  0
  -22.7451  -29.4649   22.4963 C   0  0  0  0  0  0
  -18.0285  -28.1365   22.8503 C   0  0  0  0  0  0
  -24.1486  -36.7302   23.2642 C   0  0  0  0  0  0
  -25.9476  -30.8122   21.3746 C   0  0  0  0  0  0
  -26.0257  -29.4465   20.7141 C   0  0  0  0  0  0
  -27.2136  -28.6669   20.7188 C   0  0  0  0  0  0
  -26.0550  -26.9295   19.4749 C   0  0  0  0  0  0
  -24.8766  -27.6978   19.4772 C   0  0  0  0  0  0
  -23.6242  -29.8222   20.1613 C   0  0  0  0  0  0
  -25.4109  -36.3099   24.0338 C   0  0  1  0  0  0
  -20.5884  -28.3669   23.1292 C   0  0  2  0  0  0
  -20.6772  -26.9396   22.5410 C   0  0  0  0  0  0
  -19.5741  -26.6374   21.5215 C   0  0  0  0  0  0
  -18.1925  -26.7913   22.1634 C   0  0  0  0  0  0
  -19.1539  -28.8833   23.2894 C   0  0  0  0  0  0
  -18.9463  -30.1441   23.8900 C   0  0  0  0  0  0
  -17.6464  -30.6576   24.0560 C   0  0  0  0  0  0
  -25.9041  -34.9466   23.5120 C   0  0  0  0  0  0
  -16.5355  -29.9071   23.6334 C   0  0  0  0  0  0
  -16.7275  -28.6486   23.0363 C   0  0  0  0  0  0
  -26.4467  -31.6604   25.0747 C   0  0  0  0  0  0
  -25.3709  -31.3751   26.1483 C   0  0  0  0  0  0
  -27.0311  -30.3024   24.6203 C   0  0  0  0  0  0
  -27.6022  -32.4347   25.7519 C   0  0  0  0  0  0
  -27.5579  -37.1808   24.8464 C   0  0  0  0  0  0
  -21.4173  -29.3033   22.3696 N   0  0  0  0  0  0
  -26.4292  -37.3788   23.9408 N   0  0  0  0  0  0
  -24.6772  -31.0707   22.0993 N   0  0  0  0  0  0
  -23.4204  -28.8212   23.3039 O   0  0  0  0  0  0
  -28.3134  -26.5134   20.2099 O   0  0  0  0  0  0
  -26.5609  -34.8926   22.4685 O   0  0  0  0  0  0
  -23.5378  -32.1437   23.7418 O   0  0  0  0  0  0
  -29.1174  -21.3600   20.8945 C   0  0  0  0  0  0
  -28.3178  -22.5309   21.1808 C   0  0  0  0  0  0
  -28.8047  -20.0771   21.4735 C   0  0  0  0  0  0
  -27.2209  -22.3169   22.0710 C   0  0  0  0  0  0
  -27.6607  -20.0328   22.3026 C   0  0  0  0  0  0
  -30.9692  -17.5688   22.9554 C   0  0  0  0  0  0
  -30.8610  -18.8355   22.0744 C   0  0  0  0  0  0
  -31.3469  -16.2549   22.2159 C   0  0  0  0  0  0
  -29.2587  -17.7823   20.4388 C   0  0  0  0  0  0
  -29.0840  -16.4021   21.1603 C   0  0  0  0  0  0
  -30.3202  -21.4768   19.9665 C   0  0  0  0  0  0
  -26.2549  -23.3753   22.5755 C   0  0  0  0  0  0
  -27.1983  -18.7634   22.9935 C   0  0  0  0  0  0
  -28.6521  -23.9166   20.4852 C   0  0  0  0  0  0
  -28.0409  -25.2899   20.9751 C   0  0  0  0  0  0
  -26.9129  -21.1114   22.5836 N   0  0  0  0  0  0
  -29.6089  -18.9023   21.3294 N   0  0  0  0  0  0
  -30.3192  -15.6011   21.3644 N   0  0  0  0  0  0
  -31.4514  -12.4208   19.1702 H   0  0  0  0  0  0
  -30.2860  -11.3763   19.9159 H   0  0  0  0  0  0
  -29.7643  -11.7566   17.4782 H   0  0  0  0  0  0
  -29.6408  -13.4758   17.7645 H   0  0  0  0  0  0
  -27.8681  -11.2729   18.8795 H   0  0  0  0  0  0
  -27.3669  -12.5442   17.7961 H   0  0  0  0  0  0
  -27.6401  -14.2199   19.4623 H   0  0  0  0  0  0
  -28.6853  -12.1034   21.4243 H   0  0  0  0  0  0
  -28.4286  -13.7754   21.8187 H   0  0  0  0  0  0
  -25.2737   -9.5689   22.4770 H   0  0  0  0  0  0
  -23.9994   -7.4627   22.7475 H   0  0  0  0  0  0
  -21.0836   -8.8752   19.8944 H   0  0  0  0  0  0
  -22.3671  -10.9664   19.6178 H   0  0  0  0  0  0
  -21.1984   -7.6142   23.9718 H   0  0  0  0  0  0
  -21.1496   -6.0524   25.9085 H   0  0  0  0  0  0
  -22.0589   -2.7608   23.2850 H   0  0  0  0  0  0
  -22.4058  -11.9885   22.4798 H   0  0  0  0  0  0
  -21.1088  -13.1285   22.2623 H   0  0  0  0  0  0
  -24.6581  -15.8407   20.5111 H   0  0  0  0  0  0
  -26.2725  -15.6226   20.0683 H   0  0  0  0  0  0
  -26.7150  -32.5497   23.1146 H   0  0  0  0  0  0
  -25.0051  -33.9753   25.0443 H   0  0  0  0  0  0
  -22.7029  -31.3069   21.4068 H   0  0  0  0  0  0
  -23.3750  -35.9633   23.3313 H   0  0  0  0  0  0
  -24.3573  -36.8912   22.2054 H   0  0  0  0  0  0
  -23.7234  -37.6508   23.6650 H   0  0  0  0  0  0
  -26.0818  -31.5826   20.6141 H   0  0  0  0  0  0
  -26.8243  -30.8511   22.0093 H   0  0  0  0  0  0
  -28.1012  -29.0331   21.2161 H   0  0  0  0  0  0
  -26.0454  -25.9609   18.9944 H   0  0  0  0  0  0
  -23.9873  -27.3134   18.9973 H   0  0  0  0  0  0
  -23.7319  -30.5986   19.4031 H   0  0  0  0  0  0
  -22.7472  -29.2431   19.8655 H   0  0  0  0  0  0
  -25.1287  -36.1963   25.0832 H   0  0  0  0  0  0
  -20.9977  -28.3230   24.1411 H   0  0  0  0  0  0
  -20.5672  -26.2280   23.3611 H   0  0  0  0  0  0
  -21.6641  -26.7424   22.1204 H   0  0  0  0  0  0
  -19.6896  -25.6287   21.1237 H   0  0  0  0  0  0
  -19.6662  -27.3195   20.6754 H   0  0  0  0  0  0
  -17.4198  -26.6682   21.4032 H   0  0  0  0  0  0
  -18.0309  -26.0037   22.9010 H   0  0  0  0  0  0
  -19.7939  -30.7256   24.2271 H   0  0  0  0  0  0
  -17.5017  -31.6259   24.5154 H   0  0  0  0  0  0
  -15.5354  -30.2970   23.7642 H   0  0  0  0  0  0
  -15.8683  -28.0794   22.7076 H   0  0  0  0  0  0
  -24.5835  -30.7160   25.7807 H   0  0  0  0  0  0
  -24.8964  -32.2934   26.4955 H   0  0  0  0  0  0
  -25.8027  -30.8875   27.0234 H   0  0  0  0  0  0
  -26.2899  -29.6793   24.1182 H   0  0  0  0  0  0
  -27.3953  -29.7263   25.4722 H   0  0  0  0  0  0
  -27.8793  -30.4309   23.9472 H   0  0  0  0  0  0
  -27.2604  -33.3623   26.2128 H   0  0  0  0  0  0
  -28.3811  -32.6960   25.0343 H   0  0  0  0  0  0
  -28.0718  -31.8471   26.5419 H   0  0  0  0  0  0
  -28.2602  -38.0101   24.7511 H   0  0  0  0  0  0
  -28.1071  -36.2633   24.6286 H   0  0  0  0  0  0
  -27.2300  -37.1459   25.8869 H   0  0  0  0  0  0
  -20.9347  -29.8752   21.6906 H   0  0  0  0  0  0
  -26.0183  -38.2874   24.1387 H   0  0  0  0  0  0
  -30.0853  -17.4349   23.5769 H   0  0  0  0  0  0
  -31.7716  -17.7601   23.6697 H   0  0  0  0  0  0
  -31.7031  -18.8837   21.3818 H   0  0  0  0  0  0
  -30.9441  -19.7175   22.7128 H   0  0  0  0  0  0
  -32.2440  -16.4675   21.6309 H   0  0  0  0  0  0
  -31.6533  -15.5189   22.9614 H   0  0  0  0  0  0
  -28.3210  -18.0344   19.9396 H   0  0  0  0  0  0
  -30.0012  -17.7000   19.6430 H   0  0  0  0  0  0
  -28.4103  -15.8319   20.5346 H   0  0  0  0  0  0
  -28.5553  -16.4995   22.1059 H   0  0  0  0  0  0
  -30.1016  -22.1059   19.1054 H   0  0  0  0  0  0
  -30.6249  -20.5103   19.5672 H   0  0  0  0  0  0
  -31.1679  -21.9015   20.5035 H   0  0  0  0  0  0
  -26.7801  -24.2052   23.0445 H   0  0  0  0  0  0
  -25.5945  -22.9778   23.3483 H   0  0  0  0  0  0
  -25.6052  -23.7268   21.7747 H   0  0  0  0  0  0
  -26.8290  -18.0463   22.2615 H   0  0  0  0  0  0
  -26.3953  -18.9591   23.7040 H   0  0  0  0  0  0
  -28.0165  -18.3139   23.5510 H   0  0  0  0  0  0
  -28.3882  -23.8037   19.4336 H   0  0  0  0  0  0
  -29.7345  -24.0415   20.5078 H   0  0  0  0  0  0
  -28.3703  -25.4798   21.9968 H   0  0  0  0  0  0
  -26.9661  -25.1709   21.0196 H   0  0  0  0  0  0
  1 25  1  0  0  0
  1 30  2  0  0  0
  1 88  1  0  0  0
  2  3  1  0  0  0
  2 25  1  0  0  0
  2 89  1  0  0  0
  2 90  1  0  0  0
  3  4  1  0  0  0
  3 91  1  0  0  0
  3 92  1  0  0  0
  4  5  1  0  0  0
  4 93  1  0  0  0
  4 94  1  0  0  0
  5  6  1  0  0  0
  5 26  1  0  0  0
  5 95  1  0  0  0
  6 25  1  0  0  0
  6 96  1  0  0  0
  6 97  1  0  0  0
  7  8  2  0  0  0
  7 26  1  0  0  0
  7 29  1  0  0  0
  8  9  1  0  0  0
  8 22  1  0  0  0
  9 10  1  0  0  0
  9 27  2  0  0  0
 10 11  2  0  0  0
 10 15  1  0  0  0
 11 12  1  0  0  0
 11 98  1  0  0  0
 12 13  2  0  0  0
 12 99  1  0  0  0
 13 14  1  0  0  0
 13 31  1  0  0  0
 14 15  2  0  0  0
 14100  1  0  0  0
 15101  1  0  0  0
 16 17  2  0  0  0
 16 21  1  0  0  0
 16 31  1  0  0  0
 17 18  1  0  0  0
 17102  1  0  0  0
 18 19  2  0  0  0
 18103  1  0  0  0
 19 20  1  0  0  0
 19 24  1  0  0  0
 20 21  2  0  0  0
 20104  1  0  0  0
 21 23  1  0  0  0
 22 28  1  0  0  0
 22 32  2  0  0  0
 26 27  1  0  0  0
 28105  1  0  0  0
 28106  1  0  0  0
 29107  1  0  0  0
 29108  1  0  0  0
 33 34  1  0  0  0
 33 66  1  0  0  0
 33 70  2  0  0  0
 34 36  1  0  0  0
 34 59  1  0  0  0
 34109  1  0  0  0
 35 44  2  0  0  0
 35 45  1  0  0  0
 35 68  1  0  0  0
 36 56  1  0  0  0
 36110  1  0  0  0
 37 39  1  0  0  0
 37 47  1  0  0  0
 37 66  1  0  0  0
 37111  1  0  0  0
 38 43  2  0  0  0
 38 46  1  0  0  0
 38 47  1  0  0  0
 39 64  1  0  0  0
 39 67  2  0  0  0
 40 52  1  0  0  0
 40 53  2  0  0  0
 40 58  1  0  0  0
 41112  1  0  0  0
 41113  1  0  0  0
 41114  1  0  0  0
 41 48  1  0  0  0
 42 43  1  0  0  0
 42 66  1  0  0  0
 42115  1  0  0  0
 42116  1  0  0  0
 43 44  1  0  0  0
 44117  1  0  0  0
 45 46  2  0  0  0
 45118  1  0  0  0
 46119  1  0  0  0
 47120  1  0  0  0
 47121  1  0  0  0
 48 56  1  0  0  0
 48 65  1  0  0  0
 48122  1  0  0  0
 49 50  1  0  0  0
 49 53  1  0  0  0
 49 64  1  0  0  0
 49123  1  0  0  0
 50 51  1  0  0  0
 50124  1  0  0  0
 50125  1  0  0  0
 51 52  1  0  0  0
 51126  1  0  0  0
 51127  1  0  0  0
 52128  1  0  0  0
 52129  1  0  0  0
 53 54  1  0  0  0
 54 55  2  0  0  0
 54130  1  0  0  0
 55 57  1  0  0  0
 55131  1  0  0  0
 56 69  2  0  0  0
 57 58  2  0  0  0
 57132  1  0  0  0
 58133  1  0  0  0
 59 60  1  0  0  0
 59 61  1  0  0  0
 59 62  1  0  0  0
 60134  1  0  0  0
 60135  1  0  0  0
 60136  1  0  0  0
 61137  1  0  0  0
 61138  1  0  0  0
 61139  1  0  0  0
 62140  1  0  0  0
 62141  1  0  0  0
 62142  1  0  0  0
 63 65  1  0  0  0
 63143  1  0  0  0
 63144  1  0  0  0
 63145  1  0  0  0
 64146  1  0  0  0
 65147  1  0  0  0
 68 85  1  0  0  0
 71 72  2  0  0  0
 71 73  1  0  0  0
 71 81  1  0  0  0
 72 74  1  0  0  0
 72 84  1  0  0  0
 73 75  2  0  0  0
 73 87  1  0  0  0
 74 82  1  0  0  0
 74 86  2  0  0  0
 75 83  1  0  0  0
 75 86  1  0  0  0
 76 77  1  0  0  0
 76 78  1  0  0  0
 76148  1  0  0  0
 76149  1  0  0  0
 77 87  1  0  0  0
 77150  1  0  0  0
 77151  1  0  0  0
 78 88  1  0  0  0
 78152  1  0  0  0
 78153  1  0  0  0
 79 80  1  0  0  0
 79 87  1  0  0  0
 79154  1  0  0  0
 79155  1  0  0  0
 80 88  1  0  0  0
 80156  1  0  0  0
 80157  1  0  0  0
 81158  1  0  0  0
 81159  1  0  0  0
 81160  1  0  0  0
 82161  1  0  0  0
 82162  1  0  0  0
 82163  1  0  0  0
 83164  1  0  0  0
 83165  1  0  0  0
 83166  1  0  0  0
 84 85  1  0  0  0
 84167  1  0  0  0
 84168  1  0  0  0
 85169  1  0  0  0
 85170  1  0  0  0
M  ISO  4   1 100  68 101  85 101  88 100
M  END
> <chiral flag>
0

> <version>
0

> <s_m_source_file>
/data/baiqing/PycharmProjects/Reinvent-master-3.2/result/LINK_invent/BTK/process_docking_weight1_custom_sum_contain_oxygen_bond_distance_aromatic_linkinvent_7_9_3/rearranged_h_0156.sdf

> <i_m_source_file_index>
38

> <r_mmod_Potential_Energy-OPLS-2005>
139.680160522461

> <r_mmod_Stretch_Energy-OPLS-2005>
73.6703033447266

> <r_mmod_Bend_Energy-OPLS-2005>
166.828735351562

> <r_mmod_Torsional_Energy-OPLS-2005>
370.927673339844

> <r_mmod_Improper_Torsional_Energy-OPLS-2005>
4.01019716262817

> <r_mmod_Van_der_Waal_Energy-OPLS-2005>
169.40950012207

> <r_mmod_Electrostatic_Energy-OPLS-2005>
-471.305084228516

> <r_mmod_Solvation_Energy-OPLS-2005>
-209.504547119141

> <b_mmod_Minimization_Converged-OPLS-2005>
0

> <r_mmod_RMS_Derivative-OPLS-2005>
1.29949545860291

$$$$
38
                    3D
 Structure written by MMmdl.
166175  0  0  1  0            999 V2000
  -30.6342  -14.5665   20.5331 C   0  0  0  0  0  0
  -30.4284  -12.3411   19.4597 C   0  0  0  0  0  0
  -29.5100  -12.4877   18.2285 C   0  0  0  0  0  0
  -28.0274  -12.3487   18.6287 C   0  0  0  0  0  0
  -27.6541  -13.2100   19.8664 C   0  0  2  0  0  0
  -28.6888  -13.0280   20.9984 C   0  0  0  0  0  0
  -25.2544  -13.8157   20.5632 C   0  0  0  0  0  0
  -24.1809  -13.0435   20.9171 C   0  0  0  0  0  0
  -24.6356  -11.6900   20.8721 C   0  0  0  0  0  0
  -23.9029  -10.4284   21.0405 C   0  0  0  0  0  0
  -24.3583   -9.4202   21.9187 C   0  0  0  0  0  0
  -23.6265   -8.2241   22.0756 C   0  0  0  0  0  0
  -22.4250   -8.0275   21.3543 C   0  0  0  0  0  0
  -21.9865   -9.0250   20.4659 C   0  0  0  0  0  0
  -22.7181  -10.2129   20.3070 C   0  0  0  0  0  0
  -21.6846   -6.0716   22.5265 C   0  0  0  0  0  0
  -21.4018   -6.5627   23.8196 C   0  0  0  0  0  0
  -21.3660   -5.6769   24.9162 C   0  0  0  0  0  0
  -21.6042   -4.3035   24.7214 C   0  0  0  0  0  0
  -21.8827   -3.8121   23.4339 C   0  0  0  0  0  0
  -21.9185   -4.6942   22.3379 C   0  0  0  0  0  0
  -22.7830  -13.5246   21.1833 C   0  0  0  0  0  0
  -22.1661   -4.2118   21.0961 F   0  0  0  0  0  0
  -21.5610   -3.4525   25.7741 F   0  0  0  0  0  0
  -30.0200  -13.3476   20.4542 N   0  0  0  0  0  0
  -26.2960  -12.9318   20.3272 N   0  0  0  0  0  0
  -25.9288  -11.6484   20.5729 N   0  0  0  0  0  0
  -22.0440  -12.8301   22.0419 N   0  0  0  0  0  0
  -25.4297  -15.1874   20.4034 N   0  0  0  0  0  0
  -31.7662  -14.7650   20.0805 O   0  0  0  0  0  0
  -21.6637   -6.8861   21.4227 O   0  0  0  0  0  0
  -22.3521  -14.5535   20.6647 O   0  0  0  0  0  0
  -24.6147  -31.8614   23.2084 C   0  0  0  0  0  0
  -25.9017  -32.4782   23.8391 C   0  0  1  0  0  0
  -27.2326  -27.3954   20.1228 C   0  0  0  0  0  0
  -25.5858  -33.8591   24.2304 N   0  0  0  0  0  0
  -23.4099  -30.4825   21.5440 C   0  0  2  0  0  0
  -24.8632  -28.9471   20.1096 C   0  0  0  0  0  0
  -22.7431  -29.4611   22.4929 C   0  0  0  0  0  0
  -18.0272  -28.1381   22.8488 C   0  0  0  0  0  0
  -24.1489  -36.7329   23.2661 C   0  0  0  0  0  0
  -25.9429  -30.8167   21.3736 C   0  0  0  0  0  0
  -26.0216  -29.4490   20.7196 C   0  0  0  0  0  0
  -27.2127  -28.6791   20.7262 C   0  0  0  0  0  0
  -26.0634  -26.9189   19.4968 C   0  0  0  0  0  0
  -24.8805  -27.6829   19.4937 C   0  0  0  0  0  0
  -23.6237  -29.8139   20.1581 C   0  0  0  0  0  0
  -25.4099  -36.3090   24.0346 C   0  0  1  0  0  0
  -20.5864  -28.3667   23.1295 C   0  0  2  0  0  0
  -20.6763  -26.9391   22.5424 C   0  0  0  0  0  0
  -19.5746  -26.6379   21.5215 C   0  0  0  0  0  0
  -18.1915  -26.7941   22.1609 C   0  0  0  0  0  0
  -19.1525  -28.8844   23.2903 C   0  0  0  0  0  0
  -18.9454  -30.1442   23.8928 C   0  0  0  0  0  0
  -17.6457  -30.6584   24.0575 C   0  0  0  0  0  0
  -25.9012  -34.9442   23.5126 C   0  0  0  0  0  0
  -16.5347  -29.9087   23.6333 C   0  0  0  0  0  0
  -16.7263  -28.6504   23.0359 C   0  0  0  0  0  0
  -26.4454  -31.6612   25.0745 C   0  0  0  0  0  0
  -25.3730  -31.3796   26.1534 C   0  0  0  0  0  0
  -27.0284  -30.3024   24.6207 C   0  0  0  0  0  0
  -27.6059  -32.4352   25.7429 C   0  0  0  0  0  0
  -27.5548  -37.1840   24.8473 C   0  0  0  0  0  0
  -21.4152  -29.3021   22.3687 N   0  0  0  0  0  0
  -26.4313  -37.3732   23.9343 N   0  0  0  0  0  0
  -24.6730  -31.0687   22.0996 N   0  0  0  0  0  0
  -23.4179  -28.8154   23.3001 O   0  0  0  0  0  0
  -28.3363  -26.5602   20.1591 O   0  0  0  0  0  0
  -26.5595  -34.8900   22.4705 O   0  0  0  0  0  0
  -23.5324  -32.1384   23.7441 O   0  0  0  0  0  0
  -29.4743  -23.6652   20.2378 C   0  0  0  0  0  0
  -29.7212  -22.2673   20.1605 C   0  0  0  0  0  0
  -28.1376  -21.8994   21.9478 C   0  0  0  0  0  0
  -28.5764  -24.2115   21.1859 C   0  0  0  0  0  0
  -29.0597  -21.3554   21.0200 C   0  0  0  0  0  0
  -27.9112  -23.3056   22.0643 C   0  0  0  0  0  0
  -28.3976  -17.6225   20.6765 C   0  0  0  0  0  0
  -30.8156  -17.9578   21.2700 C   0  0  0  0  0  0
  -28.2867  -19.1328   20.3147 C   0  0  0  0  0  0
  -30.6739  -19.4498   20.8269 C   0  0  0  0  0  0
  -29.8289  -17.0208   20.5189 C   0  0  0  0  0  0
  -29.5962  -26.3151   22.1857 C   0  0  0  0  0  0
  -26.5973  -23.0171   24.0828 C   0  0  0  0  0  0
  -28.4276  -25.7529   21.3645 C   0  0  1  0  0  0
  -29.2985  -19.9478   21.0001 N   0  0  0  0  0  0
  -29.8370  -15.5863   20.9440 N   0  0  0  0  0  0
  -27.0709  -23.8449   23.0225 O   0  0  0  0  0  0
  -31.4772  -12.4438   19.1726 H   0  0  0  0  0  0
  -30.3339  -11.3438   19.8885 H   0  0  0  0  0  0
  -29.7648  -11.7378   17.4764 H   0  0  0  0  0  0
  -29.6760  -13.4605   17.7629 H   0  0  0  0  0  0
  -27.8439  -11.2947   18.8439 H   0  0  0  0  0  0
  -27.3889  -12.6025   17.7844 H   0  0  0  0  0  0
  -27.6824  -14.2495   19.5399 H   0  0  0  0  0  0
  -28.6742  -12.0011   21.3635 H   0  0  0  0  0  0
  -28.4340  -13.6510   21.8592 H   0  0  0  0  0  0
  -25.2729   -9.5659   22.4765 H   0  0  0  0  0  0
  -23.9953   -7.4630   22.7480 H   0  0  0  0  0  0
  -21.0768   -8.8778   19.8988 H   0  0  0  0  0  0
  -22.3638  -10.9676   19.6186 H   0  0  0  0  0  0
  -21.2050   -7.6143   23.9695 H   0  0  0  0  0  0
  -21.1463   -6.0510   25.9054 H   0  0  0  0  0  0
  -22.0610   -2.7578   23.2861 H   0  0  0  0  0  0
  -22.4018  -11.9967   22.4857 H   0  0  0  0  0  0
  -21.1092  -13.1393   22.2631 H   0  0  0  0  0  0
  -24.6683  -15.8485   20.5132 H   0  0  0  0  0  0
  -26.2676  -15.6052   20.0215 H   0  0  0  0  0  0
  -26.7068  -32.5494   23.1149 H   0  0  0  0  0  0
  -24.9969  -33.9739   25.0415 H   0  0  0  0  0  0
  -22.7005  -31.3000   21.3979 H   0  0  0  0  0  0
  -23.3640  -35.9795   23.3508 H   0  0  0  0  0  0
  -24.3546  -36.8739   22.2039 H   0  0  0  0  0  0
  -23.7409  -37.6661   23.6555 H   0  0  0  0  0  0
  -26.0694  -31.5846   20.6097 H   0  0  0  0  0  0
  -26.8244  -30.8652   22.0021 H   0  0  0  0  0  0
  -28.1036  -29.0522   21.2123 H   0  0  0  0  0  0
  -26.0645  -25.9426   19.0318 H   0  0  0  0  0  0
  -23.9911  -27.2889   19.0218 H   0  0  0  0  0  0
  -23.7363  -30.5882   19.3980 H   0  0  0  0  0  0
  -22.7476  -29.2351   19.8574 H   0  0  0  0  0  0
  -25.1300  -36.2007   25.0844 H   0  0  0  0  0  0
  -20.9972  -28.3276   24.1415 H   0  0  0  0  0  0
  -20.5626  -26.2291   23.3626 H   0  0  0  0  0  0
  -21.6645  -26.7421   22.1244 H   0  0  0  0  0  0
  -19.6916  -25.6299   21.1221 H   0  0  0  0  0  0
  -19.6688  -27.3205   20.6759 H   0  0  0  0  0  0
  -17.4192  -26.6707   21.3998 H   0  0  0  0  0  0
  -18.0291  -26.0071   22.8981 H   0  0  0  0  0  0
  -19.7925  -30.7251   24.2315 H   0  0  0  0  0  0
  -17.5005  -31.6263   24.5174 H   0  0  0  0  0  0
  -15.5347  -30.3002   23.7634 H   0  0  0  0  0  0
  -15.8664  -28.0822   22.7078 H   0  0  0  0  0  0
  -24.5825  -30.7214   25.7921 H   0  0  0  0  0  0
  -24.9033  -32.2996   26.5029 H   0  0  0  0  0  0
  -25.8083  -30.8926   27.0269 H   0  0  0  0  0  0
  -26.2849  -29.6759   24.1270 H   0  0  0  0  0  0
  -27.4001  -29.7325   25.4734 H   0  0  0  0  0  0
  -27.8721  -30.4301   23.9422 H   0  0  0  0  0  0
  -27.2699  -33.3623   26.2088 H   0  0  0  0  0  0
  -28.3779  -32.6957   25.0174 H   0  0  0  0  0  0
  -28.0842  -31.8455   26.5260 H   0  0  0  0  0  0
  -28.2731  -37.9952   24.7247 H   0  0  0  0  0  0
  -28.0867  -36.2497   24.6641 H   0  0  0  0  0  0
  -27.2253  -37.1933   25.8874 H   0  0  0  0  0  0
  -20.9315  -29.8761   21.6923 H   0  0  0  0  0  0
  -26.0229  -38.2850   24.1177 H   0  0  0  0  0  0
  -30.0071  -24.3359   19.5770 H   0  0  0  0  0  0
  -30.4261  -21.9053   19.4282 H   0  0  0  0  0  0
  -27.6247  -21.2122   22.6016 H   0  0  0  0  0  0
  -27.6950  -17.0656   20.0529 H   0  0  0  0  0  0
  -28.0505  -17.4905   21.7038 H   0  0  0  0  0  0
  -30.6541  -17.8841   22.3477 H   0  0  0  0  0  0
  -31.8433  -17.6307   21.0988 H   0  0  0  0  0  0
  -27.2829  -19.4893   20.5629 H   0  0  0  0  0  0
  -28.3936  -19.2576   19.2342 H   0  0  0  0  0  0
  -30.9646  -19.5369   19.7760 H   0  0  0  0  0  0
  -31.3705  -20.0735   21.3927 H   0  0  0  0  0  0
  -30.0913  -17.0514   19.4561 H   0  0  0  0  0  0
  -29.6682  -25.8217   23.1559 H   0  0  0  0  0  0
  -29.4710  -27.3810   22.3754 H   0  0  0  0  0  0
  -30.5460  -26.1757   21.6693 H   0  0  0  0  0  0
  -26.0552  -23.6325   24.8024 H   0  0  0  0  0  0
  -27.4186  -22.5413   24.6224 H   0  0  0  0  0  0
  -25.9073  -22.2487   23.7284 H   0  0  0  0  0  0
  -27.5258  -25.9200   21.9561 H   0  0  0  0  0  0
  -28.9708  -15.2672   21.3537 H   0  0  0  0  0  0
  1 25  1  0  0  0
  1 30  2  0  0  0
  1 86  1  0  0  0
  2  3  1  0  0  0
  2 25  1  0  0  0
  2 88  1  0  0  0
  2 89  1  0  0  0
  3  4  1  0  0  0
  3 90  1  0  0  0
  3 91  1  0  0  0
  4  5  1  0  0  0
  4 92  1  0  0  0
  4 93  1  0  0  0
  5  6  1  0  0  0
  5 26  1  0  0  0
  5 94  1  0  0  0
  6 25  1  0  0  0
  6 95  1  0  0  0
  6 96  1  0  0  0
  7  8  2  0  0  0
  7 26  1  0  0  0
  7 29  1  0  0  0
  8  9  1  0  0  0
  8 22  1  0  0  0
  9 10  1  0  0  0
  9 27  2  0  0  0
 10 11  2  0  0  0
 10 15  1  0  0  0
 11 12  1  0  0  0
 11 97  1  0  0  0
 12 13  2  0  0  0
 12 98  1  0  0  0
 13 14  1  0  0  0
 13 31  1  0  0  0
 14 15  2  0  0  0
 14 99  1  0  0  0
 15100  1  0  0  0
 16 17  2  0  0  0
 16 21  1  0  0  0
 16 31  1  0  0  0
 17 18  1  0  0  0
 17101  1  0  0  0
 18 19  2  0  0  0
 18102  1  0  0  0
 19 20  1  0  0  0
 19 24  1  0  0  0
 20 21  2  0  0  0
 20103  1  0  0  0
 21 23  1  0  0  0
 22 28  1  0  0  0
 22 32  2  0  0  0
 26 27  1  0  0  0
 28104  1  0  0  0
 28105  1  0  0  0
 29106  1  0  0  0
 29107  1  0  0  0
 33 34  1  0  0  0
 33 66  1  0  0  0
 33 70  2  0  0  0
 34 36  1  0  0  0
 34 59  1  0  0  0
 34108  1  0  0  0
 35 44  2  0  0  0
 35 45  1  0  0  0
 35 68  1  0  0  0
 36 56  1  0  0  0
 36109  1  0  0  0
 37 39  1  0  0  0
 37 47  1  0  0  0
 37 66  1  0  0  0
 37110  1  0  0  0
 38 43  2  0  0  0
 38 46  1  0  0  0
 38 47  1  0  0  0
 39 64  1  0  0  0
 39 67  2  0  0  0
 40 52  1  0  0  0
 40 53  2  0  0  0
 40 58  1  0  0  0
 41111  1  0  0  0
 41112  1  0  0  0
 41113  1  0  0  0
 41 48  1  0  0  0
 42 43  1  0  0  0
 42 66  1  0  0  0
 42114  1  0  0  0
 42115  1  0  0  0
 43 44  1  0  0  0
 44116  1  0  0  0
 45 46  2  0  0  0
 45117  1  0  0  0
 46118  1  0  0  0
 47119  1  0  0  0
 47120  1  0  0  0
 48 56  1  0  0  0
 48 65  1  0  0  0
 48121  1  0  0  0
 49 50  1  0  0  0
 49 53  1  0  0  0
 49 64  1  0  0  0
 49122  1  0  0  0
 50 51  1  0  0  0
 50123  1  0  0  0
 50124  1  0  0  0
 51 52  1  0  0  0
 51125  1  0  0  0
 51126  1  0  0  0
 52127  1  0  0  0
 52128  1  0  0  0
 53 54  1  0  0  0
 54 55  2  0  0  0
 54129  1  0  0  0
 55 57  1  0  0  0
 55130  1  0  0  0
 56 69  2  0  0  0
 57 58  2  0  0  0
 57131  1  0  0  0
 58132  1  0  0  0
 59 60  1  0  0  0
 59 61  1  0  0  0
 59 62  1  0  0  0
 60133  1  0  0  0
 60134  1  0  0  0
 60135  1  0  0  0
 61136  1  0  0  0
 61137  1  0  0  0
 61138  1  0  0  0
 62139  1  0  0  0
 62140  1  0  0  0
 62141  1  0  0  0
 63 65  1  0  0  0
 63142  1  0  0  0
 63143  1  0  0  0
 63144  1  0  0  0
 64145  1  0  0  0
 65146  1  0  0  0
 68 84  1  0  0  0
 71 72  2  0  0  0
 71 74  1  0  0  0
 71147  1  0  0  0
 72 75  1  0  0  0
 72148  1  0  0  0
 73 75  2  0  0  0
 73 76  1  0  0  0
 73149  1  0  0  0
 74 76  2  0  0  0
 74 84  1  0  0  0
 75 85  1  0  0  0
 76 87  1  0  0  0
 77 79  1  0  0  0
 77 81  1  0  0  0
 77150  1  0  0  0
 77151  1  0  0  0
 78 80  1  0  0  0
 78 81  1  0  0  0
 78152  1  0  0  0
 78153  1  0  0  0
 79 85  1  0  0  0
 79154  1  0  0  0
 79155  1  0  0  0
 80 85  1  0  0  0
 80156  1  0  0  0
 80157  1  0  0  0
 81 86  1  0  0  0
 81158  1  0  0  0
 82159  1  0  0  0
 82160  1  0  0  0
 82161  1  0  0  0
 82 84  1  0  0  0
 83 87  1  0  0  0
 83162  1  0  0  0
 83163  1  0  0  0
 83164  1  0  0  0
 84165  1  0  0  0
 86166  1  0  0  0
M  ISO  4   1 100  68 101  84 101  86 100
M  END
> <chiral flag>
0

> <version>
0

> <s_m_source_file>
/data/baiqing/PycharmProjects/Reinvent-master-3.2/result/LINK_invent/BTK/process_docking_weight1_custom_sum_contain_oxygen_bond_distance_aromatic_linkinvent_7_9_3/rearranged_h_0156.sdf

> <i_m_source_file_index>
39

> <r_mmod_Potential_Energy-OPLS-2005>
63.5988311767578

> <r_mmod_Stretch_Energy-OPLS-2005>
56.7356300354004

> <r_mmod_Bend_Energy-OPLS-2005>
116.509643554688

> <r_mmod_Torsional_Energy-OPLS-2005>
289.248992919922

> <r_mmod_Improper_Torsional_Energy-OPLS-2005>
9.85751533508301

> <r_mmod_Van_der_Waal_Energy-OPLS-2005>
143.889556884766

> <r_mmod_Electrostatic_Energy-OPLS-2005>
-360.147552490234

> <r_mmod_Solvation_Energy-OPLS-2005>
-220.76335144043

> <b_mmod_Minimization_Converged-OPLS-2005>
0

> <r_mmod_RMS_Derivative-OPLS-2005>
4.33518266677856

$$$$
39
                    3D
 Structure written by MMmdl.
180189  0  0  1  0            999 V2000
  -30.7405  -14.4432   20.6233 C   0  0  0  0  0  0
  -30.4182  -12.3132   19.4068 C   0  0  0  0  0  0
  -29.4868  -12.4965   18.1936 C   0  0  0  0  0  0
  -28.0147  -12.3053   18.6105 C   0  0  0  0  0  0
  -27.6474  -13.1634   19.8442 C   0  0  2  0  0  0
  -28.6915  -12.9865   20.9750 C   0  0  0  0  0  0
  -25.2595  -13.8044   20.5624 C   0  0  0  0  0  0
  -24.1830  -13.0378   20.9197 C   0  0  0  0  0  0
  -24.6348  -11.6832   20.8763 C   0  0  0  0  0  0
  -23.9031  -10.4254   21.0461 C   0  0  0  0  0  0
  -24.3601   -9.4173   21.9226 C   0  0  0  0  0  0
  -23.6288   -8.2207   22.0775 C   0  0  0  0  0  0
  -22.4286   -8.0250   21.3550 C   0  0  0  0  0  0
  -21.9922   -9.0219   20.4642 C   0  0  0  0  0  0
  -22.7234  -10.2103   20.3075 C   0  0  0  0  0  0
  -21.6838   -6.0733   22.5299 C   0  0  0  0  0  0
  -21.3987   -6.5627   23.8234 C   0  0  0  0  0  0
  -21.3651   -5.6770   24.9194 C   0  0  0  0  0  0
  -21.6053   -4.3045   24.7243 C   0  0  0  0  0  0
  -21.8823   -3.8156   23.4357 C   0  0  0  0  0  0
  -21.9190   -4.6969   22.3416 C   0  0  0  0  0  0
  -22.7852  -13.5215   21.1865 C   0  0  0  0  0  0
  -22.1655   -4.2167   21.0996 F   0  0  0  0  0  0
  -21.5657   -3.4523   25.7744 F   0  0  0  0  0  0
  -30.0264  -13.2950   20.4321 N   0  0  0  0  0  0
  -26.2935  -12.9097   20.3209 N   0  0  0  0  0  0
  -25.9233  -11.6321   20.5735 N   0  0  0  0  0  0
  -22.0456  -12.8216   22.0397 N   0  0  0  0  0  0
  -25.4378  -15.1755   20.4040 N   0  0  0  0  0  0
  -31.8385  -14.6309   20.0862 O   0  0  0  0  0  0
  -21.6637   -6.8866   21.4257 O   0  0  0  0  0  0
  -22.3565  -14.5540   20.6729 O   0  0  0  0  0  0
  -24.6056  -31.8706   23.2090 C   0  0  0  0  0  0
  -25.8970  -32.4852   23.8380 C   0  0  1  0  0  0
  -27.2738  -27.4931   20.1106 C   0  0  0  0  0  0
  -25.5827  -33.8655   24.2312 N   0  0  0  0  0  0
  -23.3925  -30.4875   21.5490 C   0  0  2  0  0  0
  -24.8474  -28.9541   20.1168 C   0  0  0  0  0  0
  -22.7359  -29.4667   22.5046 C   0  0  0  0  0  0
  -18.0261  -28.1374   22.8481 C   0  0  0  0  0  0
  -24.1460  -36.7327   23.2644 C   0  0  0  0  0  0
  -25.9072  -30.8624   21.3463 C   0  0  0  0  0  0
  -25.9945  -29.4964   20.7047 C   0  0  0  0  0  0
  -27.2038  -28.7790   20.6973 C   0  0  0  0  0  0
  -26.1068  -26.9551   19.5270 C   0  0  0  0  0  0
  -24.8943  -27.6782   19.5240 C   0  0  0  0  0  0
  -23.5981  -29.8045   20.1670 C   0  0  0  0  0  0
  -25.4095  -36.3148   24.0331 C   0  0  1  0  0  0
  -20.5845  -28.3640   23.1361 C   0  0  2  0  0  0
  -20.6755  -26.9388   22.5441 C   0  0  0  0  0  0
  -19.5742  -26.6379   21.5230 C   0  0  0  0  0  0
  -18.1904  -26.7932   22.1601 C   0  0  0  0  0  0
  -19.1508  -28.8823   23.2921 C   0  0  0  0  0  0
  -18.9446  -30.1433   23.8933 C   0  0  0  0  0  0
  -17.6450  -30.6584   24.0567 C   0  0  0  0  0  0
  -25.9013  -34.9509   23.5131 C   0  0  0  0  0  0
  -16.5350  -29.9097   23.6318 C   0  0  0  0  0  0
  -16.7257  -28.6509   23.0336 C   0  0  0  0  0  0
  -26.4418  -31.6638   25.0699 C   0  0  0  0  0  0
  -25.3697  -31.3712   26.1442 C   0  0  0  0  0  0
  -27.0276  -30.3109   24.6028 C   0  0  0  0  0  0
  -27.5950  -32.4390   25.7507 C   0  0  0  0  0  0
  -27.5569  -37.1831   24.8455 C   0  0  0  0  0  0
  -21.4095  -29.3018   22.3791 N   0  0  0  0  0  0
  -26.4282  -37.3833   23.9400 N   0  0  0  0  0  0
  -24.6529  -31.0859   22.0961 N   0  0  0  0  0  0
  -23.4154  -28.8249   23.3097 O   0  0  0  0  0  0
  -28.4231  -26.7277   20.0737 O   0  0  0  0  0  0
  -26.5624  -34.8942   22.4728 O   0  0  0  0  0  0
  -23.5267  -32.1428   23.7541 O   0  0  0  0  0  0
  -30.4559  -23.0228   22.4827 C   0  0  0  0  0  0
  -32.4588  -24.3873   22.4022 C   0  0  0  0  0  0
  -31.2086  -21.8783   22.8310 C   0  0  0  0  0  0
  -32.6170  -22.0091   22.9818 C   0  0  0  0  0  0
  -31.0630  -24.2632   22.2479 C   0  0  0  0  0  0
  -33.2435  -23.2679   22.7778 C   0  0  0  0  0  0
  -31.4363  -17.4604   22.1933 C   0  0  0  0  0  0
  -29.3265  -17.5827   20.8817 C   0  0  0  0  0  0
  -31.1276  -15.9788   22.5132 C   0  0  0  0  0  0
  -29.0284  -16.1229   21.2477 C   0  0  0  0  0  0
  -30.1439  -18.2765   21.9900 C   0  0  0  0  0  0
  -33.4740  -20.8107   23.3841 C   0  0  0  0  0  0
  -29.1023  -20.7073   23.7257 C   0  0  0  0  0  0
  -29.6677  -20.3948   20.6693 C   0  0  0  0  0  0
  -35.2814  -24.5511   22.6426 C   0  0  0  0  0  0
  -29.6002  -27.2597   20.6932 C   0  0  0  0  0  0
  -30.6736  -26.1814   20.8797 C   0  0  0  0  0  0
  -30.4808  -20.5360   23.0356 C   0  0  1  0  0  0
  -30.2513  -15.3441   21.5114 N   0  0  0  0  0  0
  -30.4307  -19.7353   21.7677 N   0  3  1  0  0  0
  -34.6081  -23.3420   22.9716 O   0  0  0  0  0  0
  -30.2345  -25.3053   21.9119 O   0  0  0  0  0  0
  -31.4603  -12.4168   19.0989 H   0  0  0  0  0  0
  -30.3319  -11.2990   19.8009 H   0  0  0  0  0  0
  -29.7509  -11.7861   17.4080 H   0  0  0  0  0  0
  -29.6255  -13.4902   17.7644 H   0  0  0  0  0  0
  -27.8611  -11.2486   18.8280 H   0  0  0  0  0  0
  -27.3541  -12.5417   17.7753 H   0  0  0  0  0  0
  -27.6529  -14.1758   19.4599 H   0  0  0  0  0  0
  -28.6809  -11.9572   21.3372 H   0  0  0  0  0  0
  -28.4296  -13.5890   21.8440 H   0  0  0  0  0  0
  -25.2751   -9.5652   22.4788 H   0  0  0  0  0  0
  -24.0016   -7.4593   22.7468 H   0  0  0  0  0  0
  -21.0891   -8.8710   19.8899 H   0  0  0  0  0  0
  -22.3729  -10.9641   19.6161 H   0  0  0  0  0  0
  -21.1942   -7.6115   23.9751 H   0  0  0  0  0  0
  -21.1469   -6.0494   25.9097 H   0  0  0  0  0  0
  -22.0619   -2.7621   23.2861 H   0  0  0  0  0  0
  -22.4009  -11.9836   22.4772 H   0  0  0  0  0  0
  -21.1047  -13.1217   22.2526 H   0  0  0  0  0  0
  -24.6730  -15.8330   20.5146 H   0  0  0  0  0  0
  -26.2826  -15.6086   20.0553 H   0  0  0  0  0  0
  -26.7057  -32.5604   23.1176 H   0  0  0  0  0  0
  -24.9891  -33.9823   25.0397 H   0  0  0  0  0  0
  -22.6778  -31.2993   21.4035 H   0  0  0  0  0  0
  -23.3738  -35.9640   23.3310 H   0  0  0  0  0  0
  -24.3526  -36.8969   22.2057 H   0  0  0  0  0  0
  -23.7179  -37.6508   23.6669 H   0  0  0  0  0  0
  -25.9936  -31.6270   20.5738 H   0  0  0  0  0  0
  -26.8019  -30.9363   21.9520 H   0  0  0  0  0  0
  -28.0651  -29.2473   21.1479 H   0  0  0  0  0  0
  -26.1374  -25.9726   19.0778 H   0  0  0  0  0  0
  -24.0107  -27.2450   19.0750 H   0  0  0  0  0  0
  -23.6852  -30.5693   19.3939 H   0  0  0  0  0  0
  -22.7286  -29.2043   19.8877 H   0  0  0  0  0  0
  -25.1295  -36.2019   25.0822 H   0  0  0  0  0  0
  -20.9898  -28.3186   24.1495 H   0  0  0  0  0  0
  -20.5689  -26.2241   23.3621 H   0  0  0  0  0  0
  -21.6637  -26.7453   22.1236 H   0  0  0  0  0  0
  -19.6907  -25.6286   21.1267 H   0  0  0  0  0  0
  -19.6718  -27.3198   20.6770 H   0  0  0  0  0  0
  -17.4206  -26.6743   21.3959 H   0  0  0  0  0  0
  -18.0227  -26.0060   22.8959 H   0  0  0  0  0  0
  -19.7921  -30.7252   24.2308 H   0  0  0  0  0  0
  -17.5009  -31.6278   24.5146 H   0  0  0  0  0  0
  -15.5356  -30.3027   23.7619 H   0  0  0  0  0  0
  -15.8640  -28.0867   22.7017 H   0  0  0  0  0  0
  -24.5828  -30.7123   25.7750 H   0  0  0  0  0  0
  -24.8923  -32.2862   26.4954 H   0  0  0  0  0  0
  -25.8042  -30.8806   27.0157 H   0  0  0  0  0  0
  -26.2848  -29.6912   24.0978 H   0  0  0  0  0  0
  -27.3976  -29.7294   25.4481 H   0  0  0  0  0  0
  -27.8683  -30.4475   23.9224 H   0  0  0  0  0  0
  -27.2481  -33.3631   26.2145 H   0  0  0  0  0  0
  -28.3740  -32.7073   25.0368 H   0  0  0  0  0  0
  -28.0624  -31.8492   26.5400 H   0  0  0  0  0  0
  -28.2595  -38.0122   24.7510 H   0  0  0  0  0  0
  -28.1064  -36.2655   24.6289 H   0  0  0  0  0  0
  -27.2272  -37.1497   25.8854 H   0  0  0  0  0  0
  -20.9251  -29.8712   21.7000 H   0  0  0  0  0  0
  -26.0177  -38.2903   24.1435 H   0  0  0  0  0  0
  -29.3849  -22.9651   22.3568 H   0  0  0  0  0  0
  -32.9138  -25.3549   22.2645 H   0  0  0  0  0  0
  -32.0624  -17.5154   21.3001 H   0  0  0  0  0  0
  -32.0276  -17.8776   23.0082 H   0  0  0  0  0  0
  -28.3741  -18.0898   20.7158 H   0  0  0  0  0  0
  -29.8688  -17.6056   19.9338 H   0  0  0  0  0  0
  -30.6316  -15.9124   23.4816 H   0  0  0  0  0  0
  -32.0630  -15.4247   22.6216 H   0  0  0  0  0  0
  -28.4768  -15.7325   20.4058 H   0  0  0  0  0  0
  -28.3633  -16.0667   22.1097 H   0  0  0  0  0  0
  -29.5553  -18.1700   22.8973 H   0  0  0  0  0  0
  -33.1899  -19.9148   22.8362 H   0  0  0  0  0  0
  -33.3650  -20.6138   24.4514 H   0  0  0  0  0  0
  -34.5335  -20.9609   23.1788 H   0  0  0  0  0  0
  -29.2075  -21.2826   24.6464 H   0  0  0  0  0  0
  -28.6563  -19.7569   24.0111 H   0  0  0  0  0  0
  -28.3692  -21.2182   23.1045 H   0  0  0  0  0  0
  -29.7601  -19.8579   19.7257 H   0  0  0  0  0  0
  -30.0505  -21.3903   20.4544 H   0  0  0  0  0  0
  -28.6093  -20.4934   20.9081 H   0  0  0  0  0  0
  -36.3536  -24.4252   22.7957 H   0  0  0  0  0  0
  -34.9617  -25.3847   23.2713 H   0  0  0  0  0  0
  -35.1349  -24.8107   21.5934 H   0  0  0  0  0  0
  -29.9939  -28.0611   20.0661 H   0  0  0  0  0  0
  -29.3935  -27.6767   21.6789 H   0  0  0  0  0  0
  -31.6030  -26.6738   21.1648 H   0  0  0  0  0  0
  -30.8536  -25.6367   19.9520 H   0  0  0  0  0  0
  -31.0698  -19.9633   23.7514 H   0  0  0  0  0  0
  -31.3784  -19.7528   21.4242 H   0  0  0  0  0  0
  1 25  1  0  0  0
  1 30  2  0  0  0
  1 89  1  0  0  0
  2  3  1  0  0  0
  2 25  1  0  0  0
  2 93  1  0  0  0
  2 94  1  0  0  0
  3  4  1  0  0  0
  3 95  1  0  0  0
  3 96  1  0  0  0
  4  5  1  0  0  0
  4 97  1  0  0  0
  4 98  1  0  0  0
  5  6  1  0  0  0
  5 26  1  0  0  0
  5 99  1  0  0  0
  6 25  1  0  0  0
  6100  1  0  0  0
  6101  1  0  0  0
  7  8  2  0  0  0
  7 26  1  0  0  0
  7 29  1  0  0  0
  8  9  1  0  0  0
  8 22  1  0  0  0
  9 10  1  0  0  0
  9 27  2  0  0  0
 10 11  2  0  0  0
 10 15  1  0  0  0
 11 12  1  0  0  0
 11102  1  0  0  0
 12 13  2  0  0  0
 12103  1  0  0  0
 13 14  1  0  0  0
 13 31  1  0  0  0
 14 15  2  0  0  0
 14104  1  0  0  0
 15105  1  0  0  0
 16 17  2  0  0  0
 16 21  1  0  0  0
 16 31  1  0  0  0
 17 18  1  0  0  0
 17106  1  0  0  0
 18 19  2  0  0  0
 18107  1  0  0  0
 19 20  1  0  0  0
 19 24  1  0  0  0
 20 21  2  0  0  0
 20108  1  0  0  0
 21 23  1  0  0  0
 22 28  1  0  0  0
 22 32  2  0  0  0
 26 27  1  0  0  0
 28109  1  0  0  0
 28110  1  0  0  0
 29111  1  0  0  0
 29112  1  0  0  0
 33 34  1  0  0  0
 33 66  1  0  0  0
 33 70  2  0  0  0
 34 36  1  0  0  0
 34 59  1  0  0  0
 34113  1  0  0  0
 35 44  2  0  0  0
 35 45  1  0  0  0
 35 68  1  0  0  0
 36 56  1  0  0  0
 36114  1  0  0  0
 37 39  1  0  0  0
 37 47  1  0  0  0
 37 66  1  0  0  0
 37115  1  0  0  0
 38 43  2  0  0  0
 38 46  1  0  0  0
 38 47  1  0  0  0
 39 64  1  0  0  0
 39 67  2  0  0  0
 40 52  1  0  0  0
 40 53  2  0  0  0
 40 58  1  0  0  0
 41116  1  0  0  0
 41117  1  0  0  0
 41118  1  0  0  0
 41 48  1  0  0  0
 42 43  1  0  0  0
 42 66  1  0  0  0
 42119  1  0  0  0
 42120  1  0  0  0
 43 44  1  0  0  0
 44121  1  0  0  0
 45 46  2  0  0  0
 45122  1  0  0  0
 46123  1  0  0  0
 47124  1  0  0  0
 47125  1  0  0  0
 48 56  1  0  0  0
 48 65  1  0  0  0
 48126  1  0  0  0
 49 50  1  0  0  0
 49 53  1  0  0  0
 49 64  1  0  0  0
 49127  1  0  0  0
 50 51  1  0  0  0
 50128  1  0  0  0
 50129  1  0  0  0
 51 52  1  0  0  0
 51130  1  0  0  0
 51131  1  0  0  0
 52132  1  0  0  0
 52133  1  0  0  0
 53 54  1  0  0  0
 54 55  2  0  0  0
 54134  1  0  0  0
 55 57  1  0  0  0
 55135  1  0  0  0
 56 69  2  0  0  0
 57 58  2  0  0  0
 57136  1  0  0  0
 58137  1  0  0  0
 59 60  1  0  0  0
 59 61  1  0  0  0
 59 62  1  0  0  0
 60138  1  0  0  0
 60139  1  0  0  0
 60140  1  0  0  0
 61141  1  0  0  0
 61142  1  0  0  0
 61143  1  0  0  0
 62144  1  0  0  0
 62145  1  0  0  0
 62146  1  0  0  0
 63 65  1  0  0  0
 63147  1  0  0  0
 63148  1  0  0  0
 63149  1  0  0  0
 64150  1  0  0  0
 65151  1  0  0  0
 68 86  1  0  0  0
 71 73  2  0  0  0
 71 75  1  0  0  0
 71152  1  0  0  0
 72 75  2  0  0  0
 72 76  1  0  0  0
 72153  1  0  0  0
 73 74  1  0  0  0
 73 88  1  0  0  0
 74 76  2  0  0  0
 74 82  1  0  0  0
 75 92  1  0  0  0
 76 91  1  0  0  0
 77 79  1  0  0  0
 77154  1  0  0  0
 77155  1  0  0  0
 77 81  1  0  0  0
 78 80  1  0  0  0
 78 81  1  0  0  0
 78156  1  0  0  0
 78157  1  0  0  0
 79 89  1  0  0  0
 79158  1  0  0  0
 79159  1  0  0  0
 80 89  1  0  0  0
 80160  1  0  0  0
 80161  1  0  0  0
 81 90  1  0  0  0
 81162  1  0  0  0
 82163  1  0  0  0
 82164  1  0  0  0
 82165  1  0  0  0
 83166  1  0  0  0
 83167  1  0  0  0
 83168  1  0  0  0
 83 88  1  0  0  0
 84169  1  0  0  0
 84170  1  0  0  0
 84171  1  0  0  0
 84 90  1  0  0  0
 85 91  1  0  0  0
 85172  1  0  0  0
 85173  1  0  0  0
 85174  1  0  0  0
 86 87  1  0  0  0
 86175  1  0  0  0
 86176  1  0  0  0
 87 92  1  0  0  0
 87177  1  0  0  0
 87178  1  0  0  0
 88 90  1  0  0  0
 88179  1  0  0  0
 90180  1  0  0  0
M  CHG  1  90   1
M  ISO  4   1 100  68 101  86 101  89 100
M  END
> <chiral flag>
0

> <version>
0

> <s_m_source_file>
/data/baiqing/PycharmProjects/Reinvent-master-3.2/result/LINK_invent/BTK/process_docking_weight1_custom_sum_contain_oxygen_bond_distance_aromatic_linkinvent_7_9_3/rearranged_h_0156.sdf

> <i_m_source_file_index>
40

> <r_mmod_Potential_Energy-OPLS-2005>
76.6941375732422

> <r_mmod_Stretch_Energy-OPLS-2005>
43.6098937988281

> <r_mmod_Bend_Energy-OPLS-2005>
129.625289916992

> <r_mmod_Torsional_Energy-OPLS-2005>
322.843780517578

> <r_mmod_Improper_Torsional_Energy-OPLS-2005>
3.77709674835205

> <r_mmod_Van_der_Waal_Energy-OPLS-2005>
193.897994995117

> <r_mmod_Electrostatic_Energy-OPLS-2005>
-204.648086547852

> <r_mmod_Solvation_Energy-OPLS-2005>
-422.677185058594

> <b_mmod_Minimization_Converged-OPLS-2005>
0

> <r_mmod_RMS_Derivative-OPLS-2005>
2.89123582839966

$$$$
40
                    3D
 Structure written by MMmdl.
173183  0  0  1  0            999 V2000
  -30.6923  -14.6586   20.4657 C   0  0  0  0  0  0
  -30.4097  -12.3993   19.4675 C   0  0  0  0  0  0
  -29.4925  -12.4922   18.2295 C   0  0  0  0  0  0
  -28.0159  -12.3490   18.6394 C   0  0  0  0  0  0
  -27.6403  -13.2365   19.8568 C   0  0  2  0  0  0
  -28.6910  -13.1703   20.9878 C   0  0  0  0  0  0
  -25.2499  -13.8200   20.5761 C   0  0  0  0  0  0
  -24.1802  -13.0443   20.9255 C   0  0  0  0  0  0
  -24.6420  -11.6926   20.8839 C   0  0  0  0  0  0
  -23.9113  -10.4297   21.0478 C   0  0  0  0  0  0
  -24.3664   -9.4197   21.9229 C   0  0  0  0  0  0
  -23.6329   -8.2228   22.0757 C   0  0  0  0  0  0
  -22.4317   -8.0300   21.3540 C   0  0  0  0  0  0
  -21.9984   -9.0281   20.4635 C   0  0  0  0  0  0
  -22.7317  -10.2168   20.3084 C   0  0  0  0  0  0
  -21.6838   -6.0785   22.5305 C   0  0  0  0  0  0
  -21.3994   -6.5670   23.8253 C   0  0  0  0  0  0
  -21.3672   -5.6818   24.9210 C   0  0  0  0  0  0
  -21.6053   -4.3076   24.7273 C   0  0  0  0  0  0
  -21.8804   -3.8182   23.4375 C   0  0  0  0  0  0
  -21.9179   -4.7007   22.3448 C   0  0  0  0  0  0
  -22.7805  -13.5197   21.1936 C   0  0  0  0  0  0
  -22.1630   -4.2188   21.1013 F   0  0  0  0  0  0
  -21.5663   -3.4557   25.7776 F   0  0  0  0  0  0
  -30.0032  -13.4725   20.3975 N   0  0  0  0  0  0
  -26.2935  -12.9422   20.3379 N   0  0  0  0  0  0
  -25.9356  -11.6563   20.5880 N   0  0  0  0  0  0
  -22.0450  -12.8186   22.0473 N   0  0  0  0  0  0
  -25.4253  -15.1927   20.4176 N   0  0  0  0  0  0
  -31.8757  -14.7200   20.1278 O   0  0  0  0  0  0
  -21.6626   -6.8936   21.4274 O   0  0  0  0  0  0
  -22.3510  -14.5540   20.6818 O   0  0  0  0  0  0
  -24.6242  -31.8594   23.1953 C   0  0  0  0  0  0
  -25.9114  -32.4755   23.8268 C   0  0  1  0  0  0
  -27.2286  -27.3181   20.1594 C   0  0  0  0  0  0
  -25.5964  -33.8565   24.2188 N   0  0  0  0  0  0
  -23.4139  -30.4759   21.5392 C   0  0  2  0  0  0
  -24.8642  -28.9237   20.1116 C   0  0  0  0  0  0
  -22.7497  -29.4591   22.4977 C   0  0  0  0  0  0
  -18.0311  -28.1393   22.8501 C   0  0  0  0  0  0
  -24.1489  -36.7306   23.2626 C   0  0  0  0  0  0
  -25.9473  -30.7977   21.3542 C   0  0  0  0  0  0
  -26.0272  -29.4153   20.7196 C   0  0  0  0  0  0
  -27.2145  -28.6250   20.7306 C   0  0  0  0  0  0
  -26.0514  -26.8759   19.5175 C   0  0  0  0  0  0
  -24.8803  -27.6619   19.4934 C   0  0  0  0  0  0
  -23.6233  -29.7941   20.1571 C   0  0  0  0  0  0
  -25.4132  -36.3068   24.0269 C   0  0  1  0  0  0
  -20.5904  -28.3685   23.1359 C   0  0  2  0  0  0
  -20.6794  -26.9407   22.5475 C   0  0  0  0  0  0
  -19.5781  -26.6396   21.5250 C   0  0  0  0  0  0
  -18.1937  -26.7968   22.1588 C   0  0  0  0  0  0
  -19.1554  -28.8865   23.2906 C   0  0  0  0  0  0
  -18.9476  -30.1490   23.8890 C   0  0  0  0  0  0
  -17.6468  -30.6590   24.0572 C   0  0  0  0  0  0
  -25.9094  -34.9443   23.5026 C   0  0  0  0  0  0
  -16.5372  -29.9078   23.6340 C   0  0  0  0  0  0
  -16.7288  -28.6501   23.0359 C   0  0  0  0  0  0
  -26.4478  -31.6589   25.0675 C   0  0  0  0  0  0
  -25.3713  -31.3792   26.1420 C   0  0  0  0  0  0
  -27.0227  -30.2996   24.6072 C   0  0  0  0  0  0
  -27.6055  -32.4296   25.7468 C   0  0  0  0  0  0
  -27.5574  -37.1811   24.8456 C   0  0  0  0  0  0
  -21.4213  -29.3000   22.3744 N   0  0  0  0  0  0
  -26.4286  -37.3790   23.9398 N   0  0  0  0  0  0
  -24.6801  -31.0640   22.0865 N   0  0  0  0  0  0
  -23.4256  -28.8207   23.3079 O   0  0  0  0  0  0
  -28.3407  -26.4685   20.1907 O   0  0  0  0  0  0
  -26.5683  -34.8927   22.4611 O   0  0  0  0  0  0
  -23.5417  -32.1373   23.7325 O   0  0  0  0  0  0
  -30.1997  -21.7044   19.2455 C   0  0  0  0  0  0
  -28.8068  -22.5619   21.0169 C   0  0  0  0  0  0
  -29.4330  -21.4150   20.3916 C   0  0  0  0  0  0
  -30.3265  -23.0266   18.7823 C   0  0  0  0  0  0
  -28.9189  -23.8855   20.4217 C   0  0  0  0  0  0
  -30.1594  -22.8058   23.9027 C   0  0  0  0  0  0
  -29.0614  -22.4077   24.8547 C   0  0  0  0  0  0
  -30.6785  -18.0956   21.7372 C   0  0  0  0  0  0
  -30.0332  -18.0764   19.3077 C   0  0  0  0  0  0
  -30.0610  -16.6546   21.8755 C   0  0  0  0  0  0
  -29.4358  -16.6333   19.5287 C   0  0  0  0  0  0
  -29.0501  -21.8916   23.4287 C   0  0  0  0  0  0
  -30.2640  -19.0069   20.5424 C   0  0  0  0  0  0
  -31.2350  -23.3409   17.6124 C   0  0  0  0  0  0
  -26.8284  -21.5074   22.2451 C   0  0  0  0  0  0
  -28.1857  -25.1899   20.9317 C   0  0  0  0  0  0
  -28.0799  -22.3891   22.3582 C   0  0  2  0  0  0
  -29.6909  -24.0791   19.3328 N   0  0  0  0  0  0
  -29.9858  -15.8319   20.6494 N   0  0  0  0  0  0
  -29.2907  -20.0786   20.8602 O   0  0  0  0  0  0
  -31.4561  -12.4763   19.1680 H   0  0  0  0  0  0
  -30.3049  -11.4287   19.9556 H   0  0  0  0  0  0
  -29.7531  -11.7159   17.5083 H   0  0  0  0  0  0
  -29.6396  -13.4487   17.7259 H   0  0  0  0  0  0
  -27.8383  -11.2978   18.8719 H   0  0  0  0  0  0
  -27.3659  -12.5836   17.7951 H   0  0  0  0  0  0
  -27.6337  -14.2619   19.4896 H   0  0  0  0  0  0
  -28.7025  -12.1852   21.4560 H   0  0  0  0  0  0
  -28.4431  -13.8866   21.7750 H   0  0  0  0  0  0
  -25.2804   -9.5638   22.4814 H   0  0  0  0  0  0
  -24.0031   -7.4598   22.7456 H   0  0  0  0  0  0
  -21.0934   -8.8840   19.8909 H   0  0  0  0  0  0
  -22.3814  -10.9735   19.6208 H   0  0  0  0  0  0
  -21.1932   -7.6166   23.9777 H   0  0  0  0  0  0
  -21.1513   -6.0541   25.9123 H   0  0  0  0  0  0
  -22.0568   -2.7640   23.2892 H   0  0  0  0  0  0
  -22.4048  -11.9803   22.4801 H   0  0  0  0  0  0
  -21.1063  -13.1201   22.2714 H   0  0  0  0  0  0
  -24.6718  -15.8605   20.5349 H   0  0  0  0  0  0
  -26.2955  -15.6237   20.1354 H   0  0  0  0  0  0
  -26.7217  -32.5444   23.1061 H   0  0  0  0  0  0
  -25.0118  -33.9674   25.0334 H   0  0  0  0  0  0
  -22.7014  -31.2908   21.3947 H   0  0  0  0  0  0
  -23.3736  -35.9645   23.3252 H   0  0  0  0  0  0
  -24.3575  -36.9013   22.2053 H   0  0  0  0  0  0
  -23.7230  -37.6476   23.6724 H   0  0  0  0  0  0
  -26.0576  -31.5444   20.5665 H   0  0  0  0  0  0
  -26.8377  -30.8720   21.9653 H   0  0  0  0  0  0
  -28.1091  -29.0028   21.2048 H   0  0  0  0  0  0
  -26.0332  -25.9031   19.0461 H   0  0  0  0  0  0
  -23.9928  -27.2820   19.0040 H   0  0  0  0  0  0
  -23.7199  -30.5558   19.3831 H   0  0  0  0  0  0
  -22.7472  -29.2034   19.8798 H   0  0  0  0  0  0
  -25.1305  -36.1873   25.0743 H   0  0  0  0  0  0
  -20.9957  -28.3268   24.1503 H   0  0  0  0  0  0
  -20.5704  -26.2296   23.3673 H   0  0  0  0  0  0
  -21.6669  -26.7450   22.1288 H   0  0  0  0  0  0
  -19.6946  -25.6313   21.1264 H   0  0  0  0  0  0
  -19.6759  -27.3225   20.6810 H   0  0  0  0  0  0
  -17.4263  -26.6843   21.3911 H   0  0  0  0  0  0
  -18.0228  -26.0051   22.8900 H   0  0  0  0  0  0
  -19.7949  -30.7324   24.2223 H   0  0  0  0  0  0
  -17.5011  -31.6249   24.5235 H   0  0  0  0  0  0
  -15.5361  -30.2958   23.7684 H   0  0  0  0  0  0
  -15.8709  -28.0801   22.7074 H   0  0  0  0  0  0
  -24.6005  -30.6949   25.7873 H   0  0  0  0  0  0
  -24.8749  -32.2953   26.4618 H   0  0  0  0  0  0
  -25.8081  -30.9249   27.0319 H   0  0  0  0  0  0
  -26.2718  -29.6855   24.1084 H   0  0  0  0  0  0
  -27.3917  -29.7163   25.4515 H   0  0  0  0  0  0
  -27.8616  -30.4260   23.9231 H   0  0  0  0  0  0
  -27.2696  -33.3654   26.1937 H   0  0  0  0  0  0
  -28.3963  -32.6724   25.0369 H   0  0  0  0  0  0
  -28.0584  -31.8450   26.5485 H   0  0  0  0  0  0
  -28.2615  -38.0081   24.7447 H   0  0  0  0  0  0
  -28.1023  -36.2605   24.6311 H   0  0  0  0  0  0
  -27.2310  -37.1542   25.8868 H   0  0  0  0  0  0
  -20.9458  -29.8672   21.6874 H   0  0  0  0  0  0
  -26.0129  -38.2841   24.1430 H   0  0  0  0  0  0
  -30.7130  -20.9264   18.7044 H   0  0  0  0  0  0
  -31.1444  -22.3705   24.0606 H   0  0  0  0  0  0
  -30.1633  -23.8315   23.5411 H   0  0  0  0  0  0
  -28.3474  -23.1757   25.1433 H   0  0  0  0  0  0
  -29.3582  -21.7296   25.6547 H   0  0  0  0  0  0
  -31.7617  -17.9675   21.6707 H   0  0  0  0  0  0
  -30.5158  -18.6439   22.6652 H   0  0  0  0  0  0
  -29.4592  -18.6034   18.5431 H   0  0  0  0  0  0
  -31.0126  -17.9253   18.8533 H   0  0  0  0  0  0
  -29.0492  -16.7251   22.2747 H   0  0  0  0  0  0
  -30.6363  -16.1102   22.6267 H   0  0  0  0  0  0
  -29.5443  -16.0639   18.6012 H   0  0  0  0  0  0
  -28.3641  -16.7196   19.6948 H   0  0  0  0  0  0
  -29.3298  -20.8462   23.3138 H   0  0  0  0  0  0
  -31.1804  -19.5583   20.3305 H   0  0  0  0  0  0
  -31.5326  -22.4301   17.0925 H   0  0  0  0  0  0
  -32.1383  -23.8376   17.9675 H   0  0  0  0  0  0
  -30.7491  -23.9999   16.8924 H   0  0  0  0  0  0
  -26.1613  -21.8658   21.4605 H   0  0  0  0  0  0
  -26.2664  -21.5141   23.1787 H   0  0  0  0  0  0
  -27.0752  -20.4697   22.0248 H   0  0  0  0  0  0
  -28.5435  -25.3911   21.9442 H   0  0  0  0  0  0
  -27.1332  -24.9337   21.0452 H   0  0  0  0  0  0
  -27.7258  -23.3592   22.7019 H   0  0  0  0  0  0
  1 25  1  0  0  0
  1 30  2  0  0  0
  1 89  1  0  0  0
  2  3  1  0  0  0
  2 25  1  0  0  0
  2 91  1  0  0  0
  2 92  1  0  0  0
  3  4  1  0  0  0
  3 93  1  0  0  0
  3 94  1  0  0  0
  4  5  1  0  0  0
  4 95  1  0  0  0
  4 96  1  0  0  0
  5  6  1  0  0  0
  5 26  1  0  0  0
  5 97  1  0  0  0
  6 25  1  0  0  0
  6 98  1  0  0  0
  6 99  1  0  0  0
  7  8  2  0  0  0
  7 26  1  0  0  0
  7 29  1  0  0  0
  8  9  1  0  0  0
  8 22  1  0  0  0
  9 10  1  0  0  0
  9 27  2  0  0  0
 10 11  2  0  0  0
 10 15  1  0  0  0
 11 12  1  0  0  0
 11100  1  0  0  0
 12 13  2  0  0  0
 12101  1  0  0  0
 13 14  1  0  0  0
 13 31  1  0  0  0
 14 15  2  0  0  0
 14102  1  0  0  0
 15103  1  0  0  0
 16 17  2  0  0  0
 16 21  1  0  0  0
 16 31  1  0  0  0
 17 18  1  0  0  0
 17104  1  0  0  0
 18 19  2  0  0  0
 18105  1  0  0  0
 19 20  1  0  0  0
 19 24  1  0  0  0
 20 21  2  0  0  0
 20106  1  0  0  0
 21 23  1  0  0  0
 22 28  1  0  0  0
 22 32  2  0  0  0
 26 27  1  0  0  0
 28107  1  0  0  0
 28108  1  0  0  0
 29109  1  0  0  0
 29110  1  0  0  0
 33 34  1  0  0  0
 33 66  1  0  0  0
 33 70  2  0  0  0
 34 36  1  0  0  0
 34 59  1  0  0  0
 34111  1  0  0  0
 35 44  2  0  0  0
 35 45  1  0  0  0
 35 68  1  0  0  0
 36 56  1  0  0  0
 36112  1  0  0  0
 37 39  1  0  0  0
 37 47  1  0  0  0
 37 66  1  0  0  0
 37113  1  0  0  0
 38 43  2  0  0  0
 38 46  1  0  0  0
 38 47  1  0  0  0
 39 64  1  0  0  0
 39 67  2  0  0  0
 40 52  1  0  0  0
 40 53  2  0  0  0
 40 58  1  0  0  0
 41114  1  0  0  0
 41115  1  0  0  0
 41116  1  0  0  0
 41 48  1  0  0  0
 42 43  1  0  0  0
 42 66  1  0  0  0
 42117  1  0  0  0
 42118  1  0  0  0
 43 44  1  0  0  0
 44119  1  0  0  0
 45 46  2  0  0  0
 45120  1  0  0  0
 46121  1  0  0  0
 47122  1  0  0  0
 47123  1  0  0  0
 48 56  1  0  0  0
 48 65  1  0  0  0
 48124  1  0  0  0
 49 50  1  0  0  0
 49 53  1  0  0  0
 49 64  1  0  0  0
 49125  1  0  0  0
 50 51  1  0  0  0
 50126  1  0  0  0
 50127  1  0  0  0
 51 52  1  0  0  0
 51128  1  0  0  0
 51129  1  0  0  0
 52130  1  0  0  0
 52131  1  0  0  0
 53 54  1  0  0  0
 54 55  2  0  0  0
 54132  1  0  0  0
 55 57  1  0  0  0
 55133  1  0  0  0
 56 69  2  0  0  0
 57 58  2  0  0  0
 57134  1  0  0  0
 58135  1  0  0  0
 59 60  1  0  0  0
 59 61  1  0  0  0
 59 62  1  0  0  0
 60136  1  0  0  0
 60137  1  0  0  0
 60138  1  0  0  0
 61139  1  0  0  0
 61140  1  0  0  0
 61141  1  0  0  0
 62142  1  0  0  0
 62143  1  0  0  0
 62144  1  0  0  0
 63 65  1  0  0  0
 63145  1  0  0  0
 63146  1  0  0  0
 63147  1  0  0  0
 64148  1  0  0  0
 65149  1  0  0  0
 68 86  1  0  0  0
 71 73  2  0  0  0
 71 74  1  0  0  0
 71150  1  0  0  0
 72 73  1  0  0  0
 72 75  2  0  0  0
 72 87  1  0  0  0
 73 90  1  0  0  0
 74 84  1  0  0  0
 74 88  2  0  0  0
 75 86  1  0  0  0
 75 88  1  0  0  0
 76 77  1  0  0  0
 76151  1  0  0  0
 76152  1  0  0  0
 76 82  1  0  0  0
 77 82  1  0  0  0
 77153  1  0  0  0
 77154  1  0  0  0
 78 80  1  0  0  0
 78 83  1  0  0  0
 78155  1  0  0  0
 78156  1  0  0  0
 79 81  1  0  0  0
 79 83  1  0  0  0
 79157  1  0  0  0
 79158  1  0  0  0
 80 89  1  0  0  0
 80159  1  0  0  0
 80160  1  0  0  0
 81 89  1  0  0  0
 81161  1  0  0  0
 81162  1  0  0  0
 82 87  1  0  0  0
 82163  1  0  0  0
 83 90  1  0  0  0
 83164  1  0  0  0
 84165  1  0  0  0
 84166  1  0  0  0
 84167  1  0  0  0
 85168  1  0  0  0
 85169  1  0  0  0
 85170  1  0  0  0
 85 87  1  0  0  0
 86171  1  0  0  0
 86172  1  0  0  0
 87173  1  0  0  0
M  ISO  4   1 100  68 101  86 101  89 100
M  END
> <chiral flag>
0

> <version>
0

> <s_m_source_file>
/data/baiqing/PycharmProjects/Reinvent-master-3.2/result/LINK_invent/BTK/process_docking_weight1_custom_sum_contain_oxygen_bond_distance_aromatic_linkinvent_7_9_3/rearranged_h_0156.sdf

> <i_m_source_file_index>
41

> <r_mmod_Potential_Energy-OPLS-2005>
247.107147216797

> <r_mmod_Stretch_Energy-OPLS-2005>
92.5018615722656

> <r_mmod_Bend_Energy-OPLS-2005>
167.913452148438

> <r_mmod_Torsional_Energy-OPLS-2005>
423.775421142578

> <r_mmod_Improper_Torsional_Energy-OPLS-2005>
7.12889337539673

> <r_mmod_Van_der_Waal_Energy-OPLS-2005>
132.155548095703

> <r_mmod_Electrostatic_Energy-OPLS-2005>
-424.089721679688

> <r_mmod_Solvation_Energy-OPLS-2005>
-209.201736450195

> <b_mmod_Minimization_Converged-OPLS-2005>
0

> <r_mmod_RMS_Derivative-OPLS-2005>
4.50752925872803

$$$$
41
                    3D
 Structure written by MMmdl.
170180  0  0  1  0            999 V2000
  -30.5233  -14.9871   20.4137 C   0  0  0  0  0  0
  -30.4255  -12.6058   19.5132 C   0  0  0  0  0  0
  -29.5140  -12.5494   18.2643 C   0  0  0  0  0  0
  -28.0501  -12.3193   18.6814 C   0  0  0  0  0  0
  -27.6208  -13.2557   19.8394 C   0  0  2  0  0  0
  -28.6600  -13.3037   20.9789 C   0  0  0  0  0  0
  -25.2401  -13.8225   20.5726 C   0  0  0  0  0  0
  -24.1741  -13.0438   20.9223 C   0  0  0  0  0  0
  -24.6381  -11.6921   20.8758 C   0  0  0  0  0  0
  -23.9090  -10.4281   21.0412 C   0  0  0  0  0  0
  -24.3637   -9.4183   21.9183 C   0  0  0  0  0  0
  -23.6307   -8.2225   22.0737 C   0  0  0  0  0  0
  -22.4282   -8.0273   21.3540 C   0  0  0  0  0  0
  -21.9935   -9.0251   20.4629 C   0  0  0  0  0  0
  -22.7271  -10.2123   20.3047 C   0  0  0  0  0  0
  -21.6844   -6.0738   22.5270 C   0  0  0  0  0  0
  -21.4024   -6.5650   23.8207 C   0  0  0  0  0  0
  -21.3663   -5.6795   24.9168 C   0  0  0  0  0  0
  -21.6039   -4.3053   24.7220 C   0  0  0  0  0  0
  -21.8813   -3.8150   23.4334 C   0  0  0  0  0  0
  -21.9193   -4.6970   22.3396 C   0  0  0  0  0  0
  -22.7757  -13.5167   21.1923 C   0  0  0  0  0  0
  -22.1656   -4.2158   21.0964 F   0  0  0  0  0  0
  -21.5631   -3.4536   25.7730 F   0  0  0  0  0  0
  -29.9358  -13.7183   20.3802 N   0  0  0  0  0  0
  -26.2823  -12.9471   20.3262 N   0  0  0  0  0  0
  -25.9307  -11.6595   20.5762 N   0  0  0  0  0  0
  -22.0474  -12.8108   22.0487 N   0  0  0  0  0  0
  -25.4070  -15.1958   20.4118 N   0  0  0  0  0  0
  -31.7300  -15.0439   20.1475 O   0  0  0  0  0  0
  -21.6634   -6.8880   21.4233 O   0  0  0  0  0  0
  -22.3408  -14.5483   20.6798 O   0  0  0  0  0  0
  -24.6480  -31.8378   23.1746 C   0  0  0  0  0  0
  -25.9218  -32.4669   23.8176 C   0  0  1  0  0  0
  -27.2252  -27.0832   20.1654 C   0  0  0  0  0  0
  -25.5927  -33.8468   24.2079 N   0  0  0  0  0  0
  -23.4526  -30.4464   21.5269 C   0  0  2  0  0  0
  -24.8996  -28.8522   20.1136 C   0  0  0  0  0  0
  -22.7581  -29.4494   22.4889 C   0  0  0  0  0  0
  -18.0275  -28.1379   22.8452 C   0  0  0  0  0  0
  -24.1489  -36.7289   23.2650 C   0  0  0  0  0  0
  -26.0093  -30.6909   21.3783 C   0  0  0  0  0  0
  -26.0792  -29.2923   20.7315 C   0  0  0  0  0  0
  -27.2391  -28.4264   20.7344 C   0  0  0  0  0  0
  -26.0242  -26.7492   19.5105 C   0  0  0  0  0  0
  -24.8907  -27.5950   19.4851 C   0  0  0  0  0  0
  -23.6755  -29.7573   20.1527 C   0  0  0  0  0  0
  -25.4122  -36.3020   24.0294 C   0  0  1  0  0  0
  -20.5895  -28.3718   23.1256 C   0  0  2  0  0  0
  -20.6776  -26.9428   22.5422 C   0  0  0  0  0  0
  -19.5759  -26.6356   21.5225 C   0  0  0  0  0  0
  -18.1918  -26.7904   22.1605 C   0  0  0  0  0  0
  -19.1538  -28.8857   23.2826 C   0  0  0  0  0  0
  -18.9470  -30.1447   23.8867 C   0  0  0  0  0  0
  -17.6478  -30.6588   24.0535 C   0  0  0  0  0  0
  -25.9090  -34.9407   23.5011 C   0  0  0  0  0  0
  -16.5362  -29.9085   23.6346 C   0  0  0  0  0  0
  -16.7267  -28.6492   23.0370 C   0  0  0  0  0  0
  -26.4489  -31.6564   25.0668 C   0  0  0  0  0  0
  -25.3627  -31.3799   26.1349 C   0  0  0  0  0  0
  -27.0394  -30.2965   24.6278 C   0  0  0  0  0  0
  -27.5977  -32.4385   25.7478 C   0  0  0  0  0  0
  -27.5563  -37.1787   24.8454 C   0  0  0  0  0  0
  -21.4268  -29.3045   22.3651 N   0  0  0  0  0  0
  -26.4275  -37.3740   23.9409 N   0  0  0  0  0  0
  -24.7241  -31.0161   22.0806 N   0  0  0  0  0  0
  -23.4203  -28.8058   23.3066 O   0  0  0  0  0  0
  -28.3186  -26.1347   20.1409 O   0  0  0  0  0  0
  -26.5723  -34.8923   22.4622 O   0  0  0  0  0  0
  -23.5587  -32.1291   23.6920 O   0  0  0  0  0  0
  -29.1116  -20.0498   21.6797 C   0  0  0  0  0  0
  -28.7729  -20.4281   23.0494 C   0  0  0  0  0  0
  -29.4956  -18.6671   21.6262 C   0  0  0  0  0  0
  -28.9601  -19.4066   23.9549 C   0  0  0  0  0  0
  -29.3580  -18.5646   19.2355 C   0  0  0  0  0  0
  -29.7586  -23.9109   20.3749 C   0  0  0  0  0  0
  -27.5644  -23.4099   19.6892 C   0  0  0  0  0  0
  -29.5179  -20.1827   19.2308 C   0  0  0  0  0  0
  -30.0673  -22.3549   20.7520 C   0  0  0  0  0  0
  -27.6813  -21.8808   20.2611 C   0  0  0  0  0  0
  -29.9644  -17.7558   20.4544 C   0  0  2  0  0  0
  -28.3170  -24.5850   20.4699 C   0  0  2  0  0  0
  -29.0818  -21.1029   20.4796 C   0  0  2  0  0  0
  -28.8036  -19.4353   25.4448 C   0  0  0  0  0  0
  -26.8676  -21.8820   24.0248 C   0  0  0  0  0  0
  -28.3264  -21.8028   23.5333 C   0  0  0  0  0  0
  -29.7302  -16.1729   20.5406 N   0  0  0  0  0  0
  -29.4527  -17.9291   23.1985 S   0  0  0  0  0  0
  -31.4669  -12.7395   19.2180 H   0  0  0  0  0  0
  -30.3909  -11.6576   20.0528 H   0  0  0  0  0  0
  -29.8386  -11.7630   17.5816 H   0  0  0  0  0  0
  -29.5894  -13.4879   17.7147 H   0  0  0  0  0  0
  -27.9530  -11.2789   18.9930 H   0  0  0  0  0  0
  -27.3822  -12.4417   17.8268 H   0  0  0  0  0  0
  -27.5760  -14.2541   19.4042 H   0  0  0  0  0  0
  -28.7448  -12.3332   21.4692 H   0  0  0  0  0  0
  -28.3510  -14.0106   21.7502 H   0  0  0  0  0  0
  -25.2781   -9.5655   22.4763 H   0  0  0  0  0  0
  -24.0015   -7.4599   22.7438 H   0  0  0  0  0  0
  -21.0876   -8.8764   19.8917 H   0  0  0  0  0  0
  -22.3738  -10.9667   19.6155 H   0  0  0  0  0  0
  -21.2020   -7.6163   23.9724 H   0  0  0  0  0  0
  -21.1496   -6.0523   25.9075 H   0  0  0  0  0  0
  -22.0594   -2.7612   23.2822 H   0  0  0  0  0  0
  -22.4161  -11.9749   22.4790 H   0  0  0  0  0  0
  -21.1096  -13.1070   22.2802 H   0  0  0  0  0  0
  -24.6345  -15.8464   20.4984 H   0  0  0  0  0  0
  -26.2529  -15.6335   20.0721 H   0  0  0  0  0  0
  -26.7289  -32.5233   23.0906 H   0  0  0  0  0  0
  -25.0026  -33.9573   25.0187 H   0  0  0  0  0  0
  -22.7591  -31.2721   21.3586 H   0  0  0  0  0  0
  -23.3752  -35.9622   23.3281 H   0  0  0  0  0  0
  -24.3576  -36.8979   22.2076 H   0  0  0  0  0  0
  -23.7260  -37.6467   23.6739 H   0  0  0  0  0  0
  -26.1613  -31.4287   20.5898 H   0  0  0  0  0  0
  -26.8843  -30.7544   22.0132 H   0  0  0  0  0  0
  -28.1414  -28.7615   21.2261 H   0  0  0  0  0  0
  -25.9626  -25.7985   19.0018 H   0  0  0  0  0  0
  -23.9991  -27.2517   18.9778 H   0  0  0  0  0  0
  -23.7952  -30.5212   19.3843 H   0  0  0  0  0  0
  -22.7901  -29.1906   19.8572 H   0  0  0  0  0  0
  -25.1298  -36.1820   25.0780 H   0  0  0  0  0  0
  -20.9935  -28.3293   24.1395 H   0  0  0  0  0  0
  -20.5704  -26.2324   23.3637 H   0  0  0  0  0  0
  -21.6635  -26.7454   22.1192 H   0  0  0  0  0  0
  -19.6974  -25.6261   21.1276 H   0  0  0  0  0  0
  -19.6697  -27.3133   20.6734 H   0  0  0  0  0  0
  -17.4199  -26.6645   21.3993 H   0  0  0  0  0  0
  -18.0290  -26.0038   22.8996 H   0  0  0  0  0  0
  -19.7961  -30.7233   24.2229 H   0  0  0  0  0  0
  -17.5051  -31.6277   24.5121 H   0  0  0  0  0  0
  -15.5368  -30.2994   23.7700 H   0  0  0  0  0  0
  -15.8648  -28.0808   22.7161 H   0  0  0  0  0  0
  -24.5798  -30.7159   25.7668 H   0  0  0  0  0  0
  -24.8820  -32.2996   26.4695 H   0  0  0  0  0  0
  -25.7850  -30.9021   27.0196 H   0  0  0  0  0  0
  -26.3022  -29.6678   24.1270 H   0  0  0  0  0  0
  -27.4015  -29.7277   25.4854 H   0  0  0  0  0  0
  -27.8899  -30.4242   23.9583 H   0  0  0  0  0  0
  -27.2521  -33.3739   26.1898 H   0  0  0  0  0  0
  -28.3853  -32.6880   25.0355 H   0  0  0  0  0  0
  -28.0547  -31.8616   26.5522 H   0  0  0  0  0  0
  -28.2538  -38.0119   24.7518 H   0  0  0  0  0  0
  -28.1086  -36.2644   24.6234 H   0  0  0  0  0  0
  -27.2288  -37.1383   25.8856 H   0  0  0  0  0  0
  -20.9499  -29.8843   21.6887 H   0  0  0  0  0  0
  -26.0143  -38.2812   24.1397 H   0  0  0  0  0  0
  -29.7782  -18.1667   18.3096 H   0  0  0  0  0  0
  -28.2909  -18.3444   19.1788 H   0  0  0  0  0  0
  -30.0990  -24.0534   19.3488 H   0  0  0  0  0  0
  -30.4435  -24.5186   20.9682 H   0  0  0  0  0  0
  -26.5041  -23.6519   19.6324 H   0  0  0  0  0  0
  -27.8979  -23.4048   18.6506 H   0  0  0  0  0  0
  -29.0408  -20.5735   18.3311 H   0  0  0  0  0  0
  -30.5809  -20.3504   19.0554 H   0  0  0  0  0  0
  -30.3108  -22.3608   21.8108 H   0  0  0  0  0  0
  -31.0406  -22.1129   20.3266 H   0  0  0  0  0  0
  -27.0378  -21.2288   19.6702 H   0  0  0  0  0  0
  -27.1585  -21.9089   21.2104 H   0  0  0  0  0  0
  -31.0492  -17.8668   20.3876 H   0  0  0  0  0  0
  -27.9801  -24.5258   21.5058 H   0  0  0  0  0  0
  -29.2060  -20.3563   25.8665 H   0  0  0  0  0  0
  -29.3381  -18.6083   25.9169 H   0  0  0  0  0  0
  -27.7550  -19.3554   25.7336 H   0  0  0  0  0  0
  -26.6112  -22.9067   24.3034 H   0  0  0  0  0  0
  -26.6926  -21.2595   24.9000 H   0  0  0  0  0  0
  -26.1590  -21.5787   23.2539 H   0  0  0  0  0  0
  -28.4397  -22.5684   22.7762 H   0  0  0  0  0  0
  -28.9910  -22.1432   24.3280 H   0  0  0  0  0  0
  -28.7643  -15.9455   20.7131 H   0  0  0  0  0  0
  1 25  1  0  0  0
  1 30  2  0  0  0
  1 87  1  0  0  0
  2  3  1  0  0  0
  2 25  1  0  0  0
  2 89  1  0  0  0
  2 90  1  0  0  0
  3  4  1  0  0  0
  3 91  1  0  0  0
  3 92  1  0  0  0
  4  5  1  0  0  0
  4 93  1  0  0  0
  4 94  1  0  0  0
  5  6  1  0  0  0
  5 26  1  0  0  0
  5 95  1  0  0  0
  6 25  1  0  0  0
  6 96  1  0  0  0
  6 97  1  0  0  0
  7  8  2  0  0  0
  7 26  1  0  0  0
  7 29  1  0  0  0
  8  9  1  0  0  0
  8 22  1  0  0  0
  9 10  1  0  0  0
  9 27  2  0  0  0
 10 11  2  0  0  0
 10 15  1  0  0  0
 11 12  1  0  0  0
 11 98  1  0  0  0
 12 13  2  0  0  0
 12 99  1  0  0  0
 13 14  1  0  0  0
 13 31  1  0  0  0
 14 15  2  0  0  0
 14100  1  0  0  0
 15101  1  0  0  0
 16 17  2  0  0  0
 16 21  1  0  0  0
 16 31  1  0  0  0
 17 18  1  0  0  0
 17102  1  0  0  0
 18 19  2  0  0  0
 18103  1  0  0  0
 19 20  1  0  0  0
 19 24  1  0  0  0
 20 21  2  0  0  0
 20104  1  0  0  0
 21 23  1  0  0  0
 22 28  1  0  0  0
 22 32  2  0  0  0
 26 27  1  0  0  0
 28105  1  0  0  0
 28106  1  0  0  0
 29107  1  0  0  0
 29108  1  0  0  0
 33 34  1  0  0  0
 33 66  1  0  0  0
 33 70  2  0  0  0
 34 36  1  0  0  0
 34 59  1  0  0  0
 34109  1  0  0  0
 35 44  2  0  0  0
 35 45  1  0  0  0
 35 68  1  0  0  0
 36 56  1  0  0  0
 36110  1  0  0  0
 37 39  1  0  0  0
 37 47  1  0  0  0
 37 66  1  0  0  0
 37111  1  0  0  0
 38 43  2  0  0  0
 38 46  1  0  0  0
 38 47  1  0  0  0
 39 64  1  0  0  0
 39 67  2  0  0  0
 40 52  1  0  0  0
 40 53  2  0  0  0
 40 58  1  0  0  0
 41112  1  0  0  0
 41113  1  0  0  0
 41114  1  0  0  0
 41 48  1  0  0  0
 42 43  1  0  0  0
 42 66  1  0  0  0
 42115  1  0  0  0
 42116  1  0  0  0
 43 44  1  0  0  0
 44117  1  0  0  0
 45 46  2  0  0  0
 45118  1  0  0  0
 46119  1  0  0  0
 47120  1  0  0  0
 47121  1  0  0  0
 48 56  1  0  0  0
 48 65  1  0  0  0
 48122  1  0  0  0
 49 50  1  0  0  0
 49 53  1  0  0  0
 49 64  1  0  0  0
 49123  1  0  0  0
 50 51  1  0  0  0
 50124  1  0  0  0
 50125  1  0  0  0
 51 52  1  0  0  0
 51126  1  0  0  0
 51127  1  0  0  0
 52128  1  0  0  0
 52129  1  0  0  0
 53 54  1  0  0  0
 54 55  2  0  0  0
 54130  1  0  0  0
 55 57  1  0  0  0
 55131  1  0  0  0
 56 69  2  0  0  0
 57 58  2  0  0  0
 57132  1  0  0  0
 58133  1  0  0  0
 59 60  1  0  0  0
 59 61  1  0  0  0
 59 62  1  0  0  0
 60134  1  0  0  0
 60135  1  0  0  0
 60136  1  0  0  0
 61137  1  0  0  0
 61138  1  0  0  0
 61139  1  0  0  0
 62140  1  0  0  0
 62141  1  0  0  0
 62142  1  0  0  0
 63 65  1  0  0  0
 63143  1  0  0  0
 63144  1  0  0  0
 63145  1  0  0  0
 64146  1  0  0  0
 65147  1  0  0  0
 68 82  1  0  0  0
 71 72  1  0  0  0
 71 73  2  0  0  0
 71 83  1  0  0  0
 72 74  2  0  0  0
 72 86  1  0  0  0
 73 81  1  0  0  0
 73 88  1  0  0  0
 74 84  1  0  0  0
 74 88  1  0  0  0
 75 78  1  0  0  0
 75 81  1  0  0  0
 75148  1  0  0  0
 75149  1  0  0  0
 76 79  1  0  0  0
 76 82  1  0  0  0
 76150  1  0  0  0
 76151  1  0  0  0
 77 80  1  0  0  0
 77 82  1  0  0  0
 77152  1  0  0  0
 77153  1  0  0  0
 78154  1  0  0  0
 78155  1  0  0  0
 78 83  1  0  0  0
 79 83  1  0  0  0
 79156  1  0  0  0
 79157  1  0  0  0
 80 83  1  0  0  0
 80158  1  0  0  0
 80159  1  0  0  0
 81 87  1  0  0  0
 81160  1  0  0  0
 82161  1  0  0  0
 84162  1  0  0  0
 84163  1  0  0  0
 84164  1  0  0  0
 85 86  1  0  0  0
 85165  1  0  0  0
 85166  1  0  0  0
 85167  1  0  0  0
 86168  1  0  0  0
 86169  1  0  0  0
 87170  1  0  0  0
M  ISO  4   1 100  68 101  82 101  87 100
M  END
> <chiral flag>
0

> <version>
0

> <s_m_source_file>
/data/baiqing/PycharmProjects/Reinvent-master-3.2/result/LINK_invent/BTK/process_docking_weight1_custom_sum_contain_oxygen_bond_distance_aromatic_linkinvent_7_9_3/rearranged_h_0156.sdf

> <i_m_source_file_index>
42

> <r_mmod_Potential_Energy-OPLS-2005>
594.057983398438

> <r_mmod_Stretch_Energy-OPLS-2005>
266.260986328125

> <r_mmod_Bend_Energy-OPLS-2005>
348.194885253906

> <r_mmod_Torsional_Energy-OPLS-2005>
266.889526367188

> <r_mmod_Improper_Torsional_Energy-OPLS-2005>
4.62339782714844

> <r_mmod_Van_der_Waal_Energy-OPLS-2005>
117.051170349121

> <r_mmod_Electrostatic_Energy-OPLS-2005>
-429.803924560547

> <r_mmod_Solvation_Energy-OPLS-2005>
-199.109756469727

> <b_mmod_Minimization_Converged-OPLS-2005>
0

> <r_mmod_RMS_Derivative-OPLS-2005>
3.89775896072388

$$$$
42
                    3D
 Structure written by MMmdl.
171180  0  0  1  0            999 V2000
  -30.7505  -14.4711   20.6319 C   0  0  0  0  0  0
  -30.4140  -12.3347   19.4246 C   0  0  0  0  0  0
  -29.4897  -12.5254   18.2062 C   0  0  0  0  0  0
  -28.0150  -12.3556   18.6152 C   0  0  0  0  0  0
  -27.6549  -13.2001   19.8630 C   0  0  2  0  0  0
  -28.6963  -13.0059   20.9933 C   0  0  0  0  0  0
  -25.2559  -13.8150   20.5655 C   0  0  0  0  0  0
  -24.1820  -13.0426   20.9184 C   0  0  0  0  0  0
  -24.6366  -11.6902   20.8719 C   0  0  0  0  0  0
  -23.9039  -10.4289   21.0381 C   0  0  0  0  0  0
  -24.3606   -9.4212   21.9159 C   0  0  0  0  0  0
  -23.6285   -8.2248   22.0748 C   0  0  0  0  0  0
  -22.4267   -8.0280   21.3542 C   0  0  0  0  0  0
  -21.9888   -9.0244   20.4642 C   0  0  0  0  0  0
  -22.7214  -10.2125   20.3037 C   0  0  0  0  0  0
  -21.6856   -6.0736   22.5284 C   0  0  0  0  0  0
  -21.4016   -6.5639   23.8219 C   0  0  0  0  0  0
  -21.3653   -5.6786   24.9176 C   0  0  0  0  0  0
  -21.6033   -4.3053   24.7225 C   0  0  0  0  0  0
  -21.8821   -3.8151   23.4342 C   0  0  0  0  0  0
  -21.9187   -4.6964   22.3403 C   0  0  0  0  0  0
  -22.7832  -13.5235   21.1823 C   0  0  0  0  0  0
  -22.1660   -4.2162   21.0971 F   0  0  0  0  0  0
  -21.5622   -3.4522   25.7730 F   0  0  0  0  0  0
  -30.0301  -13.3207   20.4554 N   0  0  0  0  0  0
  -26.2977  -12.9299   20.3298 N   0  0  0  0  0  0
  -25.9289  -11.6467   20.5732 N   0  0  0  0  0  0
  -22.0457  -12.8251   22.0388 N   0  0  0  0  0  0
  -25.4215  -15.1865   20.4057 N   0  0  0  0  0  0
  -31.8276  -14.6436   20.0519 O   0  0  0  0  0  0
  -21.6628   -6.8878   21.4249 O   0  0  0  0  0  0
  -22.3520  -14.5520   20.6633 O   0  0  0  0  0  0
  -24.6163  -31.8669   23.2101 C   0  0  0  0  0  0
  -25.9046  -32.4816   23.8414 C   0  0  1  0  0  0
  -27.2349  -27.4144   20.1185 C   0  0  0  0  0  0
  -25.5908  -33.8619   24.2337 N   0  0  0  0  0  0
  -23.4063  -30.4906   21.5496 C   0  0  2  0  0  0
  -24.8554  -28.9595   20.1104 C   0  0  0  0  0  0
  -22.7427  -29.4646   22.4974 C   0  0  0  0  0  0
  -18.0272  -28.1363   22.8485 C   0  0  0  0  0  0
  -24.1483  -36.7323   23.2627 C   0  0  0  0  0  0
  -25.9367  -30.8299   21.3654 C   0  0  0  0  0  0
  -26.0153  -29.4638   20.7117 C   0  0  0  0  0  0
  -27.2081  -28.7019   20.7075 C   0  0  0  0  0  0
  -26.0599  -26.9437   19.4829 C   0  0  0  0  0  0
  -24.8752  -27.7017   19.4875 C   0  0  0  0  0  0
  -23.6174  -29.8261   20.1631 C   0  0  0  0  0  0
  -25.4093  -36.3110   24.0336 C   0  0  1  0  0  0
  -20.5865  -28.3660   23.1307 C   0  0  2  0  0  0
  -20.6764  -26.9394   22.5419 C   0  0  0  0  0  0
  -19.5749  -26.6379   21.5207 C   0  0  0  0  0  0
  -18.1917  -26.7918   22.1598 C   0  0  0  0  0  0
  -19.1523  -28.8827   23.2889 C   0  0  0  0  0  0
  -18.9452  -30.1431   23.8902 C   0  0  0  0  0  0
  -17.6453  -30.6572   24.0566 C   0  0  0  0  0  0
  -25.9041  -34.9478   23.5135 C   0  0  0  0  0  0
  -16.5347  -29.9078   23.6325 C   0  0  0  0  0  0
  -16.7263  -28.6492   23.0346 C   0  0  0  0  0  0
  -26.4473  -31.6594   25.0738 C   0  0  0  0  0  0
  -25.3757  -31.3698   26.1509 C   0  0  0  0  0  0
  -27.0269  -30.3025   24.6106 C   0  0  0  0  0  0
  -27.6064  -32.4301   25.7490 C   0  0  0  0  0  0
  -27.5609  -37.1766   24.8420 C   0  0  0  0  0  0
  -21.4153  -29.3031   22.3720 N   0  0  0  0  0  0
  -26.4263  -37.3821   23.9458 N   0  0  0  0  0  0
  -24.6707  -31.0773   22.0999 N   0  0  0  0  0  0
  -23.4192  -28.8179   23.3017 O   0  0  0  0  0  0
  -28.3828  -26.6421   20.1964 O   0  0  0  0  0  0
  -26.5609  -34.8929   22.4698 O   0  0  0  0  0  0
  -23.5349  -32.1414   23.7495 O   0  0  0  0  0  0
  -29.3517  -17.6136   21.0011 C   0  0  0  0  0  0
  -31.6827  -17.4653   21.9068 C   0  0  0  0  0  0
  -31.0662  -21.5080   19.9543 C   0  0  0  0  0  0
  -29.1041  -16.1656   21.4974 C   0  0  0  0  0  0
  -31.3463  -16.0461   22.4272 C   0  0  0  0  0  0
  -30.9572  -19.9814   20.0457 C   0  0  0  0  0  0
  -30.4150  -18.3376   21.8576 C   0  0  0  0  0  0
  -30.2851  -22.0596   21.1544 C   0  0  2  0  0  0
  -29.8102  -20.7853   21.9024 C   0  0  2  0  0  0
  -29.8420  -20.9722   23.4292 C   0  0  0  0  0  0
  -29.2741  -24.7285   22.4785 C   0  0  0  0  0  0
  -28.1944  -25.2069   20.2096 C   0  0  0  0  0  0
  -29.3021  -24.4101   20.9646 C   0  0  2  0  0  0
  -30.3464  -15.3665   21.5792 N   0  0  0  0  0  0
  -30.7342  -19.7290   21.4665 N   0  0  0  0  0  0
  -29.1533  -22.9340   20.7363 N   0  3  0  0  0  0
  -31.4573  -12.4266   19.1189 H   0  0  0  0  0  0
  -30.3152  -11.3223   19.8200 H   0  0  0  0  0  0
  -29.7430  -11.8113   17.4208 H   0  0  0  0  0  0
  -29.6449  -13.5185   17.7791 H   0  0  0  0  0  0
  -27.8423  -11.2984   18.8164 H   0  0  0  0  0  0
  -27.3619  -12.6165   17.7810 H   0  0  0  0  0  0
  -27.6827  -14.2321   19.5210 H   0  0  0  0  0  0
  -28.6785  -11.9716   21.3398 H   0  0  0  0  0  0
  -28.4412  -13.6023   21.8685 H   0  0  0  0  0  0
  -25.2757   -9.5694   22.4726 H   0  0  0  0  0  0
  -23.9995   -7.4644   22.7472 H   0  0  0  0  0  0
  -21.0818   -8.8758   19.8954 H   0  0  0  0  0  0
  -22.3665  -10.9653   19.6142 H   0  0  0  0  0  0
  -21.2017   -7.6149   23.9741 H   0  0  0  0  0  0
  -21.1466   -6.0500   25.9082 H   0  0  0  0  0  0
  -22.0597   -2.7611   23.2833 H   0  0  0  0  0  0
  -22.4070  -11.9952   22.4857 H   0  0  0  0  0  0
  -21.1050  -13.1265   22.2528 H   0  0  0  0  0  0
  -24.6432  -15.8290   20.5090 H   0  0  0  0  0  0
  -26.2646  -15.6358   20.0726 H   0  0  0  0  0  0
  -26.7113  -32.5535   23.1180 H   0  0  0  0  0  0
  -25.0066  -33.9786   25.0486 H   0  0  0  0  0  0
  -22.6941  -31.3062   21.4105 H   0  0  0  0  0  0
  -23.3770  -35.9622   23.3185 H   0  0  0  0  0  0
  -24.3609  -36.9052   22.2063 H   0  0  0  0  0  0
  -23.7184  -37.6473   23.6709 H   0  0  0  0  0  0
  -26.0522  -31.5934   20.5947 H   0  0  0  0  0  0
  -26.8240  -30.8842   21.9849 H   0  0  0  0  0  0
  -28.0998  -29.0877   21.1820 H   0  0  0  0  0  0
  -26.0377  -25.9867   18.9814 H   0  0  0  0  0  0
  -23.9878  -27.3134   19.0061 H   0  0  0  0  0  0
  -23.7301  -30.6031   19.4066 H   0  0  0  0  0  0
  -22.7412  -29.2484   19.8632 H   0  0  0  0  0  0
  -25.1245  -36.1958   25.0821 H   0  0  0  0  0  0
  -20.9949  -28.3228   24.1430 H   0  0  0  0  0  0
  -20.5650  -26.2271   23.3603 H   0  0  0  0  0  0
  -21.6636  -26.7413   22.1230 H   0  0  0  0  0  0
  -19.6916  -25.6294   21.1227 H   0  0  0  0  0  0
  -19.6699  -27.3197   20.6740 H   0  0  0  0  0  0
  -17.4201  -26.6675   21.3985 H   0  0  0  0  0  0
  -18.0296  -26.0042   22.8967 H   0  0  0  0  0  0
  -19.7924  -30.7243   24.2280 H   0  0  0  0  0  0
  -17.5009  -31.6250   24.5166 H   0  0  0  0  0  0
  -15.5347  -30.2984   23.7642 H   0  0  0  0  0  0
  -15.8656  -28.0825   22.7057 H   0  0  0  0  0  0
  -24.5953  -30.6993   25.7894 H   0  0  0  0  0  0
  -24.8911  -32.2838   26.4950 H   0  0  0  0  0  0
  -25.8152  -30.8917   27.0272 H   0  0  0  0  0  0
  -26.2782  -29.6813   24.1174 H   0  0  0  0  0  0
  -27.4037  -29.7246   25.4555 H   0  0  0  0  0  0
  -27.8634  -30.4328   23.9234 H   0  0  0  0  0  0
  -27.2703  -33.3606   26.2084 H   0  0  0  0  0  0
  -28.3860  -32.6854   25.0298 H   0  0  0  0  0  0
  -28.0737  -31.8408   26.5390 H   0  0  0  0  0  0
  -28.2478  -38.0210   24.7703 H   0  0  0  0  0  0
  -28.1252  -36.2766   24.5924 H   0  0  0  0  0  0
  -27.2384  -37.1032   25.8823 H   0  0  0  0  0  0
  -20.9314  -29.8781   21.6961 H   0  0  0  0  0  0
  -26.0136  -38.2861   24.1612 H   0  0  0  0  0  0
  -28.4115  -18.1662   21.0139 H   0  0  0  0  0  0
  -29.6641  -17.5598   19.9581 H   0  0  0  0  0  0
  -32.1418  -17.3946   20.9196 H   0  0  0  0  0  0
  -32.4232  -17.9256   22.5626 H   0  0  0  0  0  0
  -30.6955  -21.8688   18.9938 H   0  0  0  0  0  0
  -32.1114  -21.8132   20.0256 H   0  0  0  0  0  0
  -28.3755  -15.7150   20.8344 H   0  0  0  0  0  0
  -28.6371  -16.1863   22.4829 H   0  0  0  0  0  0
  -30.9521  -16.1116   23.4429 H   0  0  0  0  0  0
  -32.2610  -15.4550   22.5080 H   0  0  0  0  0  0
  -31.8414  -19.4689   19.6632 H   0  0  0  0  0  0
  -30.1003  -19.6575   19.4538 H   0  0  0  0  0  0
  -30.0460  -18.3726   22.8825 H   0  0  0  0  0  0
  -30.9822  -22.6117   21.7863 H   0  0  0  0  0  0
  -28.8038  -20.5163   21.5758 H   0  0  0  0  0  0
  -30.8639  -21.0478   23.8035 H   0  0  0  0  0  0
  -29.3510  -20.1537   23.9550 H   0  0  0  0  0  0
  -29.3245  -21.8868   23.7187 H   0  0  0  0  0  0
  -29.2398  -25.8024   22.6638 H   0  0  0  0  0  0
  -30.1577  -24.3515   22.9944 H   0  0  0  0  0  0
  -28.4015  -24.2923   22.9681 H   0  0  0  0  0  0
  -27.2405  -24.9481   20.6749 H   0  0  0  0  0  0
  -28.1464  -24.8721   19.1733 H   0  0  0  0  0  0
  -30.2645  -24.7208   20.5541 H   0  0  0  0  0  0
  -28.3279  -22.6135   21.2194 H   0  0  0  0  0  0
  -28.9986  -22.7596   19.7552 H   0  0  0  0  0  0
  1 25  1  0  0  0
  1 30  2  0  0  0
  1 84  1  0  0  0
  2  3  1  0  0  0
  2 25  1  0  0  0
  2 87  1  0  0  0
  2 88  1  0  0  0
  3  4  1  0  0  0
  3 89  1  0  0  0
  3 90  1  0  0  0
  4  5  1  0  0  0
  4 91  1  0  0  0
  4 92  1  0  0  0
  5  6  1  0  0  0
  5 26  1  0  0  0
  5 93  1  0  0  0
  6 25  1  0  0  0
  6 94  1  0  0  0
  6 95  1  0  0  0
  7  8  2  0  0  0
  7 26  1  0  0  0
  7 29  1  0  0  0
  8  9  1  0  0  0
  8 22  1  0  0  0
  9 10  1  0  0  0
  9 27  2  0  0  0
 10 11  2  0  0  0
 10 15  1  0  0  0
 11 12  1  0  0  0
 11 96  1  0  0  0
 12 13  2  0  0  0
 12 97  1  0  0  0
 13 14  1  0  0  0
 13 31  1  0  0  0
 14 15  2  0  0  0
 14 98  1  0  0  0
 15 99  1  0  0  0
 16 17  2  0  0  0
 16 21  1  0  0  0
 16 31  1  0  0  0
 17 18  1  0  0  0
 17100  1  0  0  0
 18 19  2  0  0  0
 18101  1  0  0  0
 19 20  1  0  0  0
 19 24  1  0  0  0
 20 21  2  0  0  0
 20102  1  0  0  0
 21 23  1  0  0  0
 22 28  1  0  0  0
 22 32  2  0  0  0
 26 27  1  0  0  0
 28103  1  0  0  0
 28104  1  0  0  0
 29105  1  0  0  0
 29106  1  0  0  0
 33 34  1  0  0  0
 33 66  1  0  0  0
 33 70  2  0  0  0
 34 36  1  0  0  0
 34 59  1  0  0  0
 34107  1  0  0  0
 35 44  2  0  0  0
 35 45  1  0  0  0
 35 68  1  0  0  0
 36 56  1  0  0  0
 36108  1  0  0  0
 37 39  1  0  0  0
 37 47  1  0  0  0
 37 66  1  0  0  0
 37109  1  0  0  0
 38 43  2  0  0  0
 38 46  1  0  0  0
 38 47  1  0  0  0
 39 64  1  0  0  0
 39 67  2  0  0  0
 40 52  1  0  0  0
 40 53  2  0  0  0
 40 58  1  0  0  0
 41110  1  0  0  0
 41111  1  0  0  0
 41112  1  0  0  0
 41 48  1  0  0  0
 42 43  1  0  0  0
 42 66  1  0  0  0
 42113  1  0  0  0
 42114  1  0  0  0
 43 44  1  0  0  0
 44115  1  0  0  0
 45 46  2  0  0  0
 45116  1  0  0  0
 46117  1  0  0  0
 47118  1  0  0  0
 47119  1  0  0  0
 48 56  1  0  0  0
 48 65  1  0  0  0
 48120  1  0  0  0
 49 50  1  0  0  0
 49 53  1  0  0  0
 49 64  1  0  0  0
 49121  1  0  0  0
 50 51  1  0  0  0
 50122  1  0  0  0
 50123  1  0  0  0
 51 52  1  0  0  0
 51124  1  0  0  0
 51125  1  0  0  0
 52126  1  0  0  0
 52127  1  0  0  0
 53 54  1  0  0  0
 54 55  2  0  0  0
 54128  1  0  0  0
 55 57  1  0  0  0
 55129  1  0  0  0
 56 69  2  0  0  0
 57 58  2  0  0  0
 57130  1  0  0  0
 58131  1  0  0  0
 59 60  1  0  0  0
 59 61  1  0  0  0
 59 62  1  0  0  0
 60132  1  0  0  0
 60133  1  0  0  0
 60134  1  0  0  0
 61135  1  0  0  0
 61136  1  0  0  0
 61137  1  0  0  0
 62138  1  0  0  0
 62139  1  0  0  0
 62140  1  0  0  0
 63 65  1  0  0  0
 63141  1  0  0  0
 63142  1  0  0  0
 63143  1  0  0  0
 64144  1  0  0  0
 65145  1  0  0  0
 68 82  1  0  0  0
 71 74  1  0  0  0
 71 77  1  0  0  0
 71146  1  0  0  0
 71147  1  0  0  0
 72 75  1  0  0  0
 72 77  1  0  0  0
 72148  1  0  0  0
 72149  1  0  0  0
 73 76  1  0  0  0
 73 78  1  0  0  0
 73150  1  0  0  0
 73151  1  0  0  0
 74 84  1  0  0  0
 74152  1  0  0  0
 74153  1  0  0  0
 75 84  1  0  0  0
 75154  1  0  0  0
 75155  1  0  0  0
 76156  1  0  0  0
 76157  1  0  0  0
 76 85  1  0  0  0
 77 85  1  0  0  0
 77158  1  0  0  0
 78 79  1  0  0  0
 78 86  1  0  0  0
 78159  1  0  0  0
 79 80  1  0  0  0
 79 85  1  0  0  0
 79160  1  0  0  0
 80161  1  0  0  0
 80162  1  0  0  0
 80163  1  0  0  0
 81164  1  0  0  0
 81165  1  0  0  0
 81166  1  0  0  0
 81 83  1  0  0  0
 82 83  1  0  0  0
 82167  1  0  0  0
 82168  1  0  0  0
 83 86  1  0  0  0
 83169  1  0  0  0
 86170  1  0  0  0
 86171  1  0  0  0
M  CHG  1  86   1
M  ISO  4   1 100  68 101  82 101  84 100
M  END
> <chiral flag>
0

> <version>
0

> <s_m_source_file>
/data/baiqing/PycharmProjects/Reinvent-master-3.2/result/LINK_invent/BTK/process_docking_weight1_custom_sum_contain_oxygen_bond_distance_aromatic_linkinvent_7_9_3/rearranged_h_0156.sdf

> <i_m_source_file_index>
43

> <r_mmod_Potential_Energy-OPLS-2005>
122.066047668457

> <r_mmod_Stretch_Energy-OPLS-2005>
46.114185333252

> <r_mmod_Bend_Energy-OPLS-2005>
138.120468139648

> <r_mmod_Torsional_Energy-OPLS-2005>
387.557525634766

> <r_mmod_Improper_Torsional_Energy-OPLS-2005>
5.03711128234863

> <r_mmod_Van_der_Waal_Energy-OPLS-2005>
139.120986938477

> <r_mmod_Electrostatic_Energy-OPLS-2005>
-177.138885498047

> <r_mmod_Solvation_Energy-OPLS-2005>
-433.266998291016

> <b_mmod_Minimization_Converged-OPLS-2005>
0

> <r_mmod_RMS_Derivative-OPLS-2005>
2.16366481781006

$$$$
43
                    3D
 Structure written by MMmdl.
169177  0  0  1  0            999 V2000
  -30.6992  -14.4652   20.5901 C   0  0  0  0  0  0
  -30.4177  -12.3148   19.4098 C   0  0  0  0  0  0
  -29.4863  -12.5144   18.1972 C   0  0  0  0  0  0
  -28.0083  -12.3763   18.6131 C   0  0  0  0  0  0
  -27.6588  -13.2110   19.8749 C   0  0  2  0  0  0
  -28.6996  -12.9806   20.9920 C   0  0  0  0  0  0
  -25.2554  -13.8174   20.5689 C   0  0  0  0  0  0
  -24.1816  -13.0439   20.9172 C   0  0  0  0  0  0
  -24.6368  -11.6897   20.8707 C   0  0  0  0  0  0
  -23.9043  -10.4282   21.0368 C   0  0  0  0  0  0
  -24.3607   -9.4210   21.9153 C   0  0  0  0  0  0
  -23.6289   -8.2241   22.0732 C   0  0  0  0  0  0
  -22.4274   -8.0265   21.3519 C   0  0  0  0  0  0
  -21.9890   -9.0234   20.4623 C   0  0  0  0  0  0
  -22.7206  -10.2119   20.3025 C   0  0  0  0  0  0
  -21.6868   -6.0733   22.5269 C   0  0  0  0  0  0
  -21.4029   -6.5626   23.8204 C   0  0  0  0  0  0
  -21.3659   -5.6771   24.9159 C   0  0  0  0  0  0
  -21.6050   -4.3044   24.7216 C   0  0  0  0  0  0
  -21.8825   -3.8138   23.4339 C   0  0  0  0  0  0
  -21.9200   -4.6959   22.3400 C   0  0  0  0  0  0
  -22.7838  -13.5213   21.1847 C   0  0  0  0  0  0
  -22.1665   -4.2138   21.0978 F   0  0  0  0  0  0
  -21.5628   -3.4532   25.7735 F   0  0  0  0  0  0
  -30.0276  -13.2925   20.4386 N   0  0  0  0  0  0
  -26.3003  -12.9353   20.3374 N   0  0  0  0  0  0
  -25.9299  -11.6507   20.5743 N   0  0  0  0  0  0
  -22.0523  -12.8178   22.0415 N   0  0  0  0  0  0
  -25.4255  -15.1901   20.4113 N   0  0  0  0  0  0
  -31.8133  -14.6681   20.1036 O   0  0  0  0  0  0
  -21.6634   -6.8865   21.4219 O   0  0  0  0  0  0
  -22.3493  -14.5513   20.6689 O   0  0  0  0  0  0
  -24.6150  -31.8670   23.2103 C   0  0  0  0  0  0
  -25.9027  -32.4831   23.8402 C   0  0  1  0  0  0
  -27.2325  -27.4202   20.0896 C   0  0  0  0  0  0
  -25.5884  -33.8628   24.2342 N   0  0  0  0  0  0
  -23.4053  -30.4897   21.5524 C   0  0  2  0  0  0
  -24.8510  -28.9585   20.1142 C   0  0  0  0  0  0
  -22.7430  -29.4637   22.5001 C   0  0  0  0  0  0
  -18.0272  -28.1376   22.8501 C   0  0  0  0  0  0
  -24.1487  -36.7309   23.2638 C   0  0  0  0  0  0
  -25.9361  -30.8264   21.3675 C   0  0  0  0  0  0
  -26.0123  -29.4605   20.7133 C   0  0  0  0  0  0
  -27.2056  -28.6993   20.6957 C   0  0  0  0  0  0
  -26.0480  -26.9398   19.4813 C   0  0  0  0  0  0
  -24.8644  -27.6998   19.4929 C   0  0  0  0  0  0
  -23.6135  -29.8246   20.1666 C   0  0  0  0  0  0
  -25.4110  -36.3122   24.0345 C   0  0  1  0  0  0
  -20.5868  -28.3659   23.1331 C   0  0  2  0  0  0
  -20.6767  -26.9398   22.5426 C   0  0  0  0  0  0
  -19.5744  -26.6387   21.5223 C   0  0  0  0  0  0
  -18.1920  -26.7927   22.1629 C   0  0  0  0  0  0
  -19.1523  -28.8836   23.2912 C   0  0  0  0  0  0
  -18.9442  -30.1444   23.8925 C   0  0  0  0  0  0
  -17.6443  -30.6586   24.0563 C   0  0  0  0  0  0
  -25.9030  -34.9482   23.5145 C   0  0  0  0  0  0
  -16.5336  -29.9087   23.6322 C   0  0  0  0  0  0
  -16.7259  -28.6500   23.0352 C   0  0  0  0  0  0
  -26.4456  -31.6602   25.0720 C   0  0  0  0  0  0
  -25.3726  -31.3681   26.1471 C   0  0  0  0  0  0
  -27.0274  -30.3053   24.6065 C   0  0  0  0  0  0
  -27.6060  -32.4310   25.7450 C   0  0  0  0  0  0
  -27.5590  -37.1807   24.8468 C   0  0  0  0  0  0
  -21.4155  -29.3023   22.3745 N   0  0  0  0  0  0
  -26.4305  -37.3801   23.9410 N   0  0  0  0  0  0
  -24.6709  -31.0752   22.1023 N   0  0  0  0  0  0
  -23.4194  -28.8172   23.3044 O   0  0  0  0  0  0
  -28.4011  -26.6772   20.1076 O   0  0  0  0  0  0
  -26.5598  -34.8927   22.4710 O   0  0  0  0  0  0
  -23.5334  -32.1420   23.7482 O   0  0  0  0  0  0
  -30.3046  -22.2782   21.4159 C   0  0  0  0  0  0
  -28.4455  -22.2080   19.8616 C   0  0  0  0  0  0
  -29.4181  -22.9628   20.5571 C   0  0  0  0  0  0
  -30.2089  -20.8796   21.6065 C   0  0  0  0  0  0
  -28.3406  -20.8056   20.0401 C   0  0  0  0  0  0
  -29.2270  -20.1290   20.9151 C   0  0  0  0  0  0
  -31.1451  -20.2002   22.5895 C   0  0  0  0  0  0
  -28.5189  -19.1137   17.3073 C   0  0  0  0  0  0
  -26.0601  -19.6740   17.1033 C   0  0  0  0  0  0
  -29.5431  -24.4918   20.4203 C   0  0  0  0  0  0
  -27.2361  -20.0489   19.3118 C   0  0  0  0  0  0
  -30.5180  -16.8173   21.4642 C   0  0  0  0  0  0
  -28.2746  -25.2488   19.9633 C   0  0  0  0  0  0
  -29.9617  -17.8869   20.4854 C   0  0  0  0  0  0
  -27.3895  -20.0457   17.7758 C   0  0  0  0  0  0
  -30.0285  -15.4501   21.2162 N   0  0  0  0  0  0
  -29.0698  -18.7782   21.1643 O   0  0  0  0  0  0
  -31.4608  -12.4201   19.1073 H   0  0  0  0  0  0
  -30.3237  -11.3006   19.8016 H   0  0  0  0  0  0
  -29.7246  -11.7919   17.4151 H   0  0  0  0  0  0
  -29.6550  -13.4998   17.7587 H   0  0  0  0  0  0
  -27.8082  -11.3203   18.7999 H   0  0  0  0  0  0
  -27.3592  -12.6595   17.7842 H   0  0  0  0  0  0
  -27.7055  -14.2625   19.5860 H   0  0  0  0  0  0
  -28.6792  -11.9402   21.3177 H   0  0  0  0  0  0
  -28.4579  -13.5697   21.8793 H   0  0  0  0  0  0
  -25.2786   -9.5685   22.4694 H   0  0  0  0  0  0
  -24.0016   -7.4631   22.7443 H   0  0  0  0  0  0
  -21.0829   -8.8739   19.8927 H   0  0  0  0  0  0
  -22.3670  -10.9642   19.6113 H   0  0  0  0  0  0
  -21.2022   -7.6133   23.9700 H   0  0  0  0  0  0
  -21.1479   -6.0501   25.9052 H   0  0  0  0  0  0
  -22.0611   -2.7602   23.2835 H   0  0  0  0  0  0
  -22.4197  -11.9866   22.4809 H   0  0  0  0  0  0
  -21.1117  -13.1131   22.2631 H   0  0  0  0  0  0
  -24.6609  -15.8441   20.5448 H   0  0  0  0  0  0
  -26.2830  -15.6363   20.1149 H   0  0  0  0  0  0
  -26.7090  -32.5539   23.1157 H   0  0  0  0  0  0
  -25.0054  -33.9794   25.0499 H   0  0  0  0  0  0
  -22.6939  -31.3064   21.4144 H   0  0  0  0  0  0
  -23.3765  -35.9628   23.3315 H   0  0  0  0  0  0
  -24.3578  -36.8904   22.2050 H   0  0  0  0  0  0
  -23.7220  -37.6510   23.6637 H   0  0  0  0  0  0
  -26.0478  -31.5901   20.5967 H   0  0  0  0  0  0
  -26.8251  -30.8816   21.9845 H   0  0  0  0  0  0
  -28.1032  -29.0813   21.1619 H   0  0  0  0  0  0
  -26.0158  -25.9808   18.9865 H   0  0  0  0  0  0
  -23.9734  -27.3131   19.0174 H   0  0  0  0  0  0
  -23.7203  -30.5985   19.4064 H   0  0  0  0  0  0
  -22.7394  -29.2410   19.8730 H   0  0  0  0  0  0
  -25.1288  -36.2004   25.0840 H   0  0  0  0  0  0
  -20.9944  -28.3213   24.1457 H   0  0  0  0  0  0
  -20.5685  -26.2258   23.3604 H   0  0  0  0  0  0
  -21.6634  -26.7452   22.1207 H   0  0  0  0  0  0
  -19.6905  -25.6302   21.1240 H   0  0  0  0  0  0
  -19.6692  -27.3209   20.6765 H   0  0  0  0  0  0
  -17.4197  -26.6692   21.4021 H   0  0  0  0  0  0
  -18.0312  -26.0061   22.9016 H   0  0  0  0  0  0
  -19.7910  -30.7260   24.2317 H   0  0  0  0  0  0
  -17.4985  -31.6266   24.5160 H   0  0  0  0  0  0
  -15.5331  -30.2992   23.7625 H   0  0  0  0  0  0
  -15.8661  -28.0816   22.7063 H   0  0  0  0  0  0
  -24.5917  -30.7014   25.7789 H   0  0  0  0  0  0
  -24.8884  -32.2817   26.4932 H   0  0  0  0  0  0
  -25.8078  -30.8835   27.0221 H   0  0  0  0  0  0
  -26.2790  -29.6828   24.1148 H   0  0  0  0  0  0
  -27.4093  -29.7271   25.4487 H   0  0  0  0  0  0
  -27.8608  -30.4391   23.9168 H   0  0  0  0  0  0
  -27.2722  -33.3622   26.2037 H   0  0  0  0  0  0
  -28.3834  -32.6850   25.0232 H   0  0  0  0  0  0
  -28.0763  -31.8424   26.5335 H   0  0  0  0  0  0
  -28.2625  -38.0092   24.7529 H   0  0  0  0  0  0
  -28.1078  -36.2630   24.6295 H   0  0  0  0  0  0
  -27.2308  -37.1457   25.8871 H   0  0  0  0  0  0
  -20.9327  -29.8734   21.6955 H   0  0  0  0  0  0
  -26.0209  -38.2886   24.1413 H   0  0  0  0  0  0
  -31.0535  -22.8391   21.9565 H   0  0  0  0  0  0
  -27.7562  -22.6995   19.1903 H   0  0  0  0  0  0
  -31.6260  -20.9236   23.2490 H   0  0  0  0  0  0
  -31.9245  -19.6586   22.0566 H   0  0  0  0  0  0
  -30.6011  -19.4913   23.2132 H   0  0  0  0  0  0
  -28.6363  -19.1564   16.2240 H   0  0  0  0  0  0
  -28.3181  -18.0752   17.5735 H   0  0  0  0  0  0
  -29.4750  -19.3907   17.7517 H   0  0  0  0  0  0
  -26.1354  -19.7290   16.0165 H   0  0  0  0  0  0
  -25.2640  -20.3556   17.4045 H   0  0  0  0  0  0
  -25.7469  -18.6641   17.3729 H   0  0  0  0  0  0
  -30.3692  -24.7174   19.7460 H   0  0  0  0  0  0
  -29.8363  -24.8858   21.3937 H   0  0  0  0  0  0
  -26.2952  -20.5242   19.5915 H   0  0  0  0  0  0
  -27.1518  -19.0235   19.6733 H   0  0  0  0  0  0
  -30.2587  -17.0859   22.4882 H   0  0  0  0  0  0
  -31.6089  -16.8347   21.4296 H   0  0  0  0  0  0
  -27.4360  -24.8973   20.5676 H   0  0  0  0  0  0
  -28.0639  -25.0062   18.9214 H   0  0  0  0  0  0
  -29.4244  -17.4148   19.6618 H   0  0  0  0  0  0
  -30.7906  -18.4349   20.0343 H   0  0  0  0  0  0
  -27.6337  -21.0578   17.4497 H   0  0  0  0  0  0
  -29.1040  -15.2285   21.5552 H   0  0  0  0  0  0
  1 25  1  0  0  0
  1 30  2  0  0  0
  1 86  1  0  0  0
  2  3  1  0  0  0
  2 25  1  0  0  0
  2 88  1  0  0  0
  2 89  1  0  0  0
  3  4  1  0  0  0
  3 90  1  0  0  0
  3 91  1  0  0  0
  4  5  1  0  0  0
  4 92  1  0  0  0
  4 93  1  0  0  0
  5  6  1  0  0  0
  5 26  1  0  0  0
  5 94  1  0  0  0
  6 25  1  0  0  0
  6 95  1  0  0  0
  6 96  1  0  0  0
  7  8  2  0  0  0
  7 26  1  0  0  0
  7 29  1  0  0  0
  8  9  1  0  0  0
  8 22  1  0  0  0
  9 10  1  0  0  0
  9 27  2  0  0  0
 10 11  2  0  0  0
 10 15  1  0  0  0
 11 12  1  0  0  0
 11 97  1  0  0  0
 12 13  2  0  0  0
 12 98  1  0  0  0
 13 14  1  0  0  0
 13 31  1  0  0  0
 14 15  2  0  0  0
 14 99  1  0  0  0
 15100  1  0  0  0
 16 17  2  0  0  0
 16 21  1  0  0  0
 16 31  1  0  0  0
 17 18  1  0  0  0
 17101  1  0  0  0
 18 19  2  0  0  0
 18102  1  0  0  0
 19 20  1  0  0  0
 19 24  1  0  0  0
 20 21  2  0  0  0
 20103  1  0  0  0
 21 23  1  0  0  0
 22 28  1  0  0  0
 22 32  2  0  0  0
 26 27  1  0  0  0
 28104  1  0  0  0
 28105  1  0  0  0
 29106  1  0  0  0
 29107  1  0  0  0
 33 34  1  0  0  0
 33 66  1  0  0  0
 33 70  2  0  0  0
 34 36  1  0  0  0
 34 59  1  0  0  0
 34108  1  0  0  0
 35 44  2  0  0  0
 35 45  1  0  0  0
 35 68  1  0  0  0
 36 56  1  0  0  0
 36109  1  0  0  0
 37 39  1  0  0  0
 37 47  1  0  0  0
 37 66  1  0  0  0
 37110  1  0  0  0
 38 43  2  0  0  0
 38 46  1  0  0  0
 38 47  1  0  0  0
 39 64  1  0  0  0
 39 67  2  0  0  0
 40 52  1  0  0  0
 40 53  2  0  0  0
 40 58  1  0  0  0
 41111  1  0  0  0
 41112  1  0  0  0
 41113  1  0  0  0
 41 48  1  0  0  0
 42 43  1  0  0  0
 42 66  1  0  0  0
 42114  1  0  0  0
 42115  1  0  0  0
 43 44  1  0  0  0
 44116  1  0  0  0
 45 46  2  0  0  0
 45117  1  0  0  0
 46118  1  0  0  0
 47119  1  0  0  0
 47120  1  0  0  0
 48 56  1  0  0  0
 48 65  1  0  0  0
 48121  1  0  0  0
 49 50  1  0  0  0
 49 53  1  0  0  0
 49 64  1  0  0  0
 49122  1  0  0  0
 50 51  1  0  0  0
 50123  1  0  0  0
 50124  1  0  0  0
 51 52  1  0  0  0
 51125  1  0  0  0
 51126  1  0  0  0
 52127  1  0  0  0
 52128  1  0  0  0
 53 54  1  0  0  0
 54 55  2  0  0  0
 54129  1  0  0  0
 55 57  1  0  0  0
 55130  1  0  0  0
 56 69  2  0  0  0
 57 58  2  0  0  0
 57131  1  0  0  0
 58132  1  0  0  0
 59 60  1  0  0  0
 59 61  1  0  0  0
 59 62  1  0  0  0
 60133  1  0  0  0
 60134  1  0  0  0
 60135  1  0  0  0
 61136  1  0  0  0
 61137  1  0  0  0
 61138  1  0  0  0
 62139  1  0  0  0
 62140  1  0  0  0
 62141  1  0  0  0
 63 65  1  0  0  0
 63142  1  0  0  0
 63143  1  0  0  0
 63144  1  0  0  0
 64145  1  0  0  0
 65146  1  0  0  0
 68 83  1  0  0  0
 71 73  2  0  0  0
 71 74  1  0  0  0
 71147  1  0  0  0
 72 73  1  0  0  0
 72 75  2  0  0  0
 72148  1  0  0  0
 73 80  1  0  0  0
 74 76  2  0  0  0
 74 77  1  0  0  0
 75 76  1  0  0  0
 75 81  1  0  0  0
 76 87  1  0  0  0
 77149  1  0  0  0
 77150  1  0  0  0
 77151  1  0  0  0
 78152  1  0  0  0
 78153  1  0  0  0
 78154  1  0  0  0
 78 85  1  0  0  0
 79 85  1  0  0  0
 79155  1  0  0  0
 79156  1  0  0  0
 79157  1  0  0  0
 80 83  1  0  0  0
 80158  1  0  0  0
 80159  1  0  0  0
 81 85  1  0  0  0
 81160  1  0  0  0
 81161  1  0  0  0
 82 84  1  0  0  0
 82 86  1  0  0  0
 82162  1  0  0  0
 82163  1  0  0  0
 83164  1  0  0  0
 83165  1  0  0  0
 84 87  1  0  0  0
 84166  1  0  0  0
 84167  1  0  0  0
 85168  1  0  0  0
 86169  1  0  0  0
M  ISO  4   1 100  68 101  83 101  86 100
M  END
> <chiral flag>
0

> <version>
0

> <s_m_source_file>
/data/baiqing/PycharmProjects/Reinvent-master-3.2/result/LINK_invent/BTK/process_docking_weight1_custom_sum_contain_oxygen_bond_distance_aromatic_linkinvent_7_9_3/rearranged_h_0156.sdf

> <i_m_source_file_index>
44

> <r_mmod_Potential_Energy-OPLS-2005>
-91.589599609375

> <r_mmod_Stretch_Energy-OPLS-2005>
39.5277214050293

> <r_mmod_Bend_Energy-OPLS-2005>
96.6760864257812

> <r_mmod_Torsional_Energy-OPLS-2005>
238.86164855957

> <r_mmod_Improper_Torsional_Energy-OPLS-2005>
2.74866247177124

> <r_mmod_Van_der_Waal_Energy-OPLS-2005>
149.263809204102

> <r_mmod_Electrostatic_Energy-OPLS-2005>
-431.205596923828

> <r_mmod_Solvation_Energy-OPLS-2005>
-200.426208496094

> <b_mmod_Minimization_Converged-OPLS-2005>
0

> <r_mmod_RMS_Derivative-OPLS-2005>
2.27507972717285

$$$$
44
                    3D
 Structure written by MMmdl.
170179  0  0  1  0            999 V2000
  -30.4843  -15.0042   20.3782 C   0  0  0  0  0  0
  -30.4098  -12.6209   19.5059 C   0  0  0  0  0  0
  -29.5106  -12.5468   18.2521 C   0  0  0  0  0  0
  -28.0453  -12.3113   18.6670 C   0  0  0  0  0  0
  -27.6099  -13.2473   19.8263 C   0  0  2  0  0  0
  -28.6416  -13.3039   20.9677 C   0  0  0  0  0  0
  -25.2376  -13.8194   20.5690 C   0  0  0  0  0  0
  -24.1721  -13.0455   20.9227 C   0  0  0  0  0  0
  -24.6325  -11.6907   20.8753 C   0  0  0  0  0  0
  -23.9030  -10.4303   21.0433 C   0  0  0  0  0  0
  -24.3604   -9.4216   21.9185 C   0  0  0  0  0  0
  -23.6311   -8.2247   22.0728 C   0  0  0  0  0  0
  -22.4300   -8.0274   21.3527 C   0  0  0  0  0  0
  -21.9926   -9.0242   20.4644 C   0  0  0  0  0  0
  -22.7224  -10.2126   20.3068 C   0  0  0  0  0  0
  -21.6851   -6.0756   22.5294 C   0  0  0  0  0  0
  -21.4027   -6.5653   23.8239 C   0  0  0  0  0  0
  -21.3664   -5.6791   24.9183 C   0  0  0  0  0  0
  -21.6038   -4.3062   24.7230 C   0  0  0  0  0  0
  -21.8804   -3.8158   23.4354 C   0  0  0  0  0  0
  -21.9183   -4.6982   22.3409 C   0  0  0  0  0  0
  -22.7754  -13.5227   21.1909 C   0  0  0  0  0  0
  -22.1655   -4.2171   21.0996 F   0  0  0  0  0  0
  -21.5622   -3.4535   25.7748 F   0  0  0  0  0  0
  -29.8978  -13.7378   20.3564 N   0  0  0  0  0  0
  -26.2759  -12.9412   20.3167 N   0  0  0  0  0  0
  -25.9242  -11.6556   20.5697 N   0  0  0  0  0  0
  -22.0418  -12.8203   22.0469 N   0  0  0  0  0  0
  -25.4086  -15.1930   20.4088 N   0  0  0  0  0  0
  -31.6981  -15.0033   20.1314 O   0  0  0  0  0  0
  -21.6635   -6.8891   21.4263 O   0  0  0  0  0  0
  -22.3450  -14.5538   20.6735 O   0  0  0  0  0  0
  -24.6540  -31.8382   23.1800 C   0  0  0  0  0  0
  -25.9299  -32.4662   23.8180 C   0  0  1  0  0  0
  -27.1745  -27.0565   20.1458 C   0  0  0  0  0  0
  -25.6035  -33.8469   24.2122 N   0  0  0  0  0  0
  -23.4552  -30.4599   21.5260 C   0  0  2  0  0  0
  -24.8880  -28.8625   20.1145 C   0  0  0  0  0  0
  -22.7573  -29.4564   22.4789 C   0  0  0  0  0  0
  -18.0318  -28.1412   22.8473 C   0  0  0  0  0  0
  -24.1467  -36.7195   23.2635 C   0  0  0  0  0  0
  -26.0146  -30.6835   21.3831 C   0  0  0  0  0  0
  -26.0733  -29.2847   20.7289 C   0  0  0  0  0  0
  -27.2215  -28.3980   20.7234 C   0  0  0  0  0  0
  -25.9592  -26.7433   19.5070 C   0  0  0  0  0  0
  -24.8418  -27.6045   19.4924 C   0  0  0  0  0  0
  -23.6782  -29.7816   20.1486 C   0  0  0  0  0  0
  -25.4105  -36.3000   24.0308 C   0  0  1  0  0  0
  -20.5930  -28.3762   23.1212 C   0  0  2  0  0  0
  -20.6804  -26.9460   22.5400 C   0  0  0  0  0  0
  -19.5762  -26.6398   21.5220 C   0  0  0  0  0  0
  -18.1950  -26.7955   22.1623 C   0  0  0  0  0  0
  -19.1578  -28.8893   23.2844 C   0  0  0  0  0  0
  -18.9496  -30.1489   23.8863 C   0  0  0  0  0  0
  -17.6498  -30.6619   24.0558 C   0  0  0  0  0  0
  -25.9081  -34.9393   23.5009 C   0  0  0  0  0  0
  -16.5383  -29.9110   23.6337 C   0  0  0  0  0  0
  -16.7311  -28.6520   23.0370 C   0  0  0  0  0  0
  -26.4568  -31.6587   25.0676 C   0  0  0  0  0  0
  -25.3717  -31.3871   26.1351 C   0  0  0  0  0  0
  -27.0417  -30.2954   24.6350 C   0  0  0  0  0  0
  -27.6088  -32.4344   25.7490 C   0  0  0  0  0  0
  -27.5541  -37.1739   24.8448 C   0  0  0  0  0  0
  -21.4257  -29.3073   22.3535 N   0  0  0  0  0  0
  -26.4243  -37.3740   23.9417 N   0  0  0  0  0  0
  -24.7295  -31.0189   22.0836 N   0  0  0  0  0  0
  -23.4197  -28.8125   23.2988 O   0  0  0  0  0  0
  -28.2100  -26.0453   20.0981 O   0  0  0  0  0  0
  -26.5634  -34.8939   22.4566 O   0  0  0  0  0  0
  -23.5661  -32.1264   23.7028 O   0  0  0  0  0  0
  -31.5389  -17.7208   20.9966 C   0  0  0  0  0  0
  -29.8521  -19.0386   19.8183 C   0  0  0  0  0  0
  -30.8887  -19.6137   19.0324 C   0  0  0  0  0  0
  -32.5630  -18.4011   20.3315 C   0  0  0  0  0  0
  -30.2279  -17.7133   20.4817 C   0  0  0  0  0  0
  -32.2473  -19.2301   19.2332 C   0  0  0  0  0  0
  -28.6490  -20.1807   19.9927 C   0  0  0  0  0  0
  -30.0161  -21.9941   18.8259 C   0  0  0  0  0  0
  -30.4321  -20.7117   18.0486 C   0  0  1  0  0  0
  -33.9944  -18.0953   20.7432 C   0  0  0  0  0  0
  -31.3522  -20.9687   16.8395 C   0  0  0  0  0  0
  -34.8583  -19.2635   16.6452 C   0  0  0  0  0  0
  -27.9124  -22.9587   19.9257 C   0  0  0  0  0  0
  -33.7543  -18.6857   17.5362 C   0  0  0  0  0  0
  -28.0656  -24.5455   20.6001 C   0  0  0  0  0  0
  -29.7293  -16.2463   20.4403 N   0  0  0  0  0  0
  -28.9965  -21.7581   19.8969 N   0  3  1  0  0  0
  -33.2740  -19.6814   18.4425 O   0  0  0  0  0  0
  -31.4484  -12.7660   19.2095 H   0  0  0  0  0  0
  -30.3861  -11.6765   20.0543 H   0  0  0  0  0  0
  -29.8555  -11.7612   17.5791 H   0  0  0  0  0  0
  -29.5860  -13.4826   17.6918 H   0  0  0  0  0  0
  -27.9490  -11.2675   18.9719 H   0  0  0  0  0  0
  -27.3800  -12.4333   17.8110 H   0  0  0  0  0  0
  -27.5673  -14.2462   19.3917 H   0  0  0  0  0  0
  -28.7455  -12.3343   21.4579 H   0  0  0  0  0  0
  -28.3227  -14.0072   21.7372 H   0  0  0  0  0  0
  -25.2758   -9.5701   22.4721 H   0  0  0  0  0  0
  -24.0041   -7.4627   22.7400 H   0  0  0  0  0  0
  -21.0869   -8.8753   19.8948 H   0  0  0  0  0  0
  -22.3690  -10.9650   19.6162 H   0  0  0  0  0  0
  -21.2056   -7.6165   23.9757 H   0  0  0  0  0  0
  -21.1495   -6.0521   25.9083 H   0  0  0  0  0  0
  -22.0586   -2.7625   23.2840 H   0  0  0  0  0  0
  -22.4062  -11.9871   22.4870 H   0  0  0  0  0  0
  -21.1021  -13.1181   22.2676 H   0  0  0  0  0  0
  -24.6359  -15.8428   20.5061 H   0  0  0  0  0  0
  -26.2482  -15.6211   20.0449 H   0  0  0  0  0  0
  -26.7369  -32.5209   23.0900 H   0  0  0  0  0  0
  -25.0306  -33.9543   25.0356 H   0  0  0  0  0  0
  -22.7638  -31.2892   21.3648 H   0  0  0  0  0  0
  -23.3768  -35.9485   23.3281 H   0  0  0  0  0  0
  -24.3554  -36.8839   22.2051 H   0  0  0  0  0  0
  -23.7196  -37.6380   23.6665 H   0  0  0  0  0  0
  -26.1788  -31.4293   20.6042 H   0  0  0  0  0  0
  -26.8853  -30.7319   22.0267 H   0  0  0  0  0  0
  -28.1327  -28.7155   21.2100 H   0  0  0  0  0  0
  -25.8537  -25.7825   19.0275 H   0  0  0  0  0  0
  -23.9303  -27.2733   19.0154 H   0  0  0  0  0  0
  -23.8381  -30.5458   19.3866 H   0  0  0  0  0  0
  -22.7827  -29.2376   19.8414 H   0  0  0  0  0  0
  -25.1327  -36.1765   25.0806 H   0  0  0  0  0  0
  -21.0043  -28.3384   24.1323 H   0  0  0  0  0  0
  -20.5694  -26.2394   23.3634 H   0  0  0  0  0  0
  -21.6670  -26.7463   22.1178 H   0  0  0  0  0  0
  -19.6918  -25.6304   21.1275 H   0  0  0  0  0  0
  -19.6698  -27.3164   20.6712 H   0  0  0  0  0  0
  -17.4211  -26.6715   21.4031 H   0  0  0  0  0  0
  -18.0337  -26.0132   22.9049 H   0  0  0  0  0  0
  -19.7988  -30.7322   24.2196 H   0  0  0  0  0  0
  -17.5066  -31.6289   24.5193 H   0  0  0  0  0  0
  -15.5383  -30.3002   23.7688 H   0  0  0  0  0  0
  -15.8713  -28.0838   22.7090 H   0  0  0  0  0  0
  -24.5855  -30.7282   25.7651 H   0  0  0  0  0  0
  -24.8973  -32.3117   26.4645 H   0  0  0  0  0  0
  -25.7956  -30.9090   27.0191 H   0  0  0  0  0  0
  -26.3062  -29.6666   24.1324 H   0  0  0  0  0  0
  -27.3928  -29.7302   25.4990 H   0  0  0  0  0  0
  -27.9020  -30.4141   23.9764 H   0  0  0  0  0  0
  -27.2698  -33.3697   26.1957 H   0  0  0  0  0  0
  -28.3998  -32.6794   25.0388 H   0  0  0  0  0  0
  -28.0641  -31.8523   26.5509 H   0  0  0  0  0  0
  -28.2547  -38.0053   24.7559 H   0  0  0  0  0  0
  -28.1072  -36.2591   24.6216 H   0  0  0  0  0  0
  -27.2278  -37.1333   25.8862 H   0  0  0  0  0  0
  -20.9446  -29.8797   21.6723 H   0  0  0  0  0  0
  -26.0087  -38.2791   24.1494 H   0  0  0  0  0  0
  -31.8502  -16.9681   21.7072 H   0  0  0  0  0  0
  -28.0983  -19.9937   20.9122 H   0  0  0  0  0  0
  -27.9316  -19.9779   19.1933 H   0  0  0  0  0  0
  -29.6452  -22.7335   18.1138 H   0  0  0  0  0  0
  -30.8928  -22.4314   19.3034 H   0  0  0  0  0  0
  -29.5281  -20.3349   17.5669 H   0  0  0  0  0  0
  -34.0609  -17.9277   21.8182 H   0  0  0  0  0  0
  -34.6742  -18.9110   20.4939 H   0  0  0  0  0  0
  -34.3342  -17.1794   20.2544 H   0  0  0  0  0  0
  -32.2798  -21.4638   17.1201 H   0  0  0  0  0  0
  -30.8708  -21.5935   16.0867 H   0  0  0  0  0  0
  -31.5860  -20.0317   16.3335 H   0  0  0  0  0  0
  -34.8324  -18.8128   15.6520 H   0  0  0  0  0  0
  -35.8436  -19.0597   17.0628 H   0  0  0  0  0  0
  -34.7539  -20.3413   16.5218 H   0  0  0  0  0  0
  -27.3572  -23.0014   18.9863 H   0  0  0  0  0  0
  -27.1798  -22.5083   20.5993 H   0  0  0  0  0  0
  -34.1316  -17.8076   18.0596 H   0  0  0  0  0  0
  -32.9314  -18.3287   16.9171 H   0  0  0  0  0  0
  -28.8296  -24.4468   21.3708 H   0  0  0  0  0  0
  -27.1516  -24.6238   21.1936 H   0  0  0  0  0  0
  -28.7269  -16.1277   20.4739 H   0  0  0  0  0  0
  -29.5161  -21.8964   20.7499 H   0  0  0  0  0  0
  1 25  1  0  0  0
  1 30  2  0  0  0
  1 86  1  0  0  0
  2  3  1  0  0  0
  2 25  1  0  0  0
  2 89  1  0  0  0
  2 90  1  0  0  0
  3  4  1  0  0  0
  3 91  1  0  0  0
  3 92  1  0  0  0
  4  5  1  0  0  0
  4 93  1  0  0  0
  4 94  1  0  0  0
  5  6  1  0  0  0
  5 26  1  0  0  0
  5 95  1  0  0  0
  6 25  1  0  0  0
  6 96  1  0  0  0
  6 97  1  0  0  0
  7  8  2  0  0  0
  7 26  1  0  0  0
  7 29  1  0  0  0
  8  9  1  0  0  0
  8 22  1  0  0  0
  9 10  1  0  0  0
  9 27  2  0  0  0
 10 11  2  0  0  0
 10 15  1  0  0  0
 11 12  1  0  0  0
 11 98  1  0  0  0
 12 13  2  0  0  0
 12 99  1  0  0  0
 13 14  1  0  0  0
 13 31  1  0  0  0
 14 15  2  0  0  0
 14100  1  0  0  0
 15101  1  0  0  0
 16 17  2  0  0  0
 16 21  1  0  0  0
 16 31  1  0  0  0
 17 18  1  0  0  0
 17102  1  0  0  0
 18 19  2  0  0  0
 18103  1  0  0  0
 19 20  1  0  0  0
 19 24  1  0  0  0
 20 21  2  0  0  0
 20104  1  0  0  0
 21 23  1  0  0  0
 22 28  1  0  0  0
 22 32  2  0  0  0
 26 27  1  0  0  0
 28105  1  0  0  0
 28106  1  0  0  0
 29107  1  0  0  0
 29108  1  0  0  0
 33 34  1  0  0  0
 33 66  1  0  0  0
 33 70  2  0  0  0
 34 36  1  0  0  0
 34 59  1  0  0  0
 34109  1  0  0  0
 35 44  2  0  0  0
 35 45  1  0  0  0
 35 68  1  0  0  0
 36 56  1  0  0  0
 36110  1  0  0  0
 37 39  1  0  0  0
 37 47  1  0  0  0
 37 66  1  0  0  0
 37111  1  0  0  0
 38 43  2  0  0  0
 38 46  1  0  0  0
 38 47  1  0  0  0
 39 64  1  0  0  0
 39 67  2  0  0  0
 40 52  1  0  0  0
 40 53  2  0  0  0
 40 58  1  0  0  0
 41112  1  0  0  0
 41113  1  0  0  0
 41114  1  0  0  0
 41 48  1  0  0  0
 42 43  1  0  0  0
 42 66  1  0  0  0
 42115  1  0  0  0
 42116  1  0  0  0
 43 44  1  0  0  0
 44117  1  0  0  0
 45 46  2  0  0  0
 45118  1  0  0  0
 46119  1  0  0  0
 47120  1  0  0  0
 47121  1  0  0  0
 48 56  1  0  0  0
 48 65  1  0  0  0
 48122  1  0  0  0
 49 50  1  0  0  0
 49 53  1  0  0  0
 49 64  1  0  0  0
 49123  1  0  0  0
 50 51  1  0  0  0
 50124  1  0  0  0
 50125  1  0  0  0
 51 52  1  0  0  0
 51126  1  0  0  0
 51127  1  0  0  0
 52128  1  0  0  0
 52129  1  0  0  0
 53 54  1  0  0  0
 54 55  2  0  0  0
 54130  1  0  0  0
 55 57  1  0  0  0
 55131  1  0  0  0
 56 69  2  0  0  0
 57 58  2  0  0  0
 57132  1  0  0  0
 58133  1  0  0  0
 59 60  1  0  0  0
 59 61  1  0  0  0
 59 62  1  0  0  0
 60134  1  0  0  0
 60135  1  0  0  0
 60136  1  0  0  0
 61137  1  0  0  0
 61138  1  0  0  0
 61139  1  0  0  0
 62140  1  0  0  0
 62141  1  0  0  0
 62142  1  0  0  0
 63 65  1  0  0  0
 63143  1  0  0  0
 63144  1  0  0  0
 63145  1  0  0  0
 64146  1  0  0  0
 65147  1  0  0  0
 68 85  1  0  0  0
 71 74  2  0  0  0
 71 75  1  0  0  0
 71148  1  0  0  0
 72 73  1  0  0  0
 72 75  2  0  0  0
 72 77  1  0  0  0
 73 76  2  0  0  0
 73 79  1  0  0  0
 74 76  1  0  0  0
 74 80  1  0  0  0
 75 86  1  0  0  0
 76 88  1  0  0  0
 77 87  1  0  0  0
 77149  1  0  0  0
 77150  1  0  0  0
 78 79  1  0  0  0
 78 87  1  0  0  0
 78151  1  0  0  0
 78152  1  0  0  0
 79 81  1  0  0  0
 79153  1  0  0  0
 80154  1  0  0  0
 80155  1  0  0  0
 80156  1  0  0  0
 81157  1  0  0  0
 81158  1  0  0  0
 81159  1  0  0  0
 82 84  1  0  0  0
 82160  1  0  0  0
 82161  1  0  0  0
 82162  1  0  0  0
 83 85  1  0  0  0
 83163  1  0  0  0
 83164  1  0  0  0
 83 87  1  0  0  0
 84 88  1  0  0  0
 84165  1  0  0  0
 84166  1  0  0  0
 85167  1  0  0  0
 85168  1  0  0  0
 86169  1  0  0  0
 87170  1  0  0  0
M  CHG  1  87   1
M  ISO  4   1 100  68 101  85 101  86 100
M  END
> <chiral flag>
0

> <version>
0

> <s_m_source_file>
/data/baiqing/PycharmProjects/Reinvent-master-3.2/result/LINK_invent/BTK/process_docking_weight1_custom_sum_contain_oxygen_bond_distance_aromatic_linkinvent_7_9_3/rearranged_h_0156.sdf

> <i_m_source_file_index>
45

> <r_mmod_Potential_Energy-OPLS-2005>
892.069274902344

> <r_mmod_Stretch_Energy-OPLS-2005>
356.124176025391

> <r_mmod_Bend_Energy-OPLS-2005>
392.129669189453

> <r_mmod_Torsional_Energy-OPLS-2005>
465.156677246094

> <r_mmod_Improper_Torsional_Energy-OPLS-2005>
12.572226524353

> <r_mmod_Van_der_Waal_Energy-OPLS-2005>
158.800231933594

> <r_mmod_Electrostatic_Energy-OPLS-2005>
-306.179443359375

> <r_mmod_Solvation_Energy-OPLS-2005>
-434.871826171875

> <b_mmod_Minimization_Converged-OPLS-2005>
0

> <r_mmod_RMS_Derivative-OPLS-2005>
6.50285959243774

$$$$
45
                    3D
 Structure written by MMmdl.
170179  0  0  1  0            999 V2000
  -30.6814  -14.6298   20.4845 C   0  0  0  0  0  0
  -30.4171  -12.3821   19.4637 C   0  0  0  0  0  0
  -29.5000  -12.4996   18.2287 C   0  0  0  0  0  0
  -28.0266  -12.3373   18.6466 C   0  0  0  0  0  0
  -27.6491  -13.2275   19.8611 C   0  0  2  0  0  0
  -28.6957  -13.1299   20.9945 C   0  0  0  0  0  0
  -25.2531  -13.8206   20.5712 C   0  0  0  0  0  0
  -24.1811  -13.0447   20.9222 C   0  0  0  0  0  0
  -24.6395  -11.6930   20.8773 C   0  0  0  0  0  0
  -23.9073  -10.4303   21.0421 C   0  0  0  0  0  0
  -24.3619   -9.4218   21.9201 C   0  0  0  0  0  0
  -23.6291   -8.2251   22.0766 C   0  0  0  0  0  0
  -22.4278   -8.0284   21.3556 C   0  0  0  0  0  0
  -21.9912   -9.0266   20.4653 C   0  0  0  0  0  0
  -22.7243  -10.2149   20.3067 C   0  0  0  0  0  0
  -21.6853   -6.0738   22.5290 C   0  0  0  0  0  0
  -21.4013   -6.5644   23.8225 C   0  0  0  0  0  0
  -21.3663   -5.6794   24.9187 C   0  0  0  0  0  0
  -21.6047   -4.3060   24.7233 C   0  0  0  0  0  0
  -21.8812   -3.8151   23.4350 C   0  0  0  0  0  0
  -21.9184   -4.6963   22.3408 C   0  0  0  0  0  0
  -22.7835  -13.5235   21.1873 C   0  0  0  0  0  0
  -22.1654   -4.2150   21.0982 F   0  0  0  0  0  0
  -21.5626   -3.4543   25.7748 F   0  0  0  0  0  0
  -30.0086  -13.4384   20.4130 N   0  0  0  0  0  0
  -26.2974  -12.9410   20.3355 N   0  0  0  0  0  0
  -25.9333  -11.6558   20.5803 N   0  0  0  0  0  0
  -22.0468  -12.8223   22.0428 N   0  0  0  0  0  0
  -25.4203  -15.1927   20.4098 N   0  0  0  0  0  0
  -31.8586  -14.7156   20.1314 O   0  0  0  0  0  0
  -21.6637   -6.8884   21.4253 O   0  0  0  0  0  0
  -22.3530  -14.5547   20.6739 O   0  0  0  0  0  0
  -24.6265  -31.8615   23.2042 C   0  0  0  0  0  0
  -25.9114  -32.4792   23.8364 C   0  0  1  0  0  0
  -27.2166  -27.3142   20.1199 C   0  0  0  0  0  0
  -25.5926  -33.8588   24.2283 N   0  0  0  0  0  0
  -23.4216  -30.4851   21.5466 C   0  0  2  0  0  0
  -24.8686  -28.9448   20.1096 C   0  0  0  0  0  0
  -22.7492  -29.4625   22.4935 C   0  0  0  0  0  0
  -18.0297  -28.1362   22.8490 C   0  0  0  0  0  0
  -24.1495  -36.7316   23.2642 C   0  0  0  0  0  0
  -25.9644  -30.7896   21.3788 C   0  0  0  0  0  0
  -26.0392  -29.4173   20.7191 C   0  0  0  0  0  0
  -27.2207  -28.6129   20.7171 C   0  0  0  0  0  0
  -26.0300  -26.9085   19.4706 C   0  0  0  0  0  0
  -24.8648  -27.6943   19.4763 C   0  0  0  0  0  0
  -23.6376  -29.8258   20.1603 C   0  0  0  0  0  0
  -25.4121  -36.3091   24.0321 C   0  0  1  0  0  0
  -20.5899  -28.3681   23.1282 C   0  0  2  0  0  0
  -20.6792  -26.9404   22.5412 C   0  0  0  0  0  0
  -19.5761  -26.6377   21.5216 C   0  0  0  0  0  0
  -18.1941  -26.7913   22.1624 C   0  0  0  0  0  0
  -19.1548  -28.8838   23.2885 C   0  0  0  0  0  0
  -18.9473  -30.1442   23.8893 C   0  0  0  0  0  0
  -17.6471  -30.6573   24.0550 C   0  0  0  0  0  0
  -25.9051  -34.9456   23.5110 C   0  0  0  0  0  0
  -16.5362  -29.9069   23.6316 C   0  0  0  0  0  0
  -16.7284  -28.6482   23.0349 C   0  0  0  0  0  0
  -26.4481  -31.6594   25.0733 C   0  0  0  0  0  0
  -25.3701  -31.3725   26.1455 C   0  0  0  0  0  0
  -27.0333  -30.3021   24.6189 C   0  0  0  0  0  0
  -27.6043  -32.4332   25.7502 C   0  0  0  0  0  0
  -27.5585  -37.1818   24.8464 C   0  0  0  0  0  0
  -21.4202  -29.3043   22.3684 N   0  0  0  0  0  0
  -26.4306  -37.3777   23.9389 N   0  0  0  0  0  0
  -24.6894  -31.0619   22.1006 N   0  0  0  0  0  0
  -23.4215  -28.8155   23.3009 O   0  0  0  0  0  0
  -28.2869  -26.4055   20.1682 O   0  0  0  0  0  0
  -26.5623  -34.8916   22.4678 O   0  0  0  0  0  0
  -23.5422  -32.1416   23.7357 O   0  0  0  0  0  0
  -29.4036  -23.1696   21.7037 C   0  0  0  0  0  0
  -28.7202  -23.7625   20.6107 C   0  0  0  0  0  0
  -29.8965  -21.8301   21.6942 C   0  0  0  0  0  0
  -28.5856  -22.9347   19.4520 C   0  0  0  0  0  0
  -29.0719  -21.5767   19.4311 C   0  0  0  0  0  0
  -29.7076  -20.9814   20.5640 C   0  0  0  0  0  0
  -28.6503  -20.2665   24.3282 C   0  0  0  0  0  0
  -29.8559  -20.2741   25.2360 C   0  0  0  0  0  0
  -29.7163  -21.3225   24.1545 C   0  0  0  0  0  0
  -27.9050  -23.4912   18.2087 C   0  0  0  0  0  0
  -28.9234  -20.7490   18.1589 C   0  0  0  0  0  0
  -31.9177  -22.1088   23.2157 C   0  0  0  0  0  0
  -27.9510  -25.1266   20.8432 C   0  0  0  0  0  0
  -30.5322  -17.1748   20.6460 C   0  0  0  0  0  0
  -29.5630  -18.4439   20.6314 C   0  0  0  0  0  0
  -30.6291  -21.3176   22.9362 C   0  0  2  0  0  0
  -29.9736  -15.7733   20.7452 N   0  0  0  0  0  0
  -30.3084  -19.7038   20.5254 O   0  0  0  0  0  0
  -31.4653  -12.4610   19.1696 H   0  0  0  0  0  0
  -30.3129  -11.3983   19.9253 H   0  0  0  0  0  0
  -29.7631  -11.7450   17.4863 H   0  0  0  0  0  0
  -29.6445  -13.4691   17.7491 H   0  0  0  0  0  0
  -27.8732  -11.2871   18.8985 H   0  0  0  0  0  0
  -27.3660  -12.5460   17.8043 H   0  0  0  0  0  0
  -27.6577  -14.2550   19.4980 H   0  0  0  0  0  0
  -28.7023  -12.1319   21.4340 H   0  0  0  0  0  0
  -28.4543  -13.8181   21.8062 H   0  0  0  0  0  0
  -25.2755   -9.5696   22.4793 H   0  0  0  0  0  0
  -24.0001   -7.4641   22.7488 H   0  0  0  0  0  0
  -21.0847   -8.8788   19.8953 H   0  0  0  0  0  0
  -22.3701  -10.9696   19.6182 H   0  0  0  0  0  0
  -21.2014   -7.6156   23.9730 H   0  0  0  0  0  0
  -21.1492   -6.0527   25.9091 H   0  0  0  0  0  0
  -22.0584   -2.7614   23.2856 H   0  0  0  0  0  0
  -22.4066  -11.9859   22.4780 H   0  0  0  0  0  0
  -21.1108  -13.1286   22.2662 H   0  0  0  0  0  0
  -24.6480  -15.8431   20.5068 H   0  0  0  0  0  0
  -26.2671  -15.6336   20.0739 H   0  0  0  0  0  0
  -26.7191  -32.5455   23.1115 H   0  0  0  0  0  0
  -25.0035  -33.9723   25.0399 H   0  0  0  0  0  0
  -22.7137  -31.3048   21.4050 H   0  0  0  0  0  0
  -23.3750  -35.9664   23.3309 H   0  0  0  0  0  0
  -24.3579  -36.8944   22.2061 H   0  0  0  0  0  0
  -23.7266  -37.6523   23.6671 H   0  0  0  0  0  0
  -26.0970  -31.5539   20.6110 H   0  0  0  0  0  0
  -26.8457  -30.8380   22.0079 H   0  0  0  0  0  0
  -28.1152  -28.9626   21.2135 H   0  0  0  0  0  0
  -25.9817  -25.9526   18.9725 H   0  0  0  0  0  0
  -23.9689  -27.3261   18.9936 H   0  0  0  0  0  0
  -23.7580  -30.6053   19.4064 H   0  0  0  0  0  0
  -22.7574  -29.2562   19.8584 H   0  0  0  0  0  0
  -25.1307  -36.1955   25.0817 H   0  0  0  0  0  0
  -20.9982  -28.3262   24.1406 H   0  0  0  0  0  0
  -20.5707  -26.2290   23.3613 H   0  0  0  0  0  0
  -21.6659  -26.7440   22.1199 H   0  0  0  0  0  0
  -19.6924  -25.6292   21.1247 H   0  0  0  0  0  0
  -19.6701  -27.3179   20.6741 H   0  0  0  0  0  0
  -17.4230  -26.6680   21.4014 H   0  0  0  0  0  0
  -18.0308  -26.0040   22.8994 H   0  0  0  0  0  0
  -19.7949  -30.7255   24.2268 H   0  0  0  0  0  0
  -17.5031  -31.6245   24.5159 H   0  0  0  0  0  0
  -15.5360  -30.2972   23.7641 H   0  0  0  0  0  0
  -15.8683  -28.0798   22.7061 H   0  0  0  0  0  0
  -24.5894  -30.7059   25.7776 H   0  0  0  0  0  0
  -24.8860  -32.2881   26.4862 H   0  0  0  0  0  0
  -25.8018  -30.8918   27.0239 H   0  0  0  0  0  0
  -26.2905  -29.6772   24.1231 H   0  0  0  0  0  0
  -27.4047  -29.7287   25.4686 H   0  0  0  0  0  0
  -27.8758  -30.4320   23.9404 H   0  0  0  0  0  0
  -27.2672  -33.3665   26.2025 H   0  0  0  0  0  0
  -28.3870  -32.6841   25.0334 H   0  0  0  0  0  0
  -28.0684  -31.8487   26.5455 H   0  0  0  0  0  0
  -28.2612  -38.0107   24.7489 H   0  0  0  0  0  0
  -28.1071  -36.2629   24.6327 H   0  0  0  0  0  0
  -27.2286  -37.1515   25.8865 H   0  0  0  0  0  0
  -20.9378  -29.8793   21.6914 H   0  0  0  0  0  0
  -26.0198  -38.2865   24.1353 H   0  0  0  0  0  0
  -29.5213  -23.7507   22.6075 H   0  0  0  0  0  0
  -27.6974  -20.5868   24.7454 H   0  0  0  0  0  0
  -28.5907  -19.4768   23.5844 H   0  0  0  0  0  0
  -30.5978  -19.4903   25.0927 H   0  0  0  0  0  0
  -29.6993  -20.5829   26.2677 H   0  0  0  0  0  0
  -29.4446  -22.3193   24.4989 H   0  0  0  0  0  0
  -27.4668  -24.4720   18.3637 H   0  0  0  0  0  0
  -27.1120  -22.8261   17.8655 H   0  0  0  0  0  0
  -28.6318  -23.5957   17.4034 H   0  0  0  0  0  0
  -29.1830  -21.3264   17.2716 H   0  0  0  0  0  0
  -27.8944  -20.4020   18.0559 H   0  0  0  0  0  0
  -29.5763  -19.8776   18.1530 H   0  0  0  0  0  0
  -32.6097  -22.0545   22.3754 H   0  0  0  0  0  0
  -32.4352  -21.7116   24.0898 H   0  0  0  0  0  0
  -31.7149  -23.1622   23.4099 H   0  0  0  0  0  0
  -28.0137  -25.3468   21.9090 H   0  0  0  0  0  0
  -26.9014  -24.8685   20.7053 H   0  0  0  0  0  0
  -31.2385  -17.2997   21.4685 H   0  0  0  0  0  0
  -31.1350  -17.2243   19.7371 H   0  0  0  0  0  0
  -28.9655  -18.4619   21.5421 H   0  0  0  0  0  0
  -28.8626  -18.3601   19.8003 H   0  0  0  0  0  0
  -30.9280  -20.2832   22.7652 H   0  0  0  0  0  0
  -28.9992  -15.6677   20.9856 H   0  0  0  0  0  0
  1 25  1  0  0  0
  1 30  2  0  0  0
  1 87  1  0  0  0
  2  3  1  0  0  0
  2 25  1  0  0  0
  2 89  1  0  0  0
  2 90  1  0  0  0
  3  4  1  0  0  0
  3 91  1  0  0  0
  3 92  1  0  0  0
  4  5  1  0  0  0
  4 93  1  0  0  0
  4 94  1  0  0  0
  5  6  1  0  0  0
  5 26  1  0  0  0
  5 95  1  0  0  0
  6 25  1  0  0  0
  6 96  1  0  0  0
  6 97  1  0  0  0
  7  8  2  0  0  0
  7 26  1  0  0  0
  7 29  1  0  0  0
  8  9  1  0  0  0
  8 22  1  0  0  0
  9 10  1  0  0  0
  9 27  2  0  0  0
 10 11  2  0  0  0
 10 15  1  0  0  0
 11 12  1  0  0  0
 11 98  1  0  0  0
 12 13  2  0  0  0
 12 99  1  0  0  0
 13 14  1  0  0  0
 13 31  1  0  0  0
 14 15  2  0  0  0
 14100  1  0  0  0
 15101  1  0  0  0
 16 17  2  0  0  0
 16 21  1  0  0  0
 16 31  1  0  0  0
 17 18  1  0  0  0
 17102  1  0  0  0
 18 19  2  0  0  0
 18103  1  0  0  0
 19 20  1  0  0  0
 19 24  1  0  0  0
 20 21  2  0  0  0
 20104  1  0  0  0
 21 23  1  0  0  0
 22 28  1  0  0  0
 22 32  2  0  0  0
 26 27  1  0  0  0
 28105  1  0  0  0
 28106  1  0  0  0
 29107  1  0  0  0
 29108  1  0  0  0
 33 34  1  0  0  0
 33 66  1  0  0  0
 33 70  2  0  0  0
 34 36  1  0  0  0
 34 59  1  0  0  0
 34109  1  0  0  0
 35 44  2  0  0  0
 35 45  1  0  0  0
 35 68  1  0  0  0
 36 56  1  0  0  0
 36110  1  0  0  0
 37 39  1  0  0  0
 37 47  1  0  0  0
 37 66  1  0  0  0
 37111  1  0  0  0
 38 43  2  0  0  0
 38 46  1  0  0  0
 38 47  1  0  0  0
 39 64  1  0  0  0
 39 67  2  0  0  0
 40 52  1  0  0  0
 40 53  2  0  0  0
 40 58  1  0  0  0
 41112  1  0  0  0
 41113  1  0  0  0
 41114  1  0  0  0
 41 48  1  0  0  0
 42 43  1  0  0  0
 42 66  1  0  0  0
 42115  1  0  0  0
 42116  1  0  0  0
 43 44  1  0  0  0
 44117  1  0  0  0
 45 46  2  0  0  0
 45118  1  0  0  0
 46119  1  0  0  0
 47120  1  0  0  0
 47121  1  0  0  0
 48 56  1  0  0  0
 48 65  1  0  0  0
 48122  1  0  0  0
 49 50  1  0  0  0
 49 53  1  0  0  0
 49 64  1  0  0  0
 49123  1  0  0  0
 50 51  1  0  0  0
 50124  1  0  0  0
 50125  1  0  0  0
 51 52  1  0  0  0
 51126  1  0  0  0
 51127  1  0  0  0
 52128  1  0  0  0
 52129  1  0  0  0
 53 54  1  0  0  0
 54 55  2  0  0  0
 54130  1  0  0  0
 55 57  1  0  0  0
 55131  1  0  0  0
 56 69  2  0  0  0
 57 58  2  0  0  0
 57132  1  0  0  0
 58133  1  0  0  0
 59 60  1  0  0  0
 59 61  1  0  0  0
 59 62  1  0  0  0
 60134  1  0  0  0
 60135  1  0  0  0
 60136  1  0  0  0
 61137  1  0  0  0
 61138  1  0  0  0
 61139  1  0  0  0
 62140  1  0  0  0
 62141  1  0  0  0
 62142  1  0  0  0
 63 65  1  0  0  0
 63143  1  0  0  0
 63144  1  0  0  0
 63145  1  0  0  0
 64146  1  0  0  0
 65147  1  0  0  0
 68 83  1  0  0  0
 71 72  2  0  0  0
 71 73  1  0  0  0
 71148  1  0  0  0
 72 74  1  0  0  0
 72 83  1  0  0  0
 73 76  2  0  0  0
 73 86  1  0  0  0
 74 75  2  0  0  0
 74 80  1  0  0  0
 75 76  1  0  0  0
 75 81  1  0  0  0
 76 88  1  0  0  0
 77 78  1  0  0  0
 77149  1  0  0  0
 77150  1  0  0  0
 77 79  1  0  0  0
 78 79  1  0  0  0
 78151  1  0  0  0
 78152  1  0  0  0
 79 86  1  0  0  0
 79153  1  0  0  0
 80154  1  0  0  0
 80155  1  0  0  0
 80156  1  0  0  0
 81157  1  0  0  0
 81158  1  0  0  0
 81159  1  0  0  0
 82160  1  0  0  0
 82161  1  0  0  0
 82162  1  0  0  0
 82 86  1  0  0  0
 83163  1  0  0  0
 83164  1  0  0  0
 84 85  1  0  0  0
 84 87  1  0  0  0
 84165  1  0  0  0
 84166  1  0  0  0
 85 88  1  0  0  0
 85167  1  0  0  0
 85168  1  0  0  0
 86169  1  0  0  0
 87170  1  0  0  0
M  ISO  4   1 100  68 101  83 101  87 100
M  END
> <chiral flag>
0

> <version>
0

> <s_m_source_file>
/data/baiqing/PycharmProjects/Reinvent-master-3.2/result/LINK_invent/BTK/process_docking_weight1_custom_sum_contain_oxygen_bond_distance_aromatic_linkinvent_7_9_3/rearranged_h_0156.sdf

> <i_m_source_file_index>
46

> <r_mmod_Potential_Energy-OPLS-2005>
113.804992675781

> <r_mmod_Stretch_Energy-OPLS-2005>
85.9828720092773

> <r_mmod_Bend_Energy-OPLS-2005>
148.615112304688

> <r_mmod_Torsional_Energy-OPLS-2005>
305.627044677734

> <r_mmod_Improper_Torsional_Energy-OPLS-2005>
7.29387712478638

> <r_mmod_Van_der_Waal_Energy-OPLS-2005>
143.349380493164

> <r_mmod_Electrostatic_Energy-OPLS-2005>
-425.644989013672

> <r_mmod_Solvation_Energy-OPLS-2005>
-206.422119140625

> <b_mmod_Minimization_Converged-OPLS-2005>
0

> <r_mmod_RMS_Derivative-OPLS-2005>
1.89634883403778

$$$$
46
                    3D
 Structure written by MMmdl.
182192  0  0  1  0            999 V2000
  -30.6977  -14.8795   20.4027 C   0  0  0  0  0  0
  -30.4105  -12.5632   19.4509 C   0  0  0  0  0  0
  -29.4732  -12.3985   18.2367 C   0  0  0  0  0  0
  -28.0150  -12.2585   18.6867 C   0  0  0  0  0  0
  -27.6156  -13.2481   19.8121 C   0  0  2  0  0  0
  -28.6832  -13.3550   20.9200 C   0  0  0  0  0  0
  -25.2453  -13.8261   20.5779 C   0  0  0  0  0  0
  -24.1763  -13.0477   20.9278 C   0  0  0  0  0  0
  -24.6373  -11.6957   20.8817 C   0  0  0  0  0  0
  -23.9062  -10.4316   21.0452 C   0  0  0  0  0  0
  -24.3628   -9.4214   21.9201 C   0  0  0  0  0  0
  -23.6317   -8.2241   22.0753 C   0  0  0  0  0  0
  -22.4290   -8.0287   21.3551 C   0  0  0  0  0  0
  -21.9931   -9.0256   20.4646 C   0  0  0  0  0  0
  -22.7248  -10.2144   20.3078 C   0  0  0  0  0  0
  -21.6857   -6.0743   22.5274 C   0  0  0  0  0  0
  -21.4013   -6.5646   23.8210 C   0  0  0  0  0  0
  -21.3664   -5.6798   24.9172 C   0  0  0  0  0  0
  -21.6047   -4.3061   24.7221 C   0  0  0  0  0  0
  -21.8825   -3.8153   23.4339 C   0  0  0  0  0  0
  -21.9195   -4.6973   22.3400 C   0  0  0  0  0  0
  -22.7777  -13.5231   21.1904 C   0  0  0  0  0  0
  -22.1669   -4.2158   21.0979 F   0  0  0  0  0  0
  -21.5630   -3.4542   25.7735 F   0  0  0  0  0  0
  -29.9311  -13.7313   20.2427 N   0  0  0  0  0  0
  -26.2863  -12.9493   20.3317 N   0  0  0  0  0  0
  -25.9312  -11.6626   20.5862 N   0  0  0  0  0  0
  -22.0429  -12.8197   22.0443 N   0  0  0  0  0  0
  -25.4160  -15.1977   20.4178 N   0  0  0  0  0  0
  -31.9151  -14.6846   20.4309 O   0  0  0  0  0  0
  -21.6653   -6.8884   21.4239 O   0  0  0  0  0  0
  -22.3458  -14.5528   20.6733 O   0  0  0  0  0  0
  -24.6379  -31.8507   23.1968 C   0  0  0  0  0  0
  -25.9178  -32.4722   23.8321 C   0  0  1  0  0  0
  -27.1929  -27.1623   20.1592 C   0  0  0  0  0  0
  -25.5959  -33.8529   24.2231 N   0  0  0  0  0  0
  -23.4385  -30.4732   21.5423 C   0  0  2  0  0  0
  -24.8860  -28.9154   20.1102 C   0  0  0  0  0  0
  -22.7529  -29.4574   22.4894 C   0  0  0  0  0  0
  -18.0294  -28.1384   22.8476 C   0  0  0  0  0  0
  -24.1499  -36.7262   23.2642 C   0  0  0  0  0  0
  -25.9935  -30.7278   21.4004 C   0  0  0  0  0  0
  -26.0592  -29.3435   20.7445 C   0  0  0  0  0  0
  -27.2137  -28.4790   20.7630 C   0  0  0  0  0  0
  -26.0227  -26.8716   19.4265 C   0  0  0  0  0  0
  -24.8790  -27.6895   19.4350 C   0  0  0  0  0  0
  -23.6620  -29.8120   20.1577 C   0  0  0  0  0  0
  -25.4129  -36.3050   24.0321 C   0  0  1  0  0  0
  -20.5905  -28.3705   23.1246 C   0  0  2  0  0  0
  -20.6792  -26.9414   22.5401 C   0  0  0  0  0  0
  -19.5765  -26.6382   21.5204 C   0  0  0  0  0  0
  -18.1941  -26.7926   22.1614 C   0  0  0  0  0  0
  -19.1552  -28.8864   23.2852 C   0  0  0  0  0  0
  -18.9472  -30.1460   23.8875 C   0  0  0  0  0  0
  -17.6474  -30.6583   24.0561 C   0  0  0  0  0  0
  -25.9079  -34.9422   23.5083 C   0  0  0  0  0  0
  -16.5364  -29.9075   23.6344 C   0  0  0  0  0  0
  -16.7283  -28.6495   23.0363 C   0  0  0  0  0  0
  -26.4522  -31.6571   25.0741 C   0  0  0  0  0  0
  -25.3710  -31.3744   26.1437 C   0  0  0  0  0  0
  -27.0387  -30.2963   24.6317 C   0  0  0  0  0  0
  -27.6063  -32.4331   25.7517 C   0  0  0  0  0  0
  -27.5577  -37.1786   24.8464 C   0  0  0  0  0  0
  -21.4233  -29.3046   22.3630 N   0  0  0  0  0  0
  -26.4295  -37.3753   23.9404 N   0  0  0  0  0  0
  -24.7092  -31.0384   22.1008 N   0  0  0  0  0  0
  -23.4192  -28.8117   23.3025 O   0  0  0  0  0  0
  -28.2442  -26.1843   20.1950 O   0  0  0  0  0  0
  -26.5655  -34.8908   22.4652 O   0  0  0  0  0  0
  -23.5508  -32.1396   23.7191 O   0  0  0  0  0  0
  -31.8207  -18.1374   19.7408 C   0  0  0  0  0  0
  -32.9599  -18.7283   19.1349 C   0  0  0  0  0  0
  -33.4599  -18.2056   17.9173 C   0  0  0  0  0  0
  -32.8469  -17.0662   17.3387 C   0  0  0  0  0  0
  -31.7169  -16.4748   17.9598 C   0  0  0  0  0  0
  -31.2586  -16.9328   19.2271 C   0  0  0  0  0  0
  -31.1016  -18.8504   20.8822 C   0  0  0  0  0  0
  -29.1766  -19.5839   19.3059 C   0  0  0  0  0  0
  -28.8705  -19.7306   21.7320 C   0  0  0  0  0  0
  -29.2906  -17.1742   20.7022 C   0  0  0  0  0  0
  -28.5553  -21.0697   19.3520 C   0  0  0  0  0  0
  -29.1171  -21.3305   21.7198 C   0  0  0  0  0  0
  -29.5800  -18.8146   20.6477 C   0  0  2  0  0  0
  -33.6523  -19.9154   19.8044 C   0  0  0  0  0  0
  -34.6258  -18.8893   17.2018 C   0  0  0  0  0  0
  -33.4186  -16.4619   16.0568 C   0  0  0  0  0  0
  -30.9618  -15.3801   17.2291 C   0  0  0  0  0  0
  -26.6930  -24.0494   20.2306 C   0  0  0  0  0  0
  -29.1897  -23.5680   20.1548 C   0  0  0  0  0  0
  -28.0509  -24.6813   20.5791 C   0  0  1  0  0  0
  -30.2759  -16.1979   20.0177 N   0  0  0  0  0  0
  -29.1642  -21.9952   20.3671 N   0  3  2  0  0  0
  -31.4346  -12.6858   19.0973 H   0  0  0  0  0  0
  -30.4166  -11.6592   20.0626 H   0  0  0  0  0  0
  -29.7643  -11.5180   17.6614 H   0  0  0  0  0  0
  -29.5416  -13.2286   17.5441 H   0  0  0  0  0  0
  -27.8948  -11.2335   19.0398 H   0  0  0  0  0  0
  -27.3414  -12.3633   17.8349 H   0  0  0  0  0  0
  -27.5569  -14.2269   19.3328 H   0  0  0  0  0  0
  -28.7877  -12.4177   21.4686 H   0  0  0  0  0  0
  -28.4052  -14.1189   21.6470 H   0  0  0  0  0  0
  -25.2765   -9.5687   22.4784 H   0  0  0  0  0  0
  -24.0033   -7.4622   22.7461 H   0  0  0  0  0  0
  -21.0873   -8.8775   19.8933 H   0  0  0  0  0  0
  -22.3711  -10.9699   19.6199 H   0  0  0  0  0  0
  -21.2002   -7.6151   23.9713 H   0  0  0  0  0  0
  -21.1485   -6.0527   25.9078 H   0  0  0  0  0  0
  -22.0598   -2.7616   23.2832 H   0  0  0  0  0  0
  -22.4084  -11.9878   22.4837 H   0  0  0  0  0  0
  -21.1028  -13.1174   22.2630 H   0  0  0  0  0  0
  -24.6527  -15.8554   20.5331 H   0  0  0  0  0  0
  -26.2742  -15.6324   20.1038 H   0  0  0  0  0  0
  -26.7232  -32.5335   23.1037 H   0  0  0  0  0  0
  -25.0076  -33.9661   25.0358 H   0  0  0  0  0  0
  -22.7399  -31.2992   21.3941 H   0  0  0  0  0  0
  -23.3767  -35.9583   23.3301 H   0  0  0  0  0  0
  -24.3585  -36.8900   22.2058 H   0  0  0  0  0  0
  -23.7253  -37.6459   23.6677 H   0  0  0  0  0  0
  -26.1520  -31.4821   20.6290 H   0  0  0  0  0  0
  -26.8644  -30.7726   22.0431 H   0  0  0  0  0  0
  -28.1034  -28.7956   21.2890 H   0  0  0  0  0  0
  -25.9603  -25.9806   18.8259 H   0  0  0  0  0  0
  -23.9986  -27.3737   18.8905 H   0  0  0  0  0  0
  -23.7925  -30.5917   19.4065 H   0  0  0  0  0  0
  -22.7777  -29.2522   19.8483 H   0  0  0  0  0  0
  -25.1309  -36.1900   25.0813 H   0  0  0  0  0  0
  -20.9983  -28.3291   24.1370 H   0  0  0  0  0  0
  -20.5694  -26.2308   23.3608 H   0  0  0  0  0  0
  -21.6657  -26.7435   22.1195 H   0  0  0  0  0  0
  -19.6939  -25.6289   21.1243 H   0  0  0  0  0  0
  -19.6719  -27.3180   20.6729 H   0  0  0  0  0  0
  -17.4214  -26.6660   21.4023 H   0  0  0  0  0  0
  -18.0350  -26.0075   22.9021 H   0  0  0  0  0  0
  -19.7956  -30.7270   24.2242 H   0  0  0  0  0  0
  -17.5042  -31.6270   24.5140 H   0  0  0  0  0  0
  -15.5366  -30.2973   23.7698 H   0  0  0  0  0  0
  -15.8681  -28.0808   22.7096 H   0  0  0  0  0  0
  -24.5900  -30.7083   25.7754 H   0  0  0  0  0  0
  -24.8874  -32.2911   26.4821 H   0  0  0  0  0  0
  -25.7994  -30.8953   27.0249 H   0  0  0  0  0  0
  -26.3004  -29.6686   24.1317 H   0  0  0  0  0  0
  -27.3983  -29.7271   25.4900 H   0  0  0  0  0  0
  -27.8928  -30.4194   23.9652 H   0  0  0  0  0  0
  -27.2670  -33.3655   26.2042 H   0  0  0  0  0  0
  -28.3897  -32.6854   25.0353 H   0  0  0  0  0  0
  -28.0708  -31.8494   26.5481 H   0  0  0  0  0  0
  -28.2587  -38.0091   24.7508 H   0  0  0  0  0  0
  -28.1087  -36.2620   24.6300 H   0  0  0  0  0  0
  -27.2287  -37.1435   25.8865 H   0  0  0  0  0  0
  -20.9431  -29.8767   21.6823 H   0  0  0  0  0  0
  -26.0179  -38.2827   24.1397 H   0  0  0  0  0  0
  -31.4114  -19.8878   20.9688 H   0  0  0  0  0  0
  -31.3662  -18.3680   21.8240 H   0  0  0  0  0  0
  -30.0290  -19.6175   18.6269 H   0  0  0  0  0  0
  -28.4532  -18.9616   18.7774 H   0  0  0  0  0  0
  -27.7964  -19.5653   21.6402 H   0  0  0  0  0  0
  -29.1159  -19.3557   22.7262 H   0  0  0  0  0  0
  -28.2929  -16.9693   20.3150 H   0  0  0  0  0  0
  -29.2518  -16.8766   21.7512 H   0  0  0  0  0  0
  -27.4881  -21.0037   19.5601 H   0  0  0  0  0  0
  -28.6290  -21.5168   18.3606 H   0  0  0  0  0  0
  -30.0547  -21.5570   22.2274 H   0  0  0  0  0  0
  -28.3346  -21.8033   22.3140 H   0  0  0  0  0  0
  -33.6120  -19.8380   20.8911 H   0  0  0  0  0  0
  -33.1878  -20.8543   19.5034 H   0  0  0  0  0  0
  -34.7150  -19.9643   19.5723 H   0  0  0  0  0  0
  -34.6569  -19.9618   17.3867 H   0  0  0  0  0  0
  -34.5493  -18.8002   16.1187 H   0  0  0  0  0  0
  -35.5770  -18.4575   17.5152 H   0  0  0  0  0  0
  -34.5041  -16.5489   16.0179 H   0  0  0  0  0  0
  -33.0004  -16.9556   15.1799 H   0  0  0  0  0  0
  -33.2194  -15.3941   15.9767 H   0  0  0  0  0  0
  -30.9311  -15.5545   16.1540 H   0  0  0  0  0  0
  -29.9214  -15.3529   17.5500 H   0  0  0  0  0  0
  -31.4379  -14.4174   17.4077 H   0  0  0  0  0  0
  -26.6176  -23.0473   20.6512 H   0  0  0  0  0  0
  -26.5589  -23.9489   19.1544 H   0  0  0  0  0  0
  -25.8586  -24.6021   20.6581 H   0  0  0  0  0  0
  -30.1108  -23.9002   20.6332 H   0  0  0  0  0  0
  -29.3750  -23.7146   19.0910 H   0  0  0  0  0  0
  -28.0690  -24.7086   21.6691 H   0  0  0  0  0  0
  -30.1333  -21.8294   20.1375 H   0  0  0  0  0  0
  1 25  1  0  0  0
  1 30  2  0  0  0
  1 91  1  0  0  0
  2  3  1  0  0  0
  2 25  1  0  0  0
  2 93  1  0  0  0
  2 94  1  0  0  0
  3  4  1  0  0  0
  3 95  1  0  0  0
  3 96  1  0  0  0
  4  5  1  0  0  0
  4 97  1  0  0  0
  4 98  1  0  0  0
  5  6  1  0  0  0
  5 26  1  0  0  0
  5 99  1  0  0  0
  6 25  1  0  0  0
  6100  1  0  0  0
  6101  1  0  0  0
  7  8  2  0  0  0
  7 26  1  0  0  0
  7 29  1  0  0  0
  8  9  1  0  0  0
  8 22  1  0  0  0
  9 10  1  0  0  0
  9 27  2  0  0  0
 10 11  2  0  0  0
 10 15  1  0  0  0
 11 12  1  0  0  0
 11102  1  0  0  0
 12 13  2  0  0  0
 12103  1  0  0  0
 13 14  1  0  0  0
 13 31  1  0  0  0
 14 15  2  0  0  0
 14104  1  0  0  0
 15105  1  0  0  0
 16 17  2  0  0  0
 16 21  1  0  0  0
 16 31  1  0  0  0
 17 18  1  0  0  0
 17106  1  0  0  0
 18 19  2  0  0  0
 18107  1  0  0  0
 19 20  1  0  0  0
 19 24  1  0  0  0
 20 21  2  0  0  0
 20108  1  0  0  0
 21 23  1  0  0  0
 22 28  1  0  0  0
 22 32  2  0  0  0
 26 27  1  0  0  0
 28109  1  0  0  0
 28110  1  0  0  0
 29111  1  0  0  0
 29112  1  0  0  0
 33 34  1  0  0  0
 33 66  1  0  0  0
 33 70  2  0  0  0
 34 36  1  0  0  0
 34 59  1  0  0  0
 34113  1  0  0  0
 35 44  2  0  0  0
 35 45  1  0  0  0
 35 68  1  0  0  0
 36 56  1  0  0  0
 36114  1  0  0  0
 37 39  1  0  0  0
 37 47  1  0  0  0
 37 66  1  0  0  0
 37115  1  0  0  0
 38 43  2  0  0  0
 38 46  1  0  0  0
 38 47  1  0  0  0
 39 64  1  0  0  0
 39 67  2  0  0  0
 40 52  1  0  0  0
 40 53  2  0  0  0
 40 58  1  0  0  0
 41116  1  0  0  0
 41117  1  0  0  0
 41118  1  0  0  0
 41 48  1  0  0  0
 42 43  1  0  0  0
 42 66  1  0  0  0
 42119  1  0  0  0
 42120  1  0  0  0
 43 44  1  0  0  0
 44121  1  0  0  0
 45 46  2  0  0  0
 45122  1  0  0  0
 46123  1  0  0  0
 47124  1  0  0  0
 47125  1  0  0  0
 48 56  1  0  0  0
 48 65  1  0  0  0
 48126  1  0  0  0
 49 50  1  0  0  0
 49 53  1  0  0  0
 49 64  1  0  0  0
 49127  1  0  0  0
 50 51  1  0  0  0
 50128  1  0  0  0
 50129  1  0  0  0
 51 52  1  0  0  0
 51130  1  0  0  0
 51131  1  0  0  0
 52132  1  0  0  0
 52133  1  0  0  0
 53 54  1  0  0  0
 54 55  2  0  0  0
 54134  1  0  0  0
 55 57  1  0  0  0
 55135  1  0  0  0
 56 69  2  0  0  0
 57 58  2  0  0  0
 57136  1  0  0  0
 58137  1  0  0  0
 59 60  1  0  0  0
 59 61  1  0  0  0
 59 62  1  0  0  0
 60138  1  0  0  0
 60139  1  0  0  0
 60140  1  0  0  0
 61141  1  0  0  0
 61142  1  0  0  0
 61143  1  0  0  0
 62144  1  0  0  0
 62145  1  0  0  0
 62146  1  0  0  0
 63 65  1  0  0  0
 63147  1  0  0  0
 63148  1  0  0  0
 63149  1  0  0  0
 64150  1  0  0  0
 65151  1  0  0  0
 68 90  1  0  0  0
 71 72  2  0  0  0
 71 76  1  0  0  0
 71 77  1  0  0  0
 72 73  1  0  0  0
 72 84  1  0  0  0
 73 74  2  0  0  0
 73 85  1  0  0  0
 74 75  1  0  0  0
 74 86  1  0  0  0
 75 76  2  0  0  0
 75 87  1  0  0  0
 76 91  1  0  0  0
 77152  1  0  0  0
 77153  1  0  0  0
 77 83  1  0  0  0
 78 81  1  0  0  0
 78 83  1  0  0  0
 78154  1  0  0  0
 78155  1  0  0  0
 79 82  1  0  0  0
 79 83  1  0  0  0
 79156  1  0  0  0
 79157  1  0  0  0
 80 83  1  0  0  0
 80 91  1  0  0  0
 80158  1  0  0  0
 80159  1  0  0  0
 81 92  1  0  0  0
 81160  1  0  0  0
 81161  1  0  0  0
 82 92  1  0  0  0
 82162  1  0  0  0
 82163  1  0  0  0
 84164  1  0  0  0
 84165  1  0  0  0
 84166  1  0  0  0
 85167  1  0  0  0
 85168  1  0  0  0
 85169  1  0  0  0
 86170  1  0  0  0
 86171  1  0  0  0
 86172  1  0  0  0
 87173  1  0  0  0
 87174  1  0  0  0
 87175  1  0  0  0
 88176  1  0  0  0
 88177  1  0  0  0
 88178  1  0  0  0
 88 90  1  0  0  0
 89 90  1  0  0  0
 89179  1  0  0  0
 89180  1  0  0  0
 89 92  1  0  0  0
 90181  1  0  0  0
 92182  1  0  0  0
M  CHG  1  92   1
M  ISO  4   1 100  68 101  90 101  91 100
M  END
> <chiral flag>
0

> <version>
0

> <s_m_source_file>
/data/baiqing/PycharmProjects/Reinvent-master-3.2/result/LINK_invent/BTK/process_docking_weight1_custom_sum_contain_oxygen_bond_distance_aromatic_linkinvent_7_9_3/rearranged_h_0156.sdf

> <i_m_source_file_index>
47

> <r_mmod_Potential_Energy-OPLS-2005>
709.088745117188

> <r_mmod_Stretch_Energy-OPLS-2005>
220.014282226562

> <r_mmod_Bend_Energy-OPLS-2005>
314.711883544922

> <r_mmod_Torsional_Energy-OPLS-2005>
432.401031494141

> <r_mmod_Improper_Torsional_Energy-OPLS-2005>
20.5891284942627

> <r_mmod_Van_der_Waal_Energy-OPLS-2005>
180.708404541016

> <r_mmod_Electrostatic_Energy-OPLS-2005>
-234.756286621094

> <r_mmod_Solvation_Energy-OPLS-2005>
-415.074890136719

> <b_mmod_Minimization_Converged-OPLS-2005>
0

> <r_mmod_RMS_Derivative-OPLS-2005>
1.80068504810333

$$$$
47
                    3D
 Structure written by MMmdl.
169178  0  0  1  0            999 V2000
  -30.6790  -14.4245   20.6002 C   0  0  0  0  0  0
  -30.4321  -12.2931   19.4074 C   0  0  0  0  0  0
  -29.4880  -12.5292   18.2069 C   0  0  0  0  0  0
  -28.0066  -12.3848   18.6206 C   0  0  0  0  0  0
  -27.6672  -13.1929   19.8998 C   0  0  2  0  0  0
  -28.7096  -12.9147   21.0095 C   0  0  0  0  0  0
  -25.2549  -13.8089   20.5622 C   0  0  0  0  0  0
  -24.1820  -13.0395   20.9192 C   0  0  0  0  0  0
  -24.6369  -11.6871   20.8775 C   0  0  0  0  0  0
  -23.9014  -10.4273   21.0444 C   0  0  0  0  0  0
  -24.3569   -9.4192   21.9225 C   0  0  0  0  0  0
  -23.6236   -8.2224   22.0729 C   0  0  0  0  0  0
  -22.4207   -8.0283   21.3539 C   0  0  0  0  0  0
  -21.9855   -9.0249   20.4631 C   0  0  0  0  0  0
  -22.7198  -10.2121   20.3072 C   0  0  0  0  0  0
  -21.6852   -6.0734   22.5288 C   0  0  0  0  0  0
  -21.4025   -6.5623   23.8229 C   0  0  0  0  0  0
  -21.3658   -5.6771   24.9180 C   0  0  0  0  0  0
  -21.6047   -4.3038   24.7233 C   0  0  0  0  0  0
  -21.8818   -3.8139   23.4345 C   0  0  0  0  0  0
  -21.9186   -4.6965   22.3407 C   0  0  0  0  0  0
  -22.7848  -13.5231   21.1839 C   0  0  0  0  0  0
  -22.1637   -4.2131   21.0990 F   0  0  0  0  0  0
  -21.5609   -3.4544   25.7762 F   0  0  0  0  0  0
  -30.0484  -13.2295   20.4757 N   0  0  0  0  0  0
  -26.3029  -12.9265   20.3504 N   0  0  0  0  0  0
  -25.9297  -11.6440   20.5858 N   0  0  0  0  0  0
  -22.0496  -12.8246   22.0416 N   0  0  0  0  0  0
  -25.4141  -15.1806   20.3788 N   0  0  0  0  0  0
  -31.7601  -14.6872   20.0654 O   0  0  0  0  0  0
  -21.6592   -6.8887   21.4249 O   0  0  0  0  0  0
  -22.3563  -14.5541   20.6659 O   0  0  0  0  0  0
  -24.6011  -31.8728   23.2136 C   0  0  0  0  0  0
  -25.8939  -32.4858   23.8416 C   0  0  1  0  0  0
  -27.2805  -27.5061   20.1181 C   0  0  0  0  0  0
  -25.5831  -33.8647   24.2368 N   0  0  0  0  0  0
  -23.3881  -30.4882   21.5501 C   0  0  2  0  0  0
  -24.8450  -28.9540   20.1213 C   0  0  0  0  0  0
  -22.7341  -29.4662   22.5036 C   0  0  0  0  0  0
  -18.0252  -28.1369   22.8498 C   0  0  0  0  0  0
  -24.1479  -36.7342   23.2650 C   0  0  0  0  0  0
  -25.8992  -30.8669   21.3476 C   0  0  0  0  0  0
  -25.9868  -29.4983   20.7142 C   0  0  0  0  0  0
  -27.1938  -28.7841   20.7213 C   0  0  0  0  0  0
  -26.1205  -26.9642   19.5206 C   0  0  0  0  0  0
  -24.9021  -27.6785   19.5243 C   0  0  0  0  0  0
  -23.5972  -29.8059   20.1676 C   0  0  0  0  0  0
  -25.4099  -36.3144   24.0359 C   0  0  1  0  0  0
  -20.5836  -28.3639   23.1358 C   0  0  2  0  0  0
  -20.6741  -26.9378   22.5445 C   0  0  0  0  0  0
  -19.5735  -26.6379   21.5220 C   0  0  0  0  0  0
  -18.1904  -26.7923   22.1607 C   0  0  0  0  0  0
  -19.1502  -28.8817   23.2926 C   0  0  0  0  0  0
  -18.9439  -30.1427   23.8929 C   0  0  0  0  0  0
  -17.6445  -30.6583   24.0574 C   0  0  0  0  0  0
  -25.9006  -34.9493   23.5167 C   0  0  0  0  0  0
  -16.5340  -29.9095   23.6322 C   0  0  0  0  0  0
  -16.7242  -28.6513   23.0343 C   0  0  0  0  0  0
  -26.4436  -31.6612   25.0694 C   0  0  0  0  0  0
  -25.3786  -31.3666   26.1508 C   0  0  0  0  0  0
  -27.0266  -30.3088   24.5966 C   0  0  0  0  0  0
  -27.6041  -32.4325   25.7418 C   0  0  0  0  0  0
  -27.5583  -37.1835   24.8480 C   0  0  0  0  0  0
  -21.4084  -29.3012   22.3780 N   0  0  0  0  0  0
  -26.4317  -37.3807   23.9391 N   0  0  0  0  0  0
  -24.6479  -31.0895   22.0991 N   0  0  0  0  0  0
  -23.4158  -28.8228   23.3069 O   0  0  0  0  0  0
  -28.4496  -26.7699   20.0788 O   0  0  0  0  0  0
  -26.5577  -34.8938   22.4727 O   0  0  0  0  0  0
  -23.5232  -32.1431   23.7585 O   0  0  0  0  0  0
  -29.8276  -20.1710   21.6364 C   0  0  0  0  0  0
  -29.3871  -18.8372   21.5521 C   0  0  0  0  0  0
  -31.4134  -18.2490   20.3442 C   0  0  0  0  0  0
  -31.0159  -20.5765   20.9912 C   0  0  0  0  0  0
  -30.1413  -17.8903   20.8292 C   0  0  0  0  0  0
  -31.8699  -19.5832   20.4390 C   0  0  0  0  0  0
  -30.0501  -22.7293   20.0858 C   0  0  0  0  0  0
  -31.5919  -22.8545   22.0599 C   0  0  0  0  0  0
  -30.2852  -24.2175   19.8070 C   0  0  0  0  0  0
  -31.7777  -24.3614   21.7663 C   0  0  0  0  0  0
  -31.2656  -22.0763   20.7767 C   0  0  1  0  0  0
  -33.2559  -19.9025   19.9042 C   0  0  0  0  0  0
  -29.5174  -16.5611   20.4316 C   0  0  0  0  0  0
  -30.8098  -26.4110   20.7873 C   0  0  0  0  0  0
  -29.5250  -27.2396   20.9025 C   0  0  0  0  0  0
  -29.9267  -15.3750   21.1756 N   0  0  0  0  0  0
  -30.6129  -24.9617   21.0539 N   0  3  1  0  0  0
  -31.4737  -12.4181   19.1000 H   0  0  0  0  0  0
  -30.3482  -11.2668   19.7598 H   0  0  0  0  0  0
  -29.7206  -11.8350   17.3990 H   0  0  0  0  0  0
  -29.6597  -13.5278   17.7986 H   0  0  0  0  0  0
  -27.8084  -11.3269   18.7887 H   0  0  0  0  0  0
  -27.3529  -12.6909   17.8021 H   0  0  0  0  0  0
  -27.7242  -14.2502   19.6448 H   0  0  0  0  0  0
  -28.6816  -11.8628   21.2973 H   0  0  0  0  0  0
  -28.4713  -13.4582   21.9267 H   0  0  0  0  0  0
  -25.2714   -9.5630   22.4826 H   0  0  0  0  0  0
  -23.9958   -7.4581   22.7364 H   0  0  0  0  0  0
  -21.0816   -8.8747   19.8886 H   0  0  0  0  0  0
  -22.3687  -10.9640   19.6163 H   0  0  0  0  0  0
  -21.2007   -7.6128   23.9734 H   0  0  0  0  0  0
  -21.1493   -6.0492   25.9083 H   0  0  0  0  0  0
  -22.0595   -2.7590   23.2848 H   0  0  0  0  0  0
  -22.4161  -11.9977   22.4886 H   0  0  0  0  0  0
  -21.1092  -13.1260   22.2583 H   0  0  0  0  0  0
  -24.6072  -15.7949   20.4028 H   0  0  0  0  0  0
  -26.2165  -15.5920   19.9203 H   0  0  0  0  0  0
  -26.7019  -32.5639   23.1208 H   0  0  0  0  0  0
  -24.9980  -33.9836   25.0507 H   0  0  0  0  0  0
  -22.6734  -31.3007   21.4050 H   0  0  0  0  0  0
  -23.3716  -35.9716   23.3407 H   0  0  0  0  0  0
  -24.3554  -36.8840   22.2049 H   0  0  0  0  0  0
  -23.7276  -37.6598   23.6581 H   0  0  0  0  0  0
  -25.9811  -31.6260   20.5685 H   0  0  0  0  0  0
  -26.7954  -30.9484   21.9490 H   0  0  0  0  0  0
  -28.0400  -29.2595   21.1932 H   0  0  0  0  0  0
  -26.1647  -25.9866   19.0611 H   0  0  0  0  0  0
  -24.0237  -27.2437   19.0683 H   0  0  0  0  0  0
  -23.6968  -30.5728   19.3987 H   0  0  0  0  0  0
  -22.7283  -29.2127   19.8772 H   0  0  0  0  0  0
  -25.1277  -36.2050   25.0867 H   0  0  0  0  0  0
  -20.9918  -28.3193   24.1481 H   0  0  0  0  0  0
  -20.5623  -26.2245   23.3627 H   0  0  0  0  0  0
  -21.6622  -26.7423   22.1252 H   0  0  0  0  0  0
  -19.6899  -25.6296   21.1236 H   0  0  0  0  0  0
  -19.6689  -27.3205   20.6765 H   0  0  0  0  0  0
  -17.4187  -26.6695   21.3994 H   0  0  0  0  0  0
  -18.0275  -26.0045   22.8981 H   0  0  0  0  0  0
  -19.7926  -30.7222   24.2320 H   0  0  0  0  0  0
  -17.5019  -31.6263   24.5164 H   0  0  0  0  0  0
  -15.5351  -30.3015   23.7628 H   0  0  0  0  0  0
  -15.8643  -28.0848   22.7043 H   0  0  0  0  0  0
  -24.5889  -30.7088   25.7856 H   0  0  0  0  0  0
  -24.9076  -32.2825   26.5104 H   0  0  0  0  0  0
  -25.8213  -30.8718   27.0170 H   0  0  0  0  0  0
  -26.2744  -29.6799   24.1197 H   0  0  0  0  0  0
  -27.4290  -29.7349   25.4324 H   0  0  0  0  0  0
  -27.8458  -30.4452   23.8901 H   0  0  0  0  0  0
  -27.2651  -33.3568   26.2110 H   0  0  0  0  0  0
  -28.3766  -32.6995   25.0193 H   0  0  0  0  0  0
  -28.0823  -31.8413   26.5236 H   0  0  0  0  0  0
  -28.2667  -38.0061   24.7429 H   0  0  0  0  0  0
  -28.1006  -36.2595   24.6421 H   0  0  0  0  0  0
  -27.2300  -37.1647   25.8887 H   0  0  0  0  0  0
  -20.9241  -29.8733   21.7008 H   0  0  0  0  0  0
  -26.0227  -38.2914   24.1322 H   0  0  0  0  0  0
  -29.1939  -20.9001   22.1234 H   0  0  0  0  0  0
  -28.4229  -18.5754   21.9657 H   0  0  0  0  0  0
  -32.0114  -17.5081   19.8323 H   0  0  0  0  0  0
  -29.8348  -22.2160   19.1476 H   0  0  0  0  0  0
  -29.1555  -22.6304   20.7005 H   0  0  0  0  0  0
  -30.8052  -22.7187   22.8044 H   0  0  0  0  0  0
  -32.5089  -22.4630   22.5043 H   0  0  0  0  0  0
  -29.3928  -24.6311   19.3385 H   0  0  0  0  0  0
  -31.0926  -24.3302   19.0810 H   0  0  0  0  0  0
  -32.6775  -24.5175   21.1679 H   0  0  0  0  0  0
  -31.9411  -24.8868   22.7086 H   0  0  0  0  0  0
  -32.1047  -22.2008   20.0921 H   0  0  0  0  0  0
  -33.9199  -19.0469   20.0261 H   0  0  0  0  0  0
  -33.7196  -20.7238   20.4515 H   0  0  0  0  0  0
  -33.2213  -20.1513   18.8419 H   0  0  0  0  0  0
  -29.6970  -16.4189   19.3640 H   0  0  0  0  0  0
  -28.4329  -16.6387   20.5210 H   0  0  0  0  0  0
  -31.5034  -26.8270   21.5219 H   0  0  0  0  0  0
  -31.2835  -26.5694   19.8182 H   0  0  0  0  0  0
  -29.7999  -28.2551   20.6105 H   0  0  0  0  0  0
  -29.2015  -27.2742   21.9448 H   0  0  0  0  0  0
  -29.1819  -14.9977   21.7416 H   0  0  0  0  0  0
  -29.8185  -24.8850   21.6742 H   0  0  0  0  0  0
  1 25  1  0  0  0
  1 30  2  0  0  0
  1 86  1  0  0  0
  2  3  1  0  0  0
  2 25  1  0  0  0
  2 88  1  0  0  0
  2 89  1  0  0  0
  3  4  1  0  0  0
  3 90  1  0  0  0
  3 91  1  0  0  0
  4  5  1  0  0  0
  4 92  1  0  0  0
  4 93  1  0  0  0
  5  6  1  0  0  0
  5 26  1  0  0  0
  5 94  1  0  0  0
  6 25  1  0  0  0
  6 95  1  0  0  0
  6 96  1  0  0  0
  7  8  2  0  0  0
  7 26  1  0  0  0
  7 29  1  0  0  0
  8  9  1  0  0  0
  8 22  1  0  0  0
  9 10  1  0  0  0
  9 27  2  0  0  0
 10 11  2  0  0  0
 10 15  1  0  0  0
 11 12  1  0  0  0
 11 97  1  0  0  0
 12 13  2  0  0  0
 12 98  1  0  0  0
 13 14  1  0  0  0
 13 31  1  0  0  0
 14 15  2  0  0  0
 14 99  1  0  0  0
 15100  1  0  0  0
 16 17  2  0  0  0
 16 21  1  0  0  0
 16 31  1  0  0  0
 17 18  1  0  0  0
 17101  1  0  0  0
 18 19  2  0  0  0
 18102  1  0  0  0
 19 20  1  0  0  0
 19 24  1  0  0  0
 20 21  2  0  0  0
 20103  1  0  0  0
 21 23  1  0  0  0
 22 28  1  0  0  0
 22 32  2  0  0  0
 26 27  1  0  0  0
 28104  1  0  0  0
 28105  1  0  0  0
 29106  1  0  0  0
 29107  1  0  0  0
 33 34  1  0  0  0
 33 66  1  0  0  0
 33 70  2  0  0  0
 34 36  1  0  0  0
 34 59  1  0  0  0
 34108  1  0  0  0
 35 44  2  0  0  0
 35 45  1  0  0  0
 35 68  1  0  0  0
 36 56  1  0  0  0
 36109  1  0  0  0
 37 39  1  0  0  0
 37 47  1  0  0  0
 37 66  1  0  0  0
 37110  1  0  0  0
 38 43  2  0  0  0
 38 46  1  0  0  0
 38 47  1  0  0  0
 39 64  1  0  0  0
 39 67  2  0  0  0
 40 52  1  0  0  0
 40 53  2  0  0  0
 40 58  1  0  0  0
 41111  1  0  0  0
 41112  1  0  0  0
 41113  1  0  0  0
 41 48  1  0  0  0
 42 43  1  0  0  0
 42 66  1  0  0  0
 42114  1  0  0  0
 42115  1  0  0  0
 43 44  1  0  0  0
 44116  1  0  0  0
 45 46  2  0  0  0
 45117  1  0  0  0
 46118  1  0  0  0
 47119  1  0  0  0
 47120  1  0  0  0
 48 56  1  0  0  0
 48 65  1  0  0  0
 48121  1  0  0  0
 49 50  1  0  0  0
 49 53  1  0  0  0
 49 64  1  0  0  0
 49122  1  0  0  0
 50 51  1  0  0  0
 50123  1  0  0  0
 50124  1  0  0  0
 51 52  1  0  0  0
 51125  1  0  0  0
 51126  1  0  0  0
 52127  1  0  0  0
 52128  1  0  0  0
 53 54  1  0  0  0
 54 55  2  0  0  0
 54129  1  0  0  0
 55 57  1  0  0  0
 55130  1  0  0  0
 56 69  2  0  0  0
 57 58  2  0  0  0
 57131  1  0  0  0
 58132  1  0  0  0
 59 60  1  0  0  0
 59 61  1  0  0  0
 59 62  1  0  0  0
 60133  1  0  0  0
 60134  1  0  0  0
 60135  1  0  0  0
 61136  1  0  0  0
 61137  1  0  0  0
 61138  1  0  0  0
 62139  1  0  0  0
 62140  1  0  0  0
 62141  1  0  0  0
 63 65  1  0  0  0
 63142  1  0  0  0
 63143  1  0  0  0
 63144  1  0  0  0
 64145  1  0  0  0
 65146  1  0  0  0
 68 85  1  0  0  0
 71 72  2  0  0  0
 71 74  1  0  0  0
 71147  1  0  0  0
 72 75  1  0  0  0
 72148  1  0  0  0
 73 75  2  0  0  0
 73 76  1  0  0  0
 73149  1  0  0  0
 74 76  2  0  0  0
 74 81  1  0  0  0
 75 83  1  0  0  0
 76 82  1  0  0  0
 77 79  1  0  0  0
 77 81  1  0  0  0
 77150  1  0  0  0
 77151  1  0  0  0
 78 80  1  0  0  0
 78 81  1  0  0  0
 78152  1  0  0  0
 78153  1  0  0  0
 79 87  1  0  0  0
 79154  1  0  0  0
 79155  1  0  0  0
 80 87  1  0  0  0
 80156  1  0  0  0
 80157  1  0  0  0
 81158  1  0  0  0
 82159  1  0  0  0
 82160  1  0  0  0
 82161  1  0  0  0
 83 86  1  0  0  0
 83162  1  0  0  0
 83163  1  0  0  0
 84 85  1  0  0  0
 84164  1  0  0  0
 84165  1  0  0  0
 84 87  1  0  0  0
 85166  1  0  0  0
 85167  1  0  0  0
 86168  1  0  0  0
 87169  1  0  0  0
M  CHG  1  87   1
M  ISO  4   1 100  68 101  85 101  86 100
M  END
> <chiral flag>
0

> <version>
0

> <s_m_source_file>
/data/baiqing/PycharmProjects/Reinvent-master-3.2/result/LINK_invent/BTK/process_docking_weight1_custom_sum_contain_oxygen_bond_distance_aromatic_linkinvent_7_9_3/rearranged_h_0156.sdf

> <i_m_source_file_index>
48

> <r_mmod_Potential_Energy-OPLS-2005>
-130.756988525391

> <r_mmod_Stretch_Energy-OPLS-2005>
35.6366157531738

> <r_mmod_Bend_Energy-OPLS-2005>
99.2837524414062

> <r_mmod_Torsional_Energy-OPLS-2005>
292.028442382812

> <r_mmod_Improper_Torsional_Energy-OPLS-2005>
11.2467384338379

> <r_mmod_Van_der_Waal_Energy-OPLS-2005>
168.472061157227

> <r_mmod_Electrostatic_Energy-OPLS-2005>
-323.466705322266

> <r_mmod_Solvation_Energy-OPLS-2005>
-422.00830078125

> <b_mmod_Minimization_Converged-OPLS-2005>
0

> <r_mmod_RMS_Derivative-OPLS-2005>
4.30655431747437

$$$$
48
                    3D
 Structure written by MMmdl.
167176  0  0  1  0            999 V2000
  -30.6999  -14.7122   20.5211 C   0  0  0  0  0  0
  -30.4311  -12.4559   19.4927 C   0  0  0  0  0  0
  -29.5114  -12.5159   18.2551 C   0  0  0  0  0  0
  -28.0409  -12.3432   18.6733 C   0  0  0  0  0  0
  -27.6516  -13.2426   19.8757 C   0  0  2  0  0  0
  -28.6964  -13.1942   21.0140 C   0  0  0  0  0  0
  -25.2563  -13.8242   20.5773 C   0  0  0  0  0  0
  -24.1792  -13.0466   20.9219 C   0  0  0  0  0  0
  -24.6406  -11.6958   20.8751 C   0  0  0  0  0  0
  -23.9076  -10.4325   21.0411 C   0  0  0  0  0  0
  -24.3621   -9.4241   21.9198 C   0  0  0  0  0  0
  -23.6306   -8.2267   22.0748 C   0  0  0  0  0  0
  -22.4298   -8.0290   21.3538 C   0  0  0  0  0  0
  -21.9925   -9.0274   20.4640 C   0  0  0  0  0  0
  -22.7241  -10.2161   20.3067 C   0  0  0  0  0  0
  -21.6856   -6.0739   22.5275 C   0  0  0  0  0  0
  -21.4012   -6.5646   23.8202 C   0  0  0  0  0  0
  -21.3654   -5.6796   24.9160 C   0  0  0  0  0  0
  -21.6051   -4.3064   24.7219 C   0  0  0  0  0  0
  -21.8823   -3.8162   23.4341 C   0  0  0  0  0  0
  -21.9206   -4.6970   22.3395 C   0  0  0  0  0  0
  -22.7827  -13.5252   21.1873 C   0  0  0  0  0  0
  -22.1676   -4.2162   21.0973 F   0  0  0  0  0  0
  -21.5630   -3.4546   25.7728 F   0  0  0  0  0  0
  -30.0051  -13.5249   20.4285 N   0  0  0  0  0  0
  -26.3010  -12.9449   20.3470 N   0  0  0  0  0  0
  -25.9369  -11.6588   20.5856 N   0  0  0  0  0  0
  -22.0485  -12.8233   22.0427 N   0  0  0  0  0  0
  -25.4360  -15.1915   20.4169 N   0  0  0  0  0  0
  -31.8502  -14.7729   20.0810 O   0  0  0  0  0  0
  -21.6650   -6.8893   21.4236 O   0  0  0  0  0  0
  -22.3530  -14.5576   20.6743 O   0  0  0  0  0  0
  -24.6254  -31.8507   23.2058 C   0  0  0  0  0  0
  -25.9091  -32.4715   23.8387 C   0  0  1  0  0  0
  -27.2275  -27.2655   20.1239 C   0  0  0  0  0  0
  -25.5877  -33.8527   24.2271 N   0  0  0  0  0  0
  -23.4293  -30.4719   21.5470 C   0  0  2  0  0  0
  -24.8737  -28.9218   20.1072 C   0  0  0  0  0  0
  -22.7507  -29.4554   22.4944 C   0  0  0  0  0  0
  -18.0283  -28.1378   22.8534 C   0  0  0  0  0  0
  -24.1435  -36.7269   23.2660 C   0  0  0  0  0  0
  -25.9688  -30.7608   21.3842 C   0  0  0  0  0  0
  -26.0410  -29.3834   20.7264 C   0  0  0  0  0  0
  -27.2127  -28.5637   20.7322 C   0  0  0  0  0  0
  -26.0448  -26.8852   19.4450 C   0  0  0  0  0  0
  -24.8789  -27.6780   19.4602 C   0  0  0  0  0  0
  -23.6461  -29.8086   20.1589 C   0  0  0  0  0  0
  -25.4065  -36.3046   24.0322 C   0  0  1  0  0  0
  -20.5894  -28.3653   23.1290 C   0  0  2  0  0  0
  -20.6753  -26.9355   22.5447 C   0  0  0  0  0  0
  -19.5727  -26.6348   21.5265 C   0  0  0  0  0  0
  -18.1903  -26.7923   22.1665 C   0  0  0  0  0  0
  -19.1548  -28.8852   23.2885 C   0  0  0  0  0  0
  -18.9474  -30.1467   23.8866 C   0  0  0  0  0  0
  -17.6470  -30.6578   24.0580 C   0  0  0  0  0  0
  -25.9029  -34.9408   23.5118 C   0  0  0  0  0  0
  -16.5365  -29.9083   23.6323 C   0  0  0  0  0  0
  -16.7275  -28.6504   23.0355 C   0  0  0  0  0  0
  -26.4482  -31.6592   25.0799 C   0  0  0  0  0  0
  -25.3745  -31.3713   26.1581 C   0  0  0  0  0  0
  -27.0366  -30.3026   24.6262 C   0  0  0  0  0  0
  -27.5985  -32.4436   25.7553 C   0  0  0  0  0  0
  -27.5529  -37.1775   24.8471 C   0  0  0  0  0  0
  -21.4221  -29.2982   22.3673 N   0  0  0  0  0  0
  -26.4231  -37.3772   23.9451 N   0  0  0  0  0  0
  -24.6949  -31.0459   22.1052 N   0  0  0  0  0  0
  -23.4186  -28.8071   23.3031 O   0  0  0  0  0  0
  -28.3428  -26.3979   20.2275 O   0  0  0  0  0  0
  -26.5635  -34.8878   22.4712 O   0  0  0  0  0  0
  -23.5413  -32.1348   23.7354 O   0  0  0  0  0  0
  -29.8865  -19.7059   20.8281 C   0  0  0  0  0  0
  -29.0863  -19.8940   23.4850 C   0  0  0  0  0  0
  -30.0741  -18.5335   21.6767 C   0  0  0  0  0  0
  -29.6963  -18.7087   23.0271 C   0  0  0  0  0  0
  -29.3129  -20.9754   21.2857 C   0  0  0  0  0  0
  -28.8893  -21.0096   22.6413 C   0  0  0  0  0  0
  -30.1699  -17.6775   24.0243 C   0  0  0  0  0  0
  -30.8603  -17.1590   21.3385 C   0  0  1  0  0  0
  -31.8445  -16.7571   22.5289 C   0  0  1  0  0  0
  -33.3468  -16.6550   22.1780 C   0  0  0  0  0  0
  -28.7397  -22.7068   24.3159 C   0  0  0  0  0  0
  -29.0800  -22.2544   20.3350 C   0  0  0  0  0  0
  -28.9671  -23.8132   20.8331 C   0  0  0  0  0  0
  -28.2682  -24.9320   19.8993 C   0  0  0  0  0  0
  -30.1142  -15.8666   21.0111 N   0  0  0  0  0  0
  -31.6118  -17.5461   23.7599 N   0  3  0  0  0  0
  -28.2329  -22.1124   23.1257 O   0  0  0  0  0  0
  -31.4710  -12.5683   19.1778 H   0  0  0  0  0  0
  -30.3806  -11.4807   19.9840 H   0  0  0  0  0  0
  -29.7908  -11.7338   17.5509 H   0  0  0  0  0  0
  -29.6424  -13.4663   17.7368 H   0  0  0  0  0  0
  -27.9045  -11.2952   18.9427 H   0  0  0  0  0  0
  -27.3778  -12.5414   17.8283 H   0  0  0  0  0  0
  -27.6464  -14.2656   19.5010 H   0  0  0  0  0  0
  -28.7230  -12.2109   21.4884 H   0  0  0  0  0  0
  -28.4271  -13.9010   21.8015 H   0  0  0  0  0  0
  -25.2751   -9.5723   22.4780 H   0  0  0  0  0  0
  -24.0020   -7.4660   22.7459 H   0  0  0  0  0  0
  -21.0865   -8.8794   19.8938 H   0  0  0  0  0  0
  -22.3696  -10.9709   19.6189 H   0  0  0  0  0  0
  -21.1987   -7.6150   23.9705 H   0  0  0  0  0  0
  -21.1467   -6.0525   25.9063 H   0  0  0  0  0  0
  -22.0609   -2.7631   23.2831 H   0  0  0  0  0  0
  -22.4099  -11.9869   22.4768 H   0  0  0  0  0  0
  -21.1136  -13.1269   22.2692 H   0  0  0  0  0  0
  -24.6792  -15.8649   20.4805 H   0  0  0  0  0  0
  -26.3124  -15.6129   20.1374 H   0  0  0  0  0  0
  -26.7168  -32.5357   23.1125 H   0  0  0  0  0  0
  -25.0034  -33.9671   25.0421 H   0  0  0  0  0  0
  -22.7262  -31.2945   21.4000 H   0  0  0  0  0  0
  -23.3714  -35.9596   23.3357 H   0  0  0  0  0  0
  -24.3492  -36.8900   22.2088 H   0  0  0  0  0  0
  -23.7185  -37.6448   23.6718 H   0  0  0  0  0  0
  -26.0909  -31.5227   20.6130 H   0  0  0  0  0  0
  -26.8551  -30.8215   22.0069 H   0  0  0  0  0  0
  -28.1020  -28.9011   21.2441 H   0  0  0  0  0  0
  -25.9831  -25.9602   18.8934 H   0  0  0  0  0  0
  -23.9862  -27.3344   18.9542 H   0  0  0  0  0  0
  -23.7734  -30.5876   19.4046 H   0  0  0  0  0  0
  -22.7659  -29.2373   19.8531 H   0  0  0  0  0  0
  -25.1245  -36.1900   25.0806 H   0  0  0  0  0  0
  -20.9975  -28.3238   24.1432 H   0  0  0  0  0  0
  -20.5646  -26.2266   23.3651 H   0  0  0  0  0  0
  -21.6603  -26.7352   22.1247 H   0  0  0  0  0  0
  -19.6855  -25.6260   21.1280 H   0  0  0  0  0  0
  -19.6663  -27.3181   20.6812 H   0  0  0  0  0  0
  -17.4175  -26.6734   21.4041 H   0  0  0  0  0  0
  -18.0239  -26.0025   22.9013 H   0  0  0  0  0  0
  -19.7951  -30.7312   24.2163 H   0  0  0  0  0  0
  -17.5027  -31.6240   24.5212 H   0  0  0  0  0  0
  -15.5369  -30.2979   23.7650 H   0  0  0  0  0  0
  -15.8684  -28.0831   22.7035 H   0  0  0  0  0  0
  -24.5882  -30.7055   25.7992 H   0  0  0  0  0  0
  -24.8960  -32.2883   26.5052 H   0  0  0  0  0  0
  -25.8095  -30.8917   27.0354 H   0  0  0  0  0  0
  -26.2927  -29.6725   24.1377 H   0  0  0  0  0  0
  -27.4214  -29.7290   25.4697 H   0  0  0  0  0  0
  -27.8714  -30.4360   23.9364 H   0  0  0  0  0  0
  -27.2506  -33.3762   26.1999 H   0  0  0  0  0  0
  -28.3806  -32.7008   25.0400 H   0  0  0  0  0  0
  -28.0643  -31.8723   26.5592 H   0  0  0  0  0  0
  -28.2572  -38.0053   24.7510 H   0  0  0  0  0  0
  -28.0974  -36.2591   24.6286 H   0  0  0  0  0  0
  -27.2240  -37.1412   25.8863 H   0  0  0  0  0  0
  -20.9416  -29.8732   21.6905 H   0  0  0  0  0  0
  -26.0094  -38.2791   24.1588 H   0  0  0  0  0  0
  -30.2228  -19.6309   19.8035 H   0  0  0  0  0  0
  -28.7800  -19.9517   24.5198 H   0  0  0  0  0  0
  -29.6609  -16.7241   23.8731 H   0  0  0  0  0  0
  -29.9776  -17.9750   25.0540 H   0  0  0  0  0  0
  -31.4673  -17.3760   20.4559 H   0  0  0  0  0  0
  -31.5976  -15.7523   22.8740 H   0  0  0  0  0  0
  -33.6726  -17.4281   21.4824 H   0  0  0  0  0  0
  -33.5792  -15.6841   21.7334 H   0  0  0  0  0  0
  -33.9681  -16.7150   23.0742 H   0  0  0  0  0  0
  -28.3249  -23.7123   24.3987 H   0  0  0  0  0  0
  -29.8267  -22.8123   24.3010 H   0  0  0  0  0  0
  -28.4390  -22.1554   25.2054 H   0  0  0  0  0  0
  -28.1853  -22.0219   19.7615 H   0  0  0  0  0  0
  -29.8995  -22.2355   19.6149 H   0  0  0  0  0  0
  -29.9732  -24.1495   21.0834 H   0  0  0  0  0  0
  -28.3910  -23.8864   21.7494 H   0  0  0  0  0  0
  -27.2331  -24.6124   19.8206 H   0  0  0  0  0  0
  -28.6822  -24.8296   18.8970 H   0  0  0  0  0  0
  -29.1484  -15.8050   21.2998 H   0  0  0  0  0  0
  -32.0607  -17.1117   24.5490 H   0  0  0  0  0  0
  -31.9825  -18.4764   23.6520 H   0  0  0  0  0  0
  1 25  1  0  0  0
  1 30  2  0  0  0
  1 85  1  0  0  0
  2  3  1  0  0  0
  2 25  1  0  0  0
  2 88  1  0  0  0
  2 89  1  0  0  0
  3  4  1  0  0  0
  3 90  1  0  0  0
  3 91  1  0  0  0
  4  5  1  0  0  0
  4 92  1  0  0  0
  4 93  1  0  0  0
  5  6  1  0  0  0
  5 26  1  0  0  0
  5 94  1  0  0  0
  6 25  1  0  0  0
  6 95  1  0  0  0
  6 96  1  0  0  0
  7  8  2  0  0  0
  7 26  1  0  0  0
  7 29  1  0  0  0
  8  9  1  0  0  0
  8 22  1  0  0  0
  9 10  1  0  0  0
  9 27  2  0  0  0
 10 11  2  0  0  0
 10 15  1  0  0  0
 11 12  1  0  0  0
 11 97  1  0  0  0
 12 13  2  0  0  0
 12 98  1  0  0  0
 13 14  1  0  0  0
 13 31  1  0  0  0
 14 15  2  0  0  0
 14 99  1  0  0  0
 15100  1  0  0  0
 16 17  2  0  0  0
 16 21  1  0  0  0
 16 31  1  0  0  0
 17 18  1  0  0  0
 17101  1  0  0  0
 18 19  2  0  0  0
 18102  1  0  0  0
 19 20  1  0  0  0
 19 24  1  0  0  0
 20 21  2  0  0  0
 20103  1  0  0  0
 21 23  1  0  0  0
 22 28  1  0  0  0
 22 32  2  0  0  0
 26 27  1  0  0  0
 28104  1  0  0  0
 28105  1  0  0  0
 29106  1  0  0  0
 29107  1  0  0  0
 33 34  1  0  0  0
 33 66  1  0  0  0
 33 70  2  0  0  0
 34 36  1  0  0  0
 34 59  1  0  0  0
 34108  1  0  0  0
 35 44  2  0  0  0
 35 45  1  0  0  0
 35 68  1  0  0  0
 36 56  1  0  0  0
 36109  1  0  0  0
 37 39  1  0  0  0
 37 47  1  0  0  0
 37 66  1  0  0  0
 37110  1  0  0  0
 38 43  2  0  0  0
 38 46  1  0  0  0
 38 47  1  0  0  0
 39 64  1  0  0  0
 39 67  2  0  0  0
 40 52  1  0  0  0
 40 53  2  0  0  0
 40 58  1  0  0  0
 41111  1  0  0  0
 41112  1  0  0  0
 41113  1  0  0  0
 41 48  1  0  0  0
 42 43  1  0  0  0
 42 66  1  0  0  0
 42114  1  0  0  0
 42115  1  0  0  0
 43 44  1  0  0  0
 44116  1  0  0  0
 45 46  2  0  0  0
 45117  1  0  0  0
 46118  1  0  0  0
 47119  1  0  0  0
 47120  1  0  0  0
 48 56  1  0  0  0
 48 65  1  0  0  0
 48121  1  0  0  0
 49 50  1  0  0  0
 49 53  1  0  0  0
 49 64  1  0  0  0
 49122  1  0  0  0
 50 51  1  0  0  0
 50123  1  0  0  0
 50124  1  0  0  0
 51 52  1  0  0  0
 51125  1  0  0  0
 51126  1  0  0  0
 52127  1  0  0  0
 52128  1  0  0  0
 53 54  1  0  0  0
 54 55  2  0  0  0
 54129  1  0  0  0
 55 57  1  0  0  0
 55130  1  0  0  0
 56 69  2  0  0  0
 57 58  2  0  0  0
 57131  1  0  0  0
 58132  1  0  0  0
 59 60  1  0  0  0
 59 61  1  0  0  0
 59 62  1  0  0  0
 60133  1  0  0  0
 60134  1  0  0  0
 60135  1  0  0  0
 61136  1  0  0  0
 61137  1  0  0  0
 61138  1  0  0  0
 62139  1  0  0  0
 62140  1  0  0  0
 62141  1  0  0  0
 63 65  1  0  0  0
 63142  1  0  0  0
 63143  1  0  0  0
 63144  1  0  0  0
 64145  1  0  0  0
 65146  1  0  0  0
 68 84  1  0  0  0
 71 73  2  0  0  0
 71 75  1  0  0  0
 71147  1  0  0  0
 72 74  2  0  0  0
 72 76  1  0  0  0
 72148  1  0  0  0
 73 74  1  0  0  0
 73 78  1  0  0  0
 74 77  1  0  0  0
 75 76  2  0  0  0
 75 82  1  0  0  0
 76 87  1  0  0  0
 77 86  1  0  0  0
 77149  1  0  0  0
 77150  1  0  0  0
 78 79  1  0  0  0
 78 85  1  0  0  0
 78151  1  0  0  0
 79 80  1  0  0  0
 79 86  1  0  0  0
 79152  1  0  0  0
 80153  1  0  0  0
 80154  1  0  0  0
 80155  1  0  0  0
 81 87  1  0  0  0
 81156  1  0  0  0
 81157  1  0  0  0
 81158  1  0  0  0
 82 83  1  0  0  0
 82159  1  0  0  0
 82160  1  0  0  0
 83 84  1  0  0  0
 83161  1  0  0  0
 83162  1  0  0  0
 84163  1  0  0  0
 84164  1  0  0  0
 85165  1  0  0  0
 86166  1  0  0  0
 86167  1  0  0  0
M  CHG  1  86   1
M  ISO  4   1 100  68 101  84 101  85 100
M  END
> <chiral flag>
0

> <version>
0

> <s_m_source_file>
/data/baiqing/PycharmProjects/Reinvent-master-3.2/result/LINK_invent/BTK/process_docking_weight1_custom_sum_contain_oxygen_bond_distance_aromatic_linkinvent_7_9_3/rearranged_h_0156.sdf

> <i_m_source_file_index>
49

> <r_mmod_Potential_Energy-OPLS-2005>
-9.87109756469727

> <r_mmod_Stretch_Energy-OPLS-2005>
143.466506958008

> <r_mmod_Bend_Energy-OPLS-2005>
202.231857299805

> <r_mmod_Torsional_Energy-OPLS-2005>
295.154693603516

> <r_mmod_Improper_Torsional_Energy-OPLS-2005>
4.52788543701172

> <r_mmod_Van_der_Waal_Energy-OPLS-2005>
164.613723754883

> <r_mmod_Electrostatic_Energy-OPLS-2005>
-426.153350830078

> <r_mmod_Solvation_Energy-OPLS-2005>
-471.842987060547

> <b_mmod_Minimization_Converged-OPLS-2005>
0

> <r_mmod_RMS_Derivative-OPLS-2005>
6.36023807525635

$$$$
49
                    3D
 Structure written by MMmdl.
186195  0  0  1  0            999 V2000
  -30.7623  -14.4818   20.5712 C   0  0  0  0  0  0
  -30.3971  -12.3229   19.4339 C   0  0  0  0  0  0
  -29.4824  -12.5074   18.2095 C   0  0  0  0  0  0
  -28.0091  -12.3651   18.6266 C   0  0  0  0  0  0
  -27.6537  -13.2222   19.8723 C   0  0  2  0  0  0
  -28.6992  -13.0641   21.0014 C   0  0  0  0  0  0
  -25.2539  -13.8170   20.5682 C   0  0  0  0  0  0
  -24.1815  -13.0435   20.9200 C   0  0  0  0  0  0
  -24.6404  -11.6914   20.8759 C   0  0  0  0  0  0
  -23.9077  -10.4299   21.0413 C   0  0  0  0  0  0
  -24.3625   -9.4206   21.9183 C   0  0  0  0  0  0
  -23.6304   -8.2241   22.0751 C   0  0  0  0  0  0
  -22.4283   -8.0296   21.3542 C   0  0  0  0  0  0
  -21.9931   -9.0261   20.4641 C   0  0  0  0  0  0
  -22.7254  -10.2138   20.3058 C   0  0  0  0  0  0
  -21.6860   -6.0742   22.5281 C   0  0  0  0  0  0
  -21.4011   -6.5642   23.8212 C   0  0  0  0  0  0
  -21.3657   -5.6799   24.9177 C   0  0  0  0  0  0
  -21.6047   -4.3057   24.7227 C   0  0  0  0  0  0
  -21.8821   -3.8148   23.4347 C   0  0  0  0  0  0
  -21.9196   -4.6973   22.3402 C   0  0  0  0  0  0
  -22.7842  -13.5233   21.1853 C   0  0  0  0  0  0
  -22.1661   -4.2152   21.0979 F   0  0  0  0  0  0
  -21.5639   -3.4544   25.7739 F   0  0  0  0  0  0
  -30.0254  -13.3427   20.4329 N   0  0  0  0  0  0
  -26.2995  -12.9375   20.3393 N   0  0  0  0  0  0
  -25.9336  -11.6516   20.5810 N   0  0  0  0  0  0
  -22.0491  -12.8210   22.0403 N   0  0  0  0  0  0
  -25.4253  -15.1862   20.4015 N   0  0  0  0  0  0
  -31.8474  -14.6108   19.9974 O   0  0  0  0  0  0
  -21.6646   -6.8883   21.4241 O   0  0  0  0  0  0
  -22.3518  -14.5540   20.6723 O   0  0  0  0  0  0
  -24.6169  -31.8645   23.2073 C   0  0  0  0  0  0
  -25.9046  -32.4795   23.8382 C   0  0  1  0  0  0
  -27.2236  -27.4054   20.1081 C   0  0  0  0  0  0
  -25.5866  -33.8593   24.2275 N   0  0  0  0  0  0
  -23.4100  -30.4884   21.5462 C   0  0  2  0  0  0
  -24.8562  -28.9599   20.1057 C   0  0  0  0  0  0
  -22.7428  -29.4648   22.4937 C   0  0  0  0  0  0
  -18.0272  -28.1385   22.8456 C   0  0  0  0  0  0
  -24.1490  -36.7343   23.2643 C   0  0  0  0  0  0
  -25.9404  -30.8233   21.3664 C   0  0  0  0  0  0
  -26.0189  -29.4587   20.7079 C   0  0  0  0  0  0
  -27.2108  -28.6923   20.7018 C   0  0  0  0  0  0
  -26.0516  -26.9413   19.4771 C   0  0  0  0  0  0
  -24.8692  -27.7012   19.4819 C   0  0  0  0  0  0
  -23.6194  -29.8276   20.1568 C   0  0  0  0  0  0
  -25.4089  -36.3080   24.0334 C   0  0  1  0  0  0
  -20.5863  -28.3694   23.1272 C   0  0  2  0  0  0
  -20.6757  -26.9424   22.5402 C   0  0  0  0  0  0
  -19.5750  -26.6397   21.5196 C   0  0  0  0  0  0
  -18.1918  -26.7925   22.1611 C   0  0  0  0  0  0
  -19.1520  -28.8851   23.2859 C   0  0  0  0  0  0
  -18.9459  -30.1444   23.8892 C   0  0  0  0  0  0
  -17.6477  -30.6588   24.0573 C   0  0  0  0  0  0
  -25.9038  -34.9451   23.5113 C   0  0  0  0  0  0
  -16.5362  -29.9096   23.6342 C   0  0  0  0  0  0
  -16.7276  -28.6527   23.0327 C   0  0  0  0  0  0
  -26.4467  -31.6582   25.0723 C   0  0  0  0  0  0
  -25.3743  -31.3667   26.1476 C   0  0  0  0  0  0
  -27.0290  -30.3009   24.6119 C   0  0  0  0  0  0
  -27.6026  -32.4314   25.7485 C   0  0  0  0  0  0
  -27.5564  -37.1800   24.8452 C   0  0  0  0  0  0
  -21.4146  -29.3065   22.3693 N   0  0  0  0  0  0
  -26.4272  -37.3766   23.9401 N   0  0  0  0  0  0
  -24.6736  -31.0738   22.0980 N   0  0  0  0  0  0
  -23.4171  -28.8168   23.2986 O   0  0  0  0  0  0
  -28.3290  -26.5776   20.1697 O   0  0  0  0  0  0
  -26.5648  -34.8917   22.4700 O   0  0  0  0  0  0
  -23.5353  -32.1425   23.7462 O   0  0  0  0  0  0
  -32.2890  -16.1849   22.4448 C   0  0  0  0  0  0
  -32.9531  -18.4735   22.8128 C   0  0  0  0  0  0
  -30.7838  -17.9924   21.7291 C   0  0  0  0  0  0
  -31.0843  -16.5847   21.8097 C   0  0  0  0  0  0
  -33.2380  -17.1005   22.9127 C   0  0  0  0  0  0
  -31.7439  -18.9292   22.2370 C   0  0  0  0  0  0
  -29.7775  -19.4966   19.8973 C   0  0  0  0  0  0
  -28.8803  -20.7454   19.6772 C   0  0  0  0  0  0
  -27.7711  -20.4727   21.7890 C   0  0  0  0  0  0
  -29.4715  -18.5689   21.1265 C   0  0  2  0  0  0
  -28.6192  -19.2538   22.2528 C   0  0  2  0  0  0
  -27.6465  -18.6191   24.5600 C   0  0  0  0  0  0
  -26.4553  -17.8142   22.4790 C   0  0  0  0  0  0
  -28.3090  -24.0822   18.6478 C   0  0  0  0  0  0
  -35.5299  -17.4607   23.5003 C   0  0  0  0  0  0
  -32.4978  -21.2321   22.3880 C   0  0  0  0  0  0
  -27.7922  -22.7424   20.7956 C   0  0  0  0  0  0
  -28.0747  -25.3186   20.8598 C   0  0  0  0  0  0
  -27.8153  -18.2083   23.0869 C   0  0  0  0  0  0
  -28.5369  -23.9862   20.1705 C   0  0  2  0  0  0
  -30.2587  -15.5194   21.2880 N   0  0  0  0  0  0
  -28.5332  -21.4357   20.9452 N   0  3  2  0  0  0
  -34.4034  -16.5917   23.4454 O   0  0  0  0  0  0
  -31.4579  -20.2824   22.1622 O   0  0  0  0  0  0
  -31.4451  -12.3756   19.1323 H   0  0  0  0  0  0
  -30.2685  -11.3263   19.8592 H   0  0  0  0  0  0
  -29.7244  -11.7738   17.4391 H   0  0  0  0  0  0
  -29.6461  -13.4896   17.7630 H   0  0  0  0  0  0
  -27.8254  -11.3100   18.8355 H   0  0  0  0  0  0
  -27.3550  -12.6254   17.7938 H   0  0  0  0  0  0
  -27.6815  -14.2640   19.5496 H   0  0  0  0  0  0
  -28.6792  -12.0508   21.4043 H   0  0  0  0  0  0
  -28.4652  -13.7246   21.8373 H   0  0  0  0  0  0
  -25.2772   -9.5686   22.4752 H   0  0  0  0  0  0
  -24.0024   -7.4629   22.7467 H   0  0  0  0  0  0
  -21.0868   -8.8784   19.8933 H   0  0  0  0  0  0
  -22.3722  -10.9686   19.6169 H   0  0  0  0  0  0
  -21.1995   -7.6149   23.9719 H   0  0  0  0  0  0
  -21.1484   -6.0523   25.9077 H   0  0  0  0  0  0
  -22.0599   -2.7617   23.2848 H   0  0  0  0  0  0
  -22.4138  -11.9874   22.4773 H   0  0  0  0  0  0
  -21.1097  -13.1186   22.2601 H   0  0  0  0  0  0
  -24.6671  -15.8480   20.5257 H   0  0  0  0  0  0
  -26.2845  -15.6175   20.0874 H   0  0  0  0  0  0
  -26.7107  -32.5519   23.1142 H   0  0  0  0  0  0
  -24.9954  -33.9781   25.0362 H   0  0  0  0  0  0
  -22.7010  -31.3051   21.4036 H   0  0  0  0  0  0
  -23.3720  -35.9715   23.3312 H   0  0  0  0  0  0
  -24.3595  -36.8996   22.2065 H   0  0  0  0  0  0
  -23.7308  -37.6564   23.6689 H   0  0  0  0  0  0
  -26.0616  -31.5877   20.5975 H   0  0  0  0  0  0
  -26.8257  -30.8713   21.9876 H   0  0  0  0  0  0
  -28.1042  -29.0640   21.1830 H   0  0  0  0  0  0
  -26.0423  -25.9738   18.9983 H   0  0  0  0  0  0
  -23.9821  -27.3092   19.0048 H   0  0  0  0  0  0
  -23.7344  -30.6068   19.4015 H   0  0  0  0  0  0
  -22.7429  -29.2508   19.8576 H   0  0  0  0  0  0
  -25.1258  -36.1950   25.0838 H   0  0  0  0  0  0
  -20.9940  -28.3277   24.1407 H   0  0  0  0  0  0
  -20.5626  -26.2319   23.3604 H   0  0  0  0  0  0
  -21.6625  -26.7468   22.1217 H   0  0  0  0  0  0
  -19.6941  -25.6311   21.1237 H   0  0  0  0  0  0
  -19.6680  -27.3195   20.6710 H   0  0  0  0  0  0
  -17.4176  -26.6651   21.4024 H   0  0  0  0  0  0
  -18.0352  -26.0073   22.9024 H   0  0  0  0  0  0
  -19.7939  -30.7220   24.2277 H   0  0  0  0  0  0
  -17.5052  -31.6271   24.5166 H   0  0  0  0  0  0
  -15.5357  -30.2990   23.7691 H   0  0  0  0  0  0
  -15.8682  -28.0868   22.7011 H   0  0  0  0  0  0
  -24.5938  -30.6983   25.7830 H   0  0  0  0  0  0
  -24.8895  -32.2799   26.4945 H   0  0  0  0  0  0
  -25.8125  -30.8846   27.0228 H   0  0  0  0  0  0
  -26.2833  -29.6735   24.1220 H   0  0  0  0  0  0
  -27.4090  -29.7281   25.4591 H   0  0  0  0  0  0
  -27.8648  -30.4297   23.9233 H   0  0  0  0  0  0
  -27.2660  -33.3639   26.2036 H   0  0  0  0  0  0
  -28.3850  -32.6857   25.0312 H   0  0  0  0  0  0
  -28.0664  -31.8446   26.5430 H   0  0  0  0  0  0
  -28.2553  -38.0121   24.7506 H   0  0  0  0  0  0
  -28.1093  -36.2651   24.6251 H   0  0  0  0  0  0
  -27.2310  -37.1446   25.8869 H   0  0  0  0  0  0
  -20.9302  -29.8856   21.6970 H   0  0  0  0  0  0
  -26.0162  -38.2851   24.1378 H   0  0  0  0  0  0
  -32.5342  -15.1354   22.5414 H   0  0  0  0  0  0
  -33.6663  -19.1790   23.2078 H   0  0  0  0  0  0
  -30.7975  -19.8689   19.9356 H   0  0  0  0  0  0
  -29.7882  -18.8924   18.9890 H   0  0  0  0  0  0
  -27.9658  -20.4690   19.1492 H   0  0  0  0  0  0
  -29.4224  -21.4275   19.0262 H   0  0  0  0  0  0
  -27.3853  -20.9775   22.6767 H   0  0  0  0  0  0
  -26.8961  -20.1494   21.2231 H   0  0  0  0  0  0
  -28.8770  -17.7438   20.7301 H   0  0  0  0  0  0
  -29.3188  -19.6887   22.9612 H   0  0  0  0  0  0
  -28.6130  -18.8005   25.0330 H   0  0  0  0  0  0
  -27.1616  -17.8246   25.1285 H   0  0  0  0  0  0
  -27.0425  -19.5199   24.6686 H   0  0  0  0  0  0
  -26.5584  -17.5013   21.4411 H   0  0  0  0  0  0
  -25.7338  -18.6317   22.5121 H   0  0  0  0  0  0
  -26.0073  -16.9825   23.0246 H   0  0  0  0  0  0
  -28.7506  -23.2528   18.1020 H   0  0  0  0  0  0
  -28.7620  -24.9873   18.2440 H   0  0  0  0  0  0
  -27.2478  -24.1135   18.3998 H   0  0  0  0  0  0
  -36.4220  -16.8825   23.7400 H   0  0  0  0  0  0
  -35.4161  -18.2230   24.2714 H   0  0  0  0  0  0
  -35.7058  -17.9472   22.5395 H   0  0  0  0  0  0
  -32.1155  -22.2349   22.1974 H   0  0  0  0  0  0
  -33.3362  -21.0706   21.7090 H   0  0  0  0  0  0
  -32.8552  -21.2149   23.4182 H   0  0  0  0  0  0
  -26.8491  -22.5721   20.2751 H   0  0  0  0  0  0
  -27.4992  -23.0314   21.8069 H   0  0  0  0  0  0
  -28.5646  -25.3836   21.8317 H   0  0  0  0  0  0
  -27.0179  -25.2197   21.1086 H   0  0  0  0  0  0
  -28.4135  -17.2964   23.1153 H   0  0  0  0  0  0
  -29.6091  -23.8933   20.3489 H   0  0  0  0  0  0
  -29.2976  -15.4670   21.5908 H   0  0  0  0  0  0
  -29.3952  -21.6366   21.4327 H   0  0  0  0  0  0
  1 25  1  0  0  0
  1 30  2  0  0  0
  1 91  1  0  0  0
  2  3  1  0  0  0
  2 25  1  0  0  0
  2 95  1  0  0  0
  2 96  1  0  0  0
  3  4  1  0  0  0
  3 97  1  0  0  0
  3 98  1  0  0  0
  4  5  1  0  0  0
  4 99  1  0  0  0
  4100  1  0  0  0
  5  6  1  0  0  0
  5 26  1  0  0  0
  5101  1  0  0  0
  6 25  1  0  0  0
  6102  1  0  0  0
  6103  1  0  0  0
  7  8  2  0  0  0
  7 26  1  0  0  0
  7 29  1  0  0  0
  8  9  1  0  0  0
  8 22  1  0  0  0
  9 10  1  0  0  0
  9 27  2  0  0  0
 10 11  2  0  0  0
 10 15  1  0  0  0
 11 12  1  0  0  0
 11104  1  0  0  0
 12 13  2  0  0  0
 12105  1  0  0  0
 13 14  1  0  0  0
 13 31  1  0  0  0
 14 15  2  0  0  0
 14106  1  0  0  0
 15107  1  0  0  0
 16 17  2  0  0  0
 16 21  1  0  0  0
 16 31  1  0  0  0
 17 18  1  0  0  0
 17108  1  0  0  0
 18 19  2  0  0  0
 18109  1  0  0  0
 19 20  1  0  0  0
 19 24  1  0  0  0
 20 21  2  0  0  0
 20110  1  0  0  0
 21 23  1  0  0  0
 22 28  1  0  0  0
 22 32  2  0  0  0
 26 27  1  0  0  0
 28111  1  0  0  0
 28112  1  0  0  0
 29113  1  0  0  0
 29114  1  0  0  0
 33 34  1  0  0  0
 33 66  1  0  0  0
 33 70  2  0  0  0
 34 36  1  0  0  0
 34 59  1  0  0  0
 34115  1  0  0  0
 35 44  2  0  0  0
 35 45  1  0  0  0
 35 68  1  0  0  0
 36 56  1  0  0  0
 36116  1  0  0  0
 37 39  1  0  0  0
 37 47  1  0  0  0
 37 66  1  0  0  0
 37117  1  0  0  0
 38 43  2  0  0  0
 38 46  1  0  0  0
 38 47  1  0  0  0
 39 64  1  0  0  0
 39 67  2  0  0  0
 40 52  1  0  0  0
 40 53  2  0  0  0
 40 58  1  0  0  0
 41118  1  0  0  0
 41119  1  0  0  0
 41120  1  0  0  0
 41 48  1  0  0  0
 42 43  1  0  0  0
 42 66  1  0  0  0
 42121  1  0  0  0
 42122  1  0  0  0
 43 44  1  0  0  0
 44123  1  0  0  0
 45 46  2  0  0  0
 45124  1  0  0  0
 46125  1  0  0  0
 47126  1  0  0  0
 47127  1  0  0  0
 48 56  1  0  0  0
 48 65  1  0  0  0
 48128  1  0  0  0
 49 50  1  0  0  0
 49 53  1  0  0  0
 49 64  1  0  0  0
 49129  1  0  0  0
 50 51  1  0  0  0
 50130  1  0  0  0
 50131  1  0  0  0
 51 52  1  0  0  0
 51132  1  0  0  0
 51133  1  0  0  0
 52134  1  0  0  0
 52135  1  0  0  0
 53 54  1  0  0  0
 54 55  2  0  0  0
 54136  1  0  0  0
 55 57  1  0  0  0
 55137  1  0  0  0
 56 69  2  0  0  0
 57 58  2  0  0  0
 57138  1  0  0  0
 58139  1  0  0  0
 59 60  1  0  0  0
 59 61  1  0  0  0
 59 62  1  0  0  0
 60140  1  0  0  0
 60141  1  0  0  0
 60142  1  0  0  0
 61143  1  0  0  0
 61144  1  0  0  0
 61145  1  0  0  0
 62146  1  0  0  0
 62147  1  0  0  0
 62148  1  0  0  0
 63 65  1  0  0  0
 63149  1  0  0  0
 63150  1  0  0  0
 63151  1  0  0  0
 64152  1  0  0  0
 65153  1  0  0  0
 68 88  1  0  0  0
 71 74  2  0  0  0
 71 75  1  0  0  0
 71154  1  0  0  0
 72 75  2  0  0  0
 72 76  1  0  0  0
 72155  1  0  0  0
 73 74  1  0  0  0
 73 76  2  0  0  0
 73 80  1  0  0  0
 74 91  1  0  0  0
 75 93  1  0  0  0
 76 94  1  0  0  0
 77 78  1  0  0  0
 77 80  1  0  0  0
 77156  1  0  0  0
 77157  1  0  0  0
 78 92  1  0  0  0
 78158  1  0  0  0
 78159  1  0  0  0
 79 92  1  0  0  0
 79160  1  0  0  0
 79161  1  0  0  0
 79 81  1  0  0  0
 80 81  1  0  0  0
 80162  1  0  0  0
 81 89  1  0  0  0
 81163  1  0  0  0
 82164  1  0  0  0
 82165  1  0  0  0
 82166  1  0  0  0
 82 89  1  0  0  0
 83 89  1  0  0  0
 83167  1  0  0  0
 83168  1  0  0  0
 83169  1  0  0  0
 84170  1  0  0  0
 84171  1  0  0  0
 84172  1  0  0  0
 84 90  1  0  0  0
 85 93  1  0  0  0
 85173  1  0  0  0
 85174  1  0  0  0
 85175  1  0  0  0
 86 94  1  0  0  0
 86176  1  0  0  0
 86177  1  0  0  0
 86178  1  0  0  0
 87 90  1  0  0  0
 87179  1  0  0  0
 87180  1  0  0  0
 87 92  1  0  0  0
 88 90  1  0  0  0
 88181  1  0  0  0
 88182  1  0  0  0
 89183  1  0  0  0
 90184  1  0  0  0
 91185  1  0  0  0
 92186  1  0  0  0
M  CHG  1  92   1
M  ISO  4   1 100  68 101  88 101  91 100
M  END
> <chiral flag>
0

> <version>
0

> <s_m_source_file>
/data/baiqing/PycharmProjects/Reinvent-master-3.2/result/LINK_invent/BTK/process_docking_weight1_custom_sum_contain_oxygen_bond_distance_aromatic_linkinvent_7_9_3/rearranged_h_0156.sdf

> <i_m_source_file_index>
50

> <r_mmod_Potential_Energy-OPLS-2005>
81.0843811035156

> <r_mmod_Stretch_Energy-OPLS-2005>
63.0872230529785

> <r_mmod_Bend_Energy-OPLS-2005>
148.92366027832

> <r_mmod_Torsional_Energy-OPLS-2005>
336.170837402344

> <r_mmod_Improper_Torsional_Energy-OPLS-2005>
2.29362177848816

> <r_mmod_Van_der_Waal_Energy-OPLS-2005>
178.033020019531

> <r_mmod_Electrostatic_Energy-OPLS-2005>
-242.139892578125

> <r_mmod_Solvation_Energy-OPLS-2005>
-426.889465332031

> <b_mmod_Minimization_Converged-OPLS-2005>
0

> <r_mmod_RMS_Derivative-OPLS-2005>
3.18890857696533

$$$$
50
                    3D
 Structure written by MMmdl.
170179  0  0  1  0            999 V2000
  -30.6904  -14.6184   20.4852 C   0  0  0  0  0  0
  -30.4161  -12.3853   19.4445 C   0  0  0  0  0  0
  -29.4945  -12.4962   18.2136 C   0  0  0  0  0  0
  -28.0186  -12.3482   18.6302 C   0  0  0  0  0  0
  -27.6459  -13.2275   19.8548 C   0  0  2  0  0  0
  -28.6953  -13.1053   20.9785 C   0  0  0  0  0  0
  -25.2529  -13.8198   20.5713 C   0  0  0  0  0  0
  -24.1805  -13.0451   20.9197 C   0  0  0  0  0  0
  -24.6402  -11.6927   20.8743 C   0  0  0  0  0  0
  -23.9077  -10.4302   21.0419 C   0  0  0  0  0  0
  -24.3628   -9.4211   21.9193 C   0  0  0  0  0  0
  -23.6301   -8.2250   22.0756 C   0  0  0  0  0  0
  -22.4274   -8.0289   21.3557 C   0  0  0  0  0  0
  -21.9920   -9.0263   20.4652 C   0  0  0  0  0  0
  -22.7247  -10.2143   20.3068 C   0  0  0  0  0  0
  -21.6854   -6.0742   22.5286 C   0  0  0  0  0  0
  -21.4010   -6.5646   23.8217 C   0  0  0  0  0  0
  -21.3654   -5.6798   24.9175 C   0  0  0  0  0  0
  -21.6046   -4.3067   24.7225 C   0  0  0  0  0  0
  -21.8821   -3.8157   23.4351 C   0  0  0  0  0  0
  -21.9192   -4.6974   22.3403 C   0  0  0  0  0  0
  -22.7822  -13.5228   21.1852 C   0  0  0  0  0  0
  -22.1662   -4.2166   21.0985 F   0  0  0  0  0  0
  -21.5630   -3.4543   25.7739 F   0  0  0  0  0  0
  -29.9964  -13.4398   20.3915 N   0  0  0  0  0  0
  -26.2972  -12.9411   20.3331 N   0  0  0  0  0  0
  -25.9335  -11.6557   20.5764 N   0  0  0  0  0  0
  -22.0476  -12.8214   22.0413 N   0  0  0  0  0  0
  -25.4240  -15.1921   20.4149 N   0  0  0  0  0  0
  -31.8908  -14.6343   20.1956 O   0  0  0  0  0  0
  -21.6636   -6.8890   21.4251 O   0  0  0  0  0  0
  -22.3494  -14.5531   20.6698 O   0  0  0  0  0  0
  -24.6245  -31.8602   23.2020 C   0  0  0  0  0  0
  -25.9098  -32.4784   23.8348 C   0  0  1  0  0  0
  -27.2215  -27.3309   20.1288 C   0  0  0  0  0  0
  -25.5915  -33.8583   24.2270 N   0  0  0  0  0  0
  -23.4180  -30.4834   21.5433 C   0  0  2  0  0  0
  -24.8648  -28.9359   20.1136 C   0  0  0  0  0  0
  -22.7464  -29.4630   22.4928 C   0  0  0  0  0  0
  -18.0285  -28.1386   22.8485 C   0  0  0  0  0  0
  -24.1480  -36.7288   23.2639 C   0  0  0  0  0  0
  -25.9572  -30.7955   21.3713 C   0  0  0  0  0  0
  -26.0317  -29.4223   20.7186 C   0  0  0  0  0  0
  -27.2153  -28.6311   20.7141 C   0  0  0  0  0  0
  -26.0394  -26.8936   19.4939 C   0  0  0  0  0  0
  -24.8700  -27.6770   19.4913 C   0  0  0  0  0  0
  -23.6330  -29.8155   20.1589 C   0  0  0  0  0  0
  -25.4104  -36.3078   24.0326 C   0  0  1  0  0  0
  -20.5887  -28.3690   23.1284 C   0  0  2  0  0  0
  -20.6780  -26.9413   22.5409 C   0  0  0  0  0  0
  -19.5758  -26.6390   21.5207 C   0  0  0  0  0  0
  -18.1934  -26.7930   22.1615 C   0  0  0  0  0  0
  -19.1540  -28.8849   23.2887 C   0  0  0  0  0  0
  -18.9466  -30.1451   23.8905 C   0  0  0  0  0  0
  -17.6466  -30.6589   24.0561 C   0  0  0  0  0  0
  -25.9045  -34.9453   23.5097 C   0  0  0  0  0  0
  -16.5358  -29.9086   23.6330 C   0  0  0  0  0  0
  -16.7276  -28.6511   23.0347 C   0  0  0  0  0  0
  -26.4486  -31.6603   25.0723 C   0  0  0  0  0  0
  -25.3728  -31.3745   26.1463 C   0  0  0  0  0  0
  -27.0320  -30.3027   24.6167 C   0  0  0  0  0  0
  -27.6044  -32.4342   25.7487 C   0  0  0  0  0  0
  -27.5573  -37.1794   24.8460 C   0  0  0  0  0  0
  -21.4181  -29.3045   22.3671 N   0  0  0  0  0  0
  -26.4274  -37.3783   23.9418 N   0  0  0  0  0  0
  -24.6852  -31.0634   22.0953 N   0  0  0  0  0  0
  -23.4199  -28.8163   23.2995 O   0  0  0  0  0  0
  -28.3445  -26.5018   20.1481 O   0  0  0  0  0  0
  -26.5615  -34.8921   22.4661 O   0  0  0  0  0  0
  -23.5413  -32.1382   23.7368 O   0  0  0  0  0  0
  -30.0392  -22.4126   21.7867 C   0  0  0  0  0  0
  -29.3182  -22.6141   20.5660 C   0  0  0  0  0  0
  -30.1892  -21.0666   22.0002 C   0  0  0  0  0  0
  -28.9797  -21.3244   20.1406 C   0  0  0  0  0  0
  -29.8463  -18.2358   19.3759 C   0  0  0  0  0  0
  -28.9155  -17.9196   21.5893 C   0  0  0  0  0  0
  -30.4469  -16.7925   19.3851 C   0  0  0  0  0  0
  -29.4670  -16.4485   21.6781 C   0  0  0  0  0  0
  -29.8329  -18.8572   20.7816 C   0  0  0  0  0  0
  -30.6154  -23.4763   22.6936 C   0  0  0  0  0  0
  -30.8914  -20.3851   23.1409 C   0  0  0  0  0  0
  -28.1141  -20.8883   18.9989 C   0  0  0  0  0  0
  -28.8743  -23.9589   18.3814 C   0  0  0  0  0  0
  -28.1665  -25.0949   20.5707 C   0  0  0  0  0  0
  -29.1299  -24.0341   19.8947 C   0  0  1  0  0  0
  -29.6423  -20.3565   20.9357 N   0  0  0  0  0  0
  -29.9917  -15.8160   20.4321 N   0  0  0  0  0  0
  -31.4587  -12.4795   19.1358 H   0  0  0  0  0  0
  -30.3314  -11.3998   19.9061 H   0  0  0  0  0  0
  -29.7523  -11.7351   17.4757 H   0  0  0  0  0  0
  -29.6451  -13.4594   17.7228 H   0  0  0  0  0  0
  -27.8511  -11.2973   18.8677 H   0  0  0  0  0  0
  -27.3640  -12.5783   17.7883 H   0  0  0  0  0  0
  -27.6572  -14.2608   19.5050 H   0  0  0  0  0  0
  -28.7106  -12.0909   21.3806 H   0  0  0  0  0  0
  -28.4482  -13.7479   21.8197 H   0  0  0  0  0  0
  -25.2784   -9.5678   22.4750 H   0  0  0  0  0  0
  -24.0015   -7.4639   22.7470 H   0  0  0  0  0  0
  -21.0856   -8.8781   19.8951 H   0  0  0  0  0  0
  -22.3717  -10.9681   19.6170 H   0  0  0  0  0  0
  -21.1999   -7.6152   23.9725 H   0  0  0  0  0  0
  -21.1470   -6.0527   25.9080 H   0  0  0  0  0  0
  -22.0605   -2.7622   23.2845 H   0  0  0  0  0  0
  -22.4097  -11.9878   22.4810 H   0  0  0  0  0  0
  -21.1101  -13.1237   22.2636 H   0  0  0  0  0  0
  -24.6614  -15.8491   20.5303 H   0  0  0  0  0  0
  -26.2859  -15.6331   20.1212 H   0  0  0  0  0  0
  -26.7162  -32.5460   23.1099 H   0  0  0  0  0  0
  -25.0060  -33.9719   25.0412 H   0  0  0  0  0  0
  -22.7129  -31.3041   21.3980 H   0  0  0  0  0  0
  -23.3746  -35.9615   23.3286 H   0  0  0  0  0  0
  -24.3577  -36.8935   22.2058 H   0  0  0  0  0  0
  -23.7230  -37.6480   23.6677 H   0  0  0  0  0  0
  -26.0871  -31.5567   20.6011 H   0  0  0  0  0  0
  -26.8389  -30.8463   21.9986 H   0  0  0  0  0  0
  -28.1142  -28.9972   21.1909 H   0  0  0  0  0  0
  -26.0137  -25.9343   18.9964 H   0  0  0  0  0  0
  -23.9785  -27.3029   19.0071 H   0  0  0  0  0  0
  -23.7540  -30.5897   19.3995 H   0  0  0  0  0  0
  -22.7542  -29.2439   19.8557 H   0  0  0  0  0  0
  -25.1288  -36.1912   25.0819 H   0  0  0  0  0  0
  -20.9985  -28.3265   24.1405 H   0  0  0  0  0  0
  -20.5679  -26.2295   23.3607 H   0  0  0  0  0  0
  -21.6650  -26.7442   22.1208 H   0  0  0  0  0  0
  -19.6917  -25.6301   21.1242 H   0  0  0  0  0  0
  -19.6693  -27.3198   20.6733 H   0  0  0  0  0  0
  -17.4201  -26.6672   21.4022 H   0  0  0  0  0  0
  -18.0336  -26.0072   22.9014 H   0  0  0  0  0  0
  -19.7941  -30.7260   24.2289 H   0  0  0  0  0  0
  -17.5024  -31.6274   24.5149 H   0  0  0  0  0  0
  -15.5359  -30.2990   23.7659 H   0  0  0  0  0  0
  -15.8677  -28.0835   22.7051 H   0  0  0  0  0  0
  -24.5869  -30.7132   25.7800 H   0  0  0  0  0  0
  -24.8956  -32.2918   26.4919 H   0  0  0  0  0  0
  -25.8063  -30.8895   27.0218 H   0  0  0  0  0  0
  -26.2886  -29.6791   24.1188 H   0  0  0  0  0  0
  -27.4021  -29.7277   25.4665 H   0  0  0  0  0  0
  -27.8758  -30.4319   23.9384 H   0  0  0  0  0  0
  -27.2656  -33.3655   26.2031 H   0  0  0  0  0  0
  -28.3865  -32.6882   25.0323 H   0  0  0  0  0  0
  -28.0689  -31.8487   26.5430 H   0  0  0  0  0  0
  -28.2575  -38.0108   24.7533 H   0  0  0  0  0  0
  -28.1091  -36.2640   24.6251 H   0  0  0  0  0  0
  -27.2304  -37.1410   25.8869 H   0  0  0  0  0  0
  -20.9347  -29.8782   21.6899 H   0  0  0  0  0  0
  -26.0148  -38.2850   24.1444 H   0  0  0  0  0  0
  -28.8395  -18.1880   18.9634 H   0  0  0  0  0  0
  -30.4257  -18.8647   18.6974 H   0  0  0  0  0  0
  -28.7647  -18.3041   22.5960 H   0  0  0  0  0  0
  -27.9234  -17.9118   21.1362 H   0  0  0  0  0  0
  -31.5283  -16.9245   19.4684 H   0  0  0  0  0  0
  -30.2854  -16.3420   18.4039 H   0  0  0  0  0  0
  -28.6812  -15.8316   22.1071 H   0  0  0  0  0  0
  -30.2793  -16.4402   22.4075 H   0  0  0  0  0  0
  -30.8437  -18.6822   21.1512 H   0  0  0  0  0  0
  -31.6764  -23.2842   22.8598 H   0  0  0  0  0  0
  -30.1142  -23.4605   23.6625 H   0  0  0  0  0  0
  -30.5246  -24.4799   22.2813 H   0  0  0  0  0  0
  -31.0890  -21.0794   23.9574 H   0  0  0  0  0  0
  -31.8486  -19.9708   22.8247 H   0  0  0  0  0  0
  -30.2919  -19.5793   23.5622 H   0  0  0  0  0  0
  -27.3408  -21.6225   18.7861 H   0  0  0  0  0  0
  -27.5761  -19.9739   19.2448 H   0  0  0  0  0  0
  -28.6952  -20.7213   18.0921 H   0  0  0  0  0  0
  -29.5875  -23.2925   17.8953 H   0  0  0  0  0  0
  -28.9828  -24.9431   17.9253 H   0  0  0  0  0  0
  -27.8669  -23.6180   18.1524 H   0  0  0  0  0  0
  -28.3493  -25.0895   21.6443 H   0  0  0  0  0  0
  -27.1394  -24.7468   20.4682 H   0  0  0  0  0  0
  -30.1236  -24.4742   19.9814 H   0  0  0  0  0  0
  1 25  1  0  0  0
  1 30  2  0  0  0
  1 87  1  0  0  0
  2  3  1  0  0  0
  2 25  1  0  0  0
  2 88  1  0  0  0
  2 89  1  0  0  0
  3  4  1  0  0  0
  3 90  1  0  0  0
  3 91  1  0  0  0
  4  5  1  0  0  0
  4 92  1  0  0  0
  4 93  1  0  0  0
  5  6  1  0  0  0
  5 26  1  0  0  0
  5 94  1  0  0  0
  6 25  1  0  0  0
  6 95  1  0  0  0
  6 96  1  0  0  0
  7  8  2  0  0  0
  7 26  1  0  0  0
  7 29  1  0  0  0
  8  9  1  0  0  0
  8 22  1  0  0  0
  9 10  1  0  0  0
  9 27  2  0  0  0
 10 11  2  0  0  0
 10 15  1  0  0  0
 11 12  1  0  0  0
 11 97  1  0  0  0
 12 13  2  0  0  0
 12 98  1  0  0  0
 13 14  1  0  0  0
 13 31  1  0  0  0
 14 15  2  0  0  0
 14 99  1  0  0  0
 15100  1  0  0  0
 16 17  2  0  0  0
 16 21  1  0  0  0
 16 31  1  0  0  0
 17 18  1  0  0  0
 17101  1  0  0  0
 18 19  2  0  0  0
 18102  1  0  0  0
 19 20  1  0  0  0
 19 24  1  0  0  0
 20 21  2  0  0  0
 20103  1  0  0  0
 21 23  1  0  0  0
 22 28  1  0  0  0
 22 32  2  0  0  0
 26 27  1  0  0  0
 28104  1  0  0  0
 28105  1  0  0  0
 29106  1  0  0  0
 29107  1  0  0  0
 33 34  1  0  0  0
 33 66  1  0  0  0
 33 70  2  0  0  0
 34 36  1  0  0  0
 34 59  1  0  0  0
 34108  1  0  0  0
 35 44  2  0  0  0
 35 45  1  0  0  0
 35 68  1  0  0  0
 36 56  1  0  0  0
 36109  1  0  0  0
 37 39  1  0  0  0
 37 47  1  0  0  0
 37 66  1  0  0  0
 37110  1  0  0  0
 38 43  2  0  0  0
 38 46  1  0  0  0
 38 47  1  0  0  0
 39 64  1  0  0  0
 39 67  2  0  0  0
 40 52  1  0  0  0
 40 53  2  0  0  0
 40 58  1  0  0  0
 41111  1  0  0  0
 41112  1  0  0  0
 41113  1  0  0  0
 41 48  1  0  0  0
 42 43  1  0  0  0
 42 66  1  0  0  0
 42114  1  0  0  0
 42115  1  0  0  0
 43 44  1  0  0  0
 44116  1  0  0  0
 45 46  2  0  0  0
 45117  1  0  0  0
 46118  1  0  0  0
 47119  1  0  0  0
 47120  1  0  0  0
 48 56  1  0  0  0
 48 65  1  0  0  0
 48121  1  0  0  0
 49 50  1  0  0  0
 49 53  1  0  0  0
 49 64  1  0  0  0
 49122  1  0  0  0
 50 51  1  0  0  0
 50123  1  0  0  0
 50124  1  0  0  0
 51 52  1  0  0  0
 51125  1  0  0  0
 51126  1  0  0  0
 52127  1  0  0  0
 52128  1  0  0  0
 53 54  1  0  0  0
 54 55  2  0  0  0
 54129  1  0  0  0
 55 57  1  0  0  0
 55130  1  0  0  0
 56 69  2  0  0  0
 57 58  2  0  0  0
 57131  1  0  0  0
 58132  1  0  0  0
 59 60  1  0  0  0
 59 61  1  0  0  0
 59 62  1  0  0  0
 60133  1  0  0  0
 60134  1  0  0  0
 60135  1  0  0  0
 61136  1  0  0  0
 61137  1  0  0  0
 61138  1  0  0  0
 62139  1  0  0  0
 62140  1  0  0  0
 62141  1  0  0  0
 63 65  1  0  0  0
 63142  1  0  0  0
 63143  1  0  0  0
 63144  1  0  0  0
 64145  1  0  0  0
 65146  1  0  0  0
 68 84  1  0  0  0
 71 72  1  0  0  0
 71 73  2  0  0  0
 71 80  1  0  0  0
 72 74  2  0  0  0
 72 85  1  0  0  0
 73 81  1  0  0  0
 73 86  1  0  0  0
 74 82  1  0  0  0
 74 86  1  0  0  0
 75 77  1  0  0  0
 75 79  1  0  0  0
 75147  1  0  0  0
 75148  1  0  0  0
 76 78  1  0  0  0
 76 79  1  0  0  0
 76149  1  0  0  0
 76150  1  0  0  0
 77 87  1  0  0  0
 77151  1  0  0  0
 77152  1  0  0  0
 78 87  1  0  0  0
 78153  1  0  0  0
 78154  1  0  0  0
 79 86  1  0  0  0
 79155  1  0  0  0
 80156  1  0  0  0
 80157  1  0  0  0
 80158  1  0  0  0
 81159  1  0  0  0
 81160  1  0  0  0
 81161  1  0  0  0
 82162  1  0  0  0
 82163  1  0  0  0
 82164  1  0  0  0
 83165  1  0  0  0
 83166  1  0  0  0
 83167  1  0  0  0
 83 85  1  0  0  0
 84 85  1  0  0  0
 84168  1  0  0  0
 84169  1  0  0  0
 85170  1  0  0  0
M  ISO  4   1 100  68 101  84 101  87 100
M  END
> <chiral flag>
0

> <version>
0

> <s_m_source_file>
/data/baiqing/PycharmProjects/Reinvent-master-3.2/result/LINK_invent/BTK/process_docking_weight1_custom_sum_contain_oxygen_bond_distance_aromatic_linkinvent_7_9_3/rearranged_h_0156.sdf

> <i_m_source_file_index>
51

> <r_mmod_Potential_Energy-OPLS-2005>
296.572387695312

> <r_mmod_Stretch_Energy-OPLS-2005>
82.2009048461914

> <r_mmod_Bend_Energy-OPLS-2005>
171.440505981445

> <r_mmod_Torsional_Energy-OPLS-2005>
372.053955078125

> <r_mmod_Improper_Torsional_Energy-OPLS-2005>
17.4982223510742

> <r_mmod_Van_der_Waal_Energy-OPLS-2005>
129.537109375

> <r_mmod_Electrostatic_Energy-OPLS-2005>
-328.200164794922

> <r_mmod_Solvation_Energy-OPLS-2005>
-194.590148925781

> <b_mmod_Minimization_Converged-OPLS-2005>
0

> <r_mmod_RMS_Derivative-OPLS-2005>
1.70377004146576

$$$$
51
                    3D
 Structure written by MMmdl.
171180  0  0  1  0            999 V2000
  -30.7187  -14.5587   20.5176 C   0  0  0  0  0  0
  -30.4153  -12.3502   19.4508 C   0  0  0  0  0  0
  -29.4974  -12.4992   18.2205 C   0  0  0  0  0  0
  -28.0198  -12.3518   18.6327 C   0  0  0  0  0  0
  -27.6530  -13.2265   19.8631 C   0  0  2  0  0  0
  -28.7001  -13.0999   20.9940 C   0  0  0  0  0  0
  -25.2541  -13.8212   20.5715 C   0  0  0  0  0  0
  -24.1809  -13.0452   20.9188 C   0  0  0  0  0  0
  -24.6405  -11.6931   20.8736 C   0  0  0  0  0  0
  -23.9084  -10.4302   21.0395 C   0  0  0  0  0  0
  -24.3632   -9.4217   21.9175 C   0  0  0  0  0  0
  -23.6296   -8.2260   22.0751 C   0  0  0  0  0  0
  -22.4273   -8.0299   21.3546 C   0  0  0  0  0  0
  -21.9912   -9.0268   20.4640 C   0  0  0  0  0  0
  -22.7254  -10.2139   20.3046 C   0  0  0  0  0  0
  -21.6849   -6.0740   22.5285 C   0  0  0  0  0  0
  -21.3999   -6.5642   23.8219 C   0  0  0  0  0  0
  -21.3662   -5.6799   24.9185 C   0  0  0  0  0  0
  -21.6066   -4.3064   24.7231 C   0  0  0  0  0  0
  -21.8816   -3.8150   23.4347 C   0  0  0  0  0  0
  -21.9187   -4.6967   22.3404 C   0  0  0  0  0  0
  -22.7835  -13.5237   21.1850 C   0  0  0  0  0  0
  -22.1659   -4.2159   21.0980 F   0  0  0  0  0  0
  -21.5654   -3.4544   25.7735 F   0  0  0  0  0  0
  -30.0181  -13.3902   20.4174 N   0  0  0  0  0  0
  -26.2994  -12.9422   20.3353 N   0  0  0  0  0  0
  -25.9347  -11.6565   20.5779 N   0  0  0  0  0  0
  -22.0471  -12.8222   22.0400 N   0  0  0  0  0  0
  -25.4244  -15.1934   20.4205 N   0  0  0  0  0  0
  -31.8962  -14.6335   20.1506 O   0  0  0  0  0  0
  -21.6643   -6.8891   21.4253 O   0  0  0  0  0  0
  -22.3513  -14.5546   20.6713 O   0  0  0  0  0  0
  -24.6262  -31.8662   23.2142 C   0  0  0  0  0  0
  -25.9135  -32.4811   23.8426 C   0  0  1  0  0  0
  -27.2063  -27.3433   20.0884 C   0  0  0  0  0  0
  -25.5972  -33.8607   24.2351 N   0  0  0  0  0  0
  -23.4156  -30.5013   21.5566 C   0  0  2  0  0  0
  -24.8570  -28.9839   20.1056 C   0  0  0  0  0  0
  -22.7465  -29.4679   22.4952 C   0  0  0  0  0  0
  -18.0288  -28.1385   22.8479 C   0  0  0  0  0  0
  -24.1488  -36.7297   23.2634 C   0  0  0  0  0  0
  -25.9613  -30.7989   21.3920 C   0  0  0  0  0  0
  -26.0288  -29.4341   20.7269 C   0  0  0  0  0  0
  -27.2030  -28.6208   20.7269 C   0  0  0  0  0  0
  -26.0135  -26.9885   19.3977 C   0  0  0  0  0  0
  -24.8507  -27.7616   19.4351 C   0  0  0  0  0  0
  -23.6272  -29.8609   20.1644 C   0  0  0  0  0  0
  -25.4107  -36.3093   24.0338 C   0  0  1  0  0  0
  -20.5890  -28.3691   23.1277 C   0  0  2  0  0  0
  -20.6791  -26.9419   22.5402 C   0  0  0  0  0  0
  -19.5767  -26.6389   21.5207 C   0  0  0  0  0  0
  -18.1941  -26.7931   22.1614 C   0  0  0  0  0  0
  -19.1540  -28.8856   23.2878 C   0  0  0  0  0  0
  -18.9456  -30.1455   23.8897 C   0  0  0  0  0  0
  -17.6456  -30.6590   24.0564 C   0  0  0  0  0  0
  -25.9050  -34.9463   23.5128 C   0  0  0  0  0  0
  -16.5349  -29.9085   23.6335 C   0  0  0  0  0  0
  -16.7275  -28.6508   23.0350 C   0  0  0  0  0  0
  -26.4523  -31.6591   25.0770 C   0  0  0  0  0  0
  -25.3774  -31.3693   26.1506 C   0  0  0  0  0  0
  -27.0381  -30.3020   24.6221 C   0  0  0  0  0  0
  -27.6096  -32.4314   25.7524 C   0  0  0  0  0  0
  -27.5580  -37.1803   24.8467 C   0  0  0  0  0  0
  -21.4186  -29.3061   22.3678 N   0  0  0  0  0  0
  -26.4288  -37.3786   23.9415 N   0  0  0  0  0  0
  -24.6859  -31.0709   22.1093 N   0  0  0  0  0  0
  -23.4208  -28.8188   23.3001 O   0  0  0  0  0  0
  -28.2847  -26.4339   20.1693 O   0  0  0  0  0  0
  -26.5586  -34.8916   22.4672 O   0  0  0  0  0  0
  -23.5431  -32.1456   23.7485 O   0  0  0  0  0  0
  -29.7671  -23.5381   20.8305 C   0  0  0  0  0  0
  -28.4238  -21.2576   19.8884 C   0  0  0  0  0  0
  -28.6104  -23.7269   20.0379 C   0  0  0  0  0  0
  -30.2446  -22.2250   21.1483 C   0  0  0  0  0  0
  -27.9716  -22.5514   19.5413 C   0  0  0  0  0  0
  -29.5531  -21.0519   20.7099 C   0  0  0  0  0  0
  -29.0063  -17.8383   19.7318 C   0  0  0  0  0  0
  -29.3153  -17.6467   22.2228 C   0  0  0  0  0  0
  -30.0407  -16.6865   19.6054 C   0  0  0  0  0  0
  -30.3223  -16.4927   21.9494 C   0  0  0  0  0  0
  -29.0729  -18.6402   21.0554 C   0  0  0  0  0  0
  -26.7611  -22.6374   18.6170 C   0  0  0  0  0  0
  -31.3916  -22.7106   23.3652 C   0  0  0  0  0  0
  -33.0261  -22.1162   20.1121 C   0  0  0  0  0  0
  -27.9469  -25.0881   19.6742 C   0  0  0  0  0  0
  -31.5298  -22.0940   21.9664 C   0  0  2  0  0  0
  -30.0184  -15.7184   20.7281 N   0  0  0  0  0  0
  -29.9996  -19.7641   21.0523 O   0  0  0  0  0  0
  -32.6387  -22.7304   21.3365 O   0  0  0  0  0  0
  -31.4615  -12.4293   19.1534 H   0  0  0  0  0  0
  -30.3064  -11.3593   19.8952 H   0  0  0  0  0  0
  -29.7516  -11.7511   17.4689 H   0  0  0  0  0  0
  -29.6593  -13.4716   17.7522 H   0  0  0  0  0  0
  -27.8495  -11.2991   18.8617 H   0  0  0  0  0  0
  -27.3634  -12.5876   17.7937 H   0  0  0  0  0  0
  -27.6702  -14.2613   19.5209 H   0  0  0  0  0  0
  -28.6926  -12.0954   21.4197 H   0  0  0  0  0  0
  -28.4685  -13.7843   21.8114 H   0  0  0  0  0  0
  -25.2783   -9.5678   22.4757 H   0  0  0  0  0  0
  -23.9998   -7.4655   22.7468 H   0  0  0  0  0  0
  -21.0843   -8.8773   19.8947 H   0  0  0  0  0  0
  -22.3708  -10.9673   19.6155 H   0  0  0  0  0  0
  -21.1956   -7.6143   23.9715 H   0  0  0  0  0  0
  -21.1490   -6.0525   25.9088 H   0  0  0  0  0  0
  -22.0570   -2.7611   23.2842 H   0  0  0  0  0  0
  -22.4074  -11.9886   22.4795 H   0  0  0  0  0  0
  -21.1078  -13.1232   22.2561 H   0  0  0  0  0  0
  -24.6646  -15.8517   20.5536 H   0  0  0  0  0  0
  -26.2923  -15.6344   20.1445 H   0  0  0  0  0  0
  -26.7200  -32.5475   23.1168 H   0  0  0  0  0  0
  -25.0185  -33.9768   25.0538 H   0  0  0  0  0  0
  -22.7079  -31.3226   21.4281 H   0  0  0  0  0  0
  -23.3757  -35.9622   23.3287 H   0  0  0  0  0  0
  -24.3597  -36.8915   22.2052 H   0  0  0  0  0  0
  -23.7230  -37.6494   23.6653 H   0  0  0  0  0  0
  -26.1029  -31.5677   20.6316 H   0  0  0  0  0  0
  -26.8391  -30.8356   22.0244 H   0  0  0  0  0  0
  -28.0889  -28.9525   21.2492 H   0  0  0  0  0  0
  -25.9085  -26.0906   18.8093 H   0  0  0  0  0  0
  -23.9644  -27.4202   18.9184 H   0  0  0  0  0  0
  -23.7456  -30.6509   19.4216 H   0  0  0  0  0  0
  -22.7451  -29.2983   19.8543 H   0  0  0  0  0  0
  -25.1282  -36.1947   25.0834 H   0  0  0  0  0  0
  -20.9981  -28.3256   24.1395 H   0  0  0  0  0  0
  -20.5709  -26.2292   23.3590 H   0  0  0  0  0  0
  -21.6650  -26.7470   22.1171 H   0  0  0  0  0  0
  -19.6922  -25.6301   21.1236 H   0  0  0  0  0  0
  -19.6702  -27.3197   20.6735 H   0  0  0  0  0  0
  -17.4208  -26.6676   21.4020 H   0  0  0  0  0  0
  -18.0340  -26.0076   22.9016 H   0  0  0  0  0  0
  -19.7933  -30.7276   24.2262 H   0  0  0  0  0  0
  -17.5013  -31.6271   24.5161 H   0  0  0  0  0  0
  -15.5353  -30.2986   23.7677 H   0  0  0  0  0  0
  -15.8669  -28.0837   22.7061 H   0  0  0  0  0  0
  -24.5967  -30.7024   25.7833 H   0  0  0  0  0  0
  -24.8954  -32.2841   26.4965 H   0  0  0  0  0  0
  -25.8131  -30.8853   27.0258 H   0  0  0  0  0  0
  -26.2965  -29.6750   24.1265 H   0  0  0  0  0  0
  -27.4100  -29.7296   25.4731 H   0  0  0  0  0  0
  -27.8827  -30.4315   23.9451 H   0  0  0  0  0  0
  -27.2732  -33.3623   26.2103 H   0  0  0  0  0  0
  -28.3905  -32.6856   25.0343 H   0  0  0  0  0  0
  -28.0772  -31.8434   26.5431 H   0  0  0  0  0  0
  -28.2589  -38.0111   24.7535 H   0  0  0  0  0  0
  -28.1087  -36.2646   24.6264 H   0  0  0  0  0  0
  -27.2308  -37.1411   25.8873 H   0  0  0  0  0  0
  -20.9341  -29.8801   21.6912 H   0  0  0  0  0  0
  -26.0169  -38.2856   24.1431 H   0  0  0  0  0  0
  -30.2992  -24.4039   21.1980 H   0  0  0  0  0  0
  -27.8888  -20.4083   19.4922 H   0  0  0  0  0  0
  -28.0110  -17.3999   19.6507 H   0  0  0  0  0  0
  -29.0995  -18.5116   18.8806 H   0  0  0  0  0  0
  -29.6123  -18.1984   23.1163 H   0  0  0  0  0  0
  -28.3585  -17.1840   22.4681 H   0  0  0  0  0  0
  -31.0400  -17.1171   19.5117 H   0  0  0  0  0  0
  -29.8555  -16.1565   18.6691 H   0  0  0  0  0  0
  -30.3296  -15.8212   22.8108 H   0  0  0  0  0  0
  -31.3318  -16.9041   21.8797 H   0  0  0  0  0  0
  -28.0817  -19.0556   21.2477 H   0  0  0  0  0  0
  -26.4719  -21.6554   18.2408 H   0  0  0  0  0  0
  -26.9758  -23.2527   17.7434 H   0  0  0  0  0  0
  -25.8971  -23.0527   19.1359 H   0  0  0  0  0  0
  -30.5600  -22.2657   23.9126 H   0  0  0  0  0  0
  -31.2216  -23.7861   23.3243 H   0  0  0  0  0  0
  -32.2977  -22.5482   23.9507 H   0  0  0  0  0  0
  -33.9396  -22.5801   19.7404 H   0  0  0  0  0  0
  -32.2637  -22.2397   19.3418 H   0  0  0  0  0  0
  -33.2191  -21.0498   20.2406 H   0  0  0  0  0  0
  -26.9606  -24.8587   20.0778 H   0  0  0  0  0  0
  -27.8986  -25.1470   18.5862 H   0  0  0  0  0  0
  -31.7800  -21.0406   22.1023 H   0  0  0  0  0  0
  1 25  1  0  0  0
  1 30  2  0  0  0
  1 87  1  0  0  0
  2  3  1  0  0  0
  2 25  1  0  0  0
  2 90  1  0  0  0
  2 91  1  0  0  0
  3  4  1  0  0  0
  3 92  1  0  0  0
  3 93  1  0  0  0
  4  5  1  0  0  0
  4 94  1  0  0  0
  4 95  1  0  0  0
  5  6  1  0  0  0
  5 26  1  0  0  0
  5 96  1  0  0  0
  6 25  1  0  0  0
  6 97  1  0  0  0
  6 98  1  0  0  0
  7  8  2  0  0  0
  7 26  1  0  0  0
  7 29  1  0  0  0
  8  9  1  0  0  0
  8 22  1  0  0  0
  9 10  1  0  0  0
  9 27  2  0  0  0
 10 11  2  0  0  0
 10 15  1  0  0  0
 11 12  1  0  0  0
 11 99  1  0  0  0
 12 13  2  0  0  0
 12100  1  0  0  0
 13 14  1  0  0  0
 13 31  1  0  0  0
 14 15  2  0  0  0
 14101  1  0  0  0
 15102  1  0  0  0
 16 17  2  0  0  0
 16 21  1  0  0  0
 16 31  1  0  0  0
 17 18  1  0  0  0
 17103  1  0  0  0
 18 19  2  0  0  0
 18104  1  0  0  0
 19 20  1  0  0  0
 19 24  1  0  0  0
 20 21  2  0  0  0
 20105  1  0  0  0
 21 23  1  0  0  0
 22 28  1  0  0  0
 22 32  2  0  0  0
 26 27  1  0  0  0
 28106  1  0  0  0
 28107  1  0  0  0
 29108  1  0  0  0
 29109  1  0  0  0
 33 34  1  0  0  0
 33 66  1  0  0  0
 33 70  2  0  0  0
 34 36  1  0  0  0
 34 59  1  0  0  0
 34110  1  0  0  0
 35 44  2  0  0  0
 35 45  1  0  0  0
 35 68  1  0  0  0
 36 56  1  0  0  0
 36111  1  0  0  0
 37 39  1  0  0  0
 37 47  1  0  0  0
 37 66  1  0  0  0
 37112  1  0  0  0
 38 43  2  0  0  0
 38 46  1  0  0  0
 38 47  1  0  0  0
 39 64  1  0  0  0
 39 67  2  0  0  0
 40 52  1  0  0  0
 40 53  2  0  0  0
 40 58  1  0  0  0
 41113  1  0  0  0
 41114  1  0  0  0
 41115  1  0  0  0
 41 48  1  0  0  0
 42 43  1  0  0  0
 42 66  1  0  0  0
 42116  1  0  0  0
 42117  1  0  0  0
 43 44  1  0  0  0
 44118  1  0  0  0
 45 46  2  0  0  0
 45119  1  0  0  0
 46120  1  0  0  0
 47121  1  0  0  0
 47122  1  0  0  0
 48 56  1  0  0  0
 48 65  1  0  0  0
 48123  1  0  0  0
 49 50  1  0  0  0
 49 53  1  0  0  0
 49 64  1  0  0  0
 49124  1  0  0  0
 50 51  1  0  0  0
 50125  1  0  0  0
 50126  1  0  0  0
 51 52  1  0  0  0
 51127  1  0  0  0
 51128  1  0  0  0
 52129  1  0  0  0
 52130  1  0  0  0
 53 54  1  0  0  0
 54 55  2  0  0  0
 54131  1  0  0  0
 55 57  1  0  0  0
 55132  1  0  0  0
 56 69  2  0  0  0
 57 58  2  0  0  0
 57133  1  0  0  0
 58134  1  0  0  0
 59 60  1  0  0  0
 59 61  1  0  0  0
 59 62  1  0  0  0
 60135  1  0  0  0
 60136  1  0  0  0
 60137  1  0  0  0
 61138  1  0  0  0
 61139  1  0  0  0
 61140  1  0  0  0
 62141  1  0  0  0
 62142  1  0  0  0
 62143  1  0  0  0
 63 65  1  0  0  0
 63144  1  0  0  0
 63145  1  0  0  0
 63146  1  0  0  0
 64147  1  0  0  0
 65148  1  0  0  0
 68 85  1  0  0  0
 71 73  2  0  0  0
 71 74  1  0  0  0
 71149  1  0  0  0
 72 75  2  0  0  0
 72 76  1  0  0  0
 72150  1  0  0  0
 73 75  1  0  0  0
 73 85  1  0  0  0
 74 76  2  0  0  0
 74 86  1  0  0  0
 75 82  1  0  0  0
 76 88  1  0  0  0
 77 79  1  0  0  0
 77 81  1  0  0  0
 77151  1  0  0  0
 77152  1  0  0  0
 78 80  1  0  0  0
 78 81  1  0  0  0
 78153  1  0  0  0
 78154  1  0  0  0
 79 87  1  0  0  0
 79155  1  0  0  0
 79156  1  0  0  0
 80 87  1  0  0  0
 80157  1  0  0  0
 80158  1  0  0  0
 81 88  1  0  0  0
 81159  1  0  0  0
 82160  1  0  0  0
 82161  1  0  0  0
 82162  1  0  0  0
 83163  1  0  0  0
 83164  1  0  0  0
 83165  1  0  0  0
 83 86  1  0  0  0
 84 89  1  0  0  0
 84166  1  0  0  0
 84167  1  0  0  0
 84168  1  0  0  0
 85169  1  0  0  0
 85170  1  0  0  0
 86 89  1  0  0  0
 86171  1  0  0  0
M  ISO  4   1 100  68 101  85 101  87 100
M  END
> <chiral flag>
0

> <version>
0

> <s_m_source_file>
/data/baiqing/PycharmProjects/Reinvent-master-3.2/result/LINK_invent/BTK/process_docking_weight1_custom_sum_contain_oxygen_bond_distance_aromatic_linkinvent_7_9_3/rearranged_h_0156.sdf

> <i_m_source_file_index>
52

> <r_mmod_Potential_Energy-OPLS-2005>
342.293151855469

> <r_mmod_Stretch_Energy-OPLS-2005>
68.021598815918

> <r_mmod_Bend_Energy-OPLS-2005>
174.052734375

> <r_mmod_Torsional_Energy-OPLS-2005>
342.201202392578

> <r_mmod_Improper_Torsional_Energy-OPLS-2005>
12.8776206970215

> <r_mmod_Van_der_Waal_Energy-OPLS-2005>
177.161926269531

> <r_mmod_Electrostatic_Energy-OPLS-2005>
-277.968627929688

> <r_mmod_Solvation_Energy-OPLS-2005>
-199.670181274414

> <b_mmod_Minimization_Converged-OPLS-2005>
0

> <r_mmod_RMS_Derivative-OPLS-2005>
2.21661329269409

$$$$
52
                    3D
 Structure written by MMmdl.
160168  0  0  1  0            999 V2000
  -30.6589  -14.7031   20.4078 C   0  0  0  0  0  0
  -30.4369  -12.4132   19.4725 C   0  0  0  0  0  0
  -29.5115  -12.4527   18.2412 C   0  0  0  0  0  0
  -28.0351  -12.3071   18.6566 C   0  0  0  0  0  0
  -27.6378  -13.2223   19.8451 C   0  0  2  0  0  0
  -28.6922  -13.1893   20.9704 C   0  0  0  0  0  0
  -25.2486  -13.8173   20.5719 C   0  0  0  0  0  0
  -24.1740  -13.0428   20.9214 C   0  0  0  0  0  0
  -24.6339  -11.6914   20.8771 C   0  0  0  0  0  0
  -23.9023  -10.4280   21.0444 C   0  0  0  0  0  0
  -24.3574   -9.4171   21.9203 C   0  0  0  0  0  0
  -23.6242   -8.2203   22.0772 C   0  0  0  0  0  0
  -22.4219   -8.0248   21.3571 C   0  0  0  0  0  0
  -21.9868   -9.0225   20.4674 C   0  0  0  0  0  0
  -22.7205  -10.2109   20.3089 C   0  0  0  0  0  0
  -21.6815   -6.0693   22.5284 C   0  0  0  0  0  0
  -21.3994   -6.5610   23.8218 C   0  0  0  0  0  0
  -21.3660   -5.6771   24.9182 C   0  0  0  0  0  0
  -21.6047   -4.3038   24.7237 C   0  0  0  0  0  0
  -21.8810   -3.8120   23.4364 C   0  0  0  0  0  0
  -21.9177   -4.6925   22.3413 C   0  0  0  0  0  0
  -22.7760  -13.5230   21.1843 C   0  0  0  0  0  0
  -22.1636   -4.2106   21.0993 F   0  0  0  0  0  0
  -21.5637   -3.4542   25.7768 F   0  0  0  0  0  0
  -29.9977  -13.5002   20.3682 N   0  0  0  0  0  0
  -26.2915  -12.9356   20.3322 N   0  0  0  0  0  0
  -25.9271  -11.6520   20.5759 N   0  0  0  0  0  0
  -22.0376  -12.8275   22.0442 N   0  0  0  0  0  0
  -25.4232  -15.1861   20.4093 N   0  0  0  0  0  0
  -31.8845  -14.7496   20.2747 O   0  0  0  0  0  0
  -21.6605   -6.8829   21.4244 O   0  0  0  0  0  0
  -22.3462  -14.5519   20.6653 O   0  0  0  0  0  0
  -24.6253  -31.8583   23.1988 C   0  0  0  0  0  0
  -25.9112  -32.4754   23.8316 C   0  0  1  0  0  0
  -27.2462  -27.3243   20.1144 C   0  0  0  0  0  0
  -25.5926  -33.8544   24.2246 N   0  0  0  0  0  0
  -23.4214  -30.4748   21.5397 C   0  0  2  0  0  0
  -24.8752  -28.9148   20.1212 C   0  0  0  0  0  0
  -22.7464  -29.4648   22.4961 C   0  0  0  0  0  0
  -18.0315  -28.1345   22.8498 C   0  0  0  0  0  0
  -24.1509  -36.7271   23.2641 C   0  0  0  0  0  0
  -25.9613  -30.7863   21.3759 C   0  0  0  0  0  0
  -26.0459  -29.4129   20.7160 C   0  0  0  0  0  0
  -27.2376  -28.6299   20.6987 C   0  0  0  0  0  0
  -26.0582  -26.8717   19.5061 C   0  0  0  0  0  0
  -24.8838  -27.6480   19.5099 C   0  0  0  0  0  0
  -23.6377  -29.7877   20.1658 C   0  0  0  0  0  0
  -25.4135  -36.3033   24.0326 C   0  0  1  0  0  0
  -20.5903  -28.3664   23.1272 C   0  0  2  0  0  0
  -20.6810  -26.9403   22.5340 C   0  0  0  0  0  0
  -19.5791  -26.6414   21.5139 C   0  0  0  0  0  0
  -18.1980  -26.7909   22.1582 C   0  0  0  0  0  0
  -19.1554  -28.8816   23.2882 C   0  0  0  0  0  0
  -18.9467  -30.1414   23.8904 C   0  0  0  0  0  0
  -17.6465  -30.6546   24.0546 C   0  0  0  0  0  0
  -25.9060  -34.9415   23.5071 C   0  0  0  0  0  0
  -16.5363  -29.9026   23.6309 C   0  0  0  0  0  0
  -16.7294  -28.6422   23.0361 C   0  0  0  0  0  0
  -26.4503  -31.6589   25.0702 C   0  0  0  0  0  0
  -25.3735  -31.3777   26.1420 C   0  0  0  0  0  0
  -27.0350  -30.2989   24.6224 C   0  0  0  0  0  0
  -27.6020  -32.4383   25.7475 C   0  0  0  0  0  0
  -27.5596  -37.1765   24.8463 C   0  0  0  0  0  0
  -21.4190  -29.3072   22.3682 N   0  0  0  0  0  0
  -26.4311  -37.3736   23.9397 N   0  0  0  0  0  0
  -24.6854  -31.0563   22.0939 N   0  0  0  0  0  0
  -23.4163  -28.8229   23.3100 O   0  0  0  0  0  0
  -28.3773  -26.5064   20.0663 O   0  0  0  0  0  0
  -26.5610  -34.8879   22.4637 O   0  0  0  0  0  0
  -23.5422  -32.1427   23.7295 O   0  0  0  0  0  0
  -30.5604  -20.8300   19.7220 C   0  0  0  0  0  0
  -28.2926  -20.6553   20.4545 C   0  0  0  0  0  0
  -30.7568  -19.4244   19.9018 C   0  0  0  0  0  0
  -28.4899  -19.2530   20.6857 C   0  0  0  0  0  0
  -29.7494  -18.6026   20.4848 C   0  0  0  0  0  0
  -29.3459  -21.5038   20.0225 C   0  0  0  0  0  0
  -32.0705  -18.8191   19.4331 C   0  0  0  0  0  0
  -27.3059  -18.4625   21.1986 C   0  0  0  0  0  0
  -29.7003  -16.1363   18.7382 C   0  0  0  0  0  0
  -30.0611  -17.1229   21.0041 C   0  0  0  0  0  0
  -28.3428  -25.1805   20.7214 C   0  0  0  0  0  0
  -28.1311  -23.7894   19.9533 C   0  0  0  0  0  0
  -29.9244  -15.8618   20.1672 N   0  0  0  0  0  0
  -29.3155  -22.9151   19.8912 O   0  0  0  0  0  0
  -30.3832  -11.4498   19.9842 H   0  0  0  0  0  0
  -31.4773  -12.5362   19.1628 H   0  0  0  0  0  0
  -29.7863  -11.6627   17.5406 H   0  0  0  0  0  0
  -29.6505  -13.3925   17.7088 H   0  0  0  0  0  0
  -27.8795  -11.2641   18.9318 H   0  0  0  0  0  0
  -27.3866  -12.4913   17.8008 H   0  0  0  0  0  0
  -27.6075  -14.2355   19.4566 H   0  0  0  0  0  0
  -28.4464  -13.9196   21.7437 H   0  0  0  0  0  0
  -28.7114  -12.2103   21.4464 H   0  0  0  0  0  0
  -25.2708   -9.5584   22.4806 H   0  0  0  0  0  0
  -23.9915   -7.4567   22.7500 H   0  0  0  0  0  0
  -21.0792   -8.8736   19.8999 H   0  0  0  0  0  0
  -22.3659  -10.9637   19.6203 H   0  0  0  0  0  0
  -21.1995   -7.6126   23.9689 H   0  0  0  0  0  0
  -21.1496   -6.0531   25.9080 H   0  0  0  0  0  0
  -22.0604   -2.7583   23.2891 H   0  0  0  0  0  0
  -22.3936  -11.9978   22.4929 H   0  0  0  0  0  0
  -21.1013  -13.1380   22.2652 H   0  0  0  0  0  0
  -24.6630  -15.8512   20.4935 H   0  0  0  0  0  0
  -26.2822  -15.6019   20.0752 H   0  0  0  0  0  0
  -26.7187  -32.5354   23.1053 H   0  0  0  0  0  0
  -25.0025  -33.9695   25.0349 H   0  0  0  0  0  0
  -22.7136  -31.2872   21.3738 H   0  0  0  0  0  0
  -23.3778  -35.9605   23.3285 H   0  0  0  0  0  0
  -24.3602  -36.8873   22.2051 H   0  0  0  0  0  0
  -23.7254  -37.6460   23.6679 H   0  0  0  0  0  0
  -26.1097  -31.5641   20.6250 H   0  0  0  0  0  0
  -26.8337  -30.8221   22.0159 H   0  0  0  0  0  0
  -28.1420  -29.0153   21.1521 H   0  0  0  0  0  0
  -26.0441  -25.9027   19.0244 H   0  0  0  0  0  0
  -23.9877  -27.2642   19.0404 H   0  0  0  0  0  0
  -23.7466  -30.5458   19.3901 H   0  0  0  0  0  0
  -22.7648  -29.1983   19.8843 H   0  0  0  0  0  0
  -25.1329  -36.1876   25.0832 H   0  0  0  0  0  0
  -21.0010  -28.3199   24.1382 H   0  0  0  0  0  0
  -20.5725  -26.2268   23.3510 H   0  0  0  0  0  0
  -21.6674  -26.7467   22.1114 H   0  0  0  0  0  0
  -19.6972  -25.6357   21.1080 H   0  0  0  0  0  0
  -19.6692  -27.3269   20.6700 H   0  0  0  0  0  0
  -17.4243  -26.6662   21.3981 H   0  0  0  0  0  0
  -18.0406  -26.0016   22.8950 H   0  0  0  0  0  0
  -19.7926  -30.7225   24.2298 H   0  0  0  0  0  0
  -17.4989  -31.6219   24.5137 H   0  0  0  0  0  0
  -15.5346  -30.2893   23.7629 H   0  0  0  0  0  0
  -15.8711  -28.0678   22.7132 H   0  0  0  0  0  0
  -24.5863  -30.7207   25.7736 H   0  0  0  0  0  0
  -24.9021  -32.2976   26.4852 H   0  0  0  0  0  0
  -25.8044  -30.8909   27.0173 H   0  0  0  0  0  0
  -26.2927  -29.6700   24.1306 H   0  0  0  0  0  0
  -27.3962  -29.7291   25.4793 H   0  0  0  0  0  0
  -27.8839  -30.4208   23.9491 H   0  0  0  0  0  0
  -27.2559  -33.3650   26.2078 H   0  0  0  0  0  0
  -28.3812  -32.7020   25.0310 H   0  0  0  0  0  0
  -28.0732  -31.8529   26.5362 H   0  0  0  0  0  0
  -28.2604  -38.0076   24.7517 H   0  0  0  0  0  0
  -28.1105  -36.2592   24.6301 H   0  0  0  0  0  0
  -27.2277  -37.1399   25.8855 H   0  0  0  0  0  0
  -20.9411  -29.8694   21.6778 H   0  0  0  0  0  0
  -26.0187  -38.2824   24.1354 H   0  0  0  0  0  0
  -31.3889  -21.4151   19.3464 H   0  0  0  0  0  0
  -27.3196  -21.0790   20.6624 H   0  0  0  0  0  0
  -32.6705  -19.5610   18.9040 H   0  0  0  0  0  0
  -31.8589  -18.0161   18.7260 H   0  0  0  0  0  0
  -32.6614  -18.4033   20.2463 H   0  0  0  0  0  0
  -27.3558  -18.3747   22.2809 H   0  0  0  0  0  0
  -27.2637  -17.4657   20.7584 H   0  0  0  0  0  0
  -26.3785  -18.9822   20.9547 H   0  0  0  0  0  0
  -29.5220  -17.1797   18.4909 H   0  0  0  0  0  0
  -28.8309  -15.6001   18.3792 H   0  0  0  0  0  0
  -30.5533  -15.8297   18.1286 H   0  0  0  0  0  0
  -29.4428  -16.9708   21.8920 H   0  0  0  0  0  0
  -31.0693  -17.1572   21.4187 H   0  0  0  0  0  0
  -29.2998  -25.1055   21.2371 H   0  0  0  0  0  0
  -27.6142  -25.2388   21.5309 H   0  0  0  0  0  0
  -27.8038  -24.0089   18.9370 H   0  0  0  0  0  0
  -27.2905  -23.2658   20.4143 H   0  0  0  0  0  0
  1 25  1  0  0  0
  1 30  2  0  0  0
  1 83  1  0  0  0
  2  3  1  0  0  0
  2 25  1  0  0  0
  2 85  1  0  0  0
  2 86  1  0  0  0
  3  4  1  0  0  0
  3 87  1  0  0  0
  3 88  1  0  0  0
  4  5  1  0  0  0
  4 89  1  0  0  0
  4 90  1  0  0  0
  5  6  1  0  0  0
  5 26  1  0  0  0
  5 91  1  0  0  0
  6 25  1  0  0  0
  6 92  1  0  0  0
  6 93  1  0  0  0
  7  8  2  0  0  0
  7 26  1  0  0  0
  7 29  1  0  0  0
  8  9  1  0  0  0
  8 22  1  0  0  0
  9 10  1  0  0  0
  9 27  2  0  0  0
 10 11  2  0  0  0
 10 15  1  0  0  0
 11 12  1  0  0  0
 11 94  1  0  0  0
 12 13  2  0  0  0
 12 95  1  0  0  0
 13 14  1  0  0  0
 13 31  1  0  0  0
 14 15  2  0  0  0
 14 96  1  0  0  0
 15 97  1  0  0  0
 16 17  2  0  0  0
 16 21  1  0  0  0
 16 31  1  0  0  0
 17 18  1  0  0  0
 17 98  1  0  0  0
 18 19  2  0  0  0
 18 99  1  0  0  0
 19 20  1  0  0  0
 19 24  1  0  0  0
 20 21  2  0  0  0
 20100  1  0  0  0
 21 23  1  0  0  0
 22 28  1  0  0  0
 22 32  2  0  0  0
 26 27  1  0  0  0
 28101  1  0  0  0
 28102  1  0  0  0
 29103  1  0  0  0
 29104  1  0  0  0
 33 34  1  0  0  0
 33 66  1  0  0  0
 33 70  2  0  0  0
 34 36  1  0  0  0
 34 59  1  0  0  0
 34105  1  0  0  0
 35 44  2  0  0  0
 35 45  1  0  0  0
 35 68  1  0  0  0
 36 56  1  0  0  0
 36106  1  0  0  0
 37 39  1  0  0  0
 37 47  1  0  0  0
 37 66  1  0  0  0
 37107  1  0  0  0
 38 43  2  0  0  0
 38 46  1  0  0  0
 38 47  1  0  0  0
 39 64  1  0  0  0
 39 67  2  0  0  0
 40 52  1  0  0  0
 40 53  2  0  0  0
 40 58  1  0  0  0
 41108  1  0  0  0
 41109  1  0  0  0
 41110  1  0  0  0
 41 48  1  0  0  0
 42 43  1  0  0  0
 42 66  1  0  0  0
 42111  1  0  0  0
 42112  1  0  0  0
 43 44  1  0  0  0
 44113  1  0  0  0
 45 46  2  0  0  0
 45114  1  0  0  0
 46115  1  0  0  0
 47116  1  0  0  0
 47117  1  0  0  0
 48 56  1  0  0  0
 48 65  1  0  0  0
 48118  1  0  0  0
 49 50  1  0  0  0
 49 53  1  0  0  0
 49 64  1  0  0  0
 49119  1  0  0  0
 50 51  1  0  0  0
 50120  1  0  0  0
 50121  1  0  0  0
 51 52  1  0  0  0
 51122  1  0  0  0
 51123  1  0  0  0
 52124  1  0  0  0
 52125  1  0  0  0
 53 54  1  0  0  0
 54 55  2  0  0  0
 54126  1  0  0  0
 55 57  1  0  0  0
 55127  1  0  0  0
 56 69  2  0  0  0
 57 58  2  0  0  0
 57128  1  0  0  0
 58129  1  0  0  0
 59 60  1  0  0  0
 59 61  1  0  0  0
 59 62  1  0  0  0
 60130  1  0  0  0
 60131  1  0  0  0
 60132  1  0  0  0
 61133  1  0  0  0
 61134  1  0  0  0
 61135  1  0  0  0
 62136  1  0  0  0
 62137  1  0  0  0
 62138  1  0  0  0
 63 65  1  0  0  0
 63139  1  0  0  0
 63140  1  0  0  0
 63141  1  0  0  0
 64142  1  0  0  0
 65143  1  0  0  0
 68 81  1  0  0  0
 71 73  2  0  0  0
 71 76  1  0  0  0
 71144  1  0  0  0
 72 74  1  0  0  0
 72 76  2  0  0  0
 72145  1  0  0  0
 73 75  1  0  0  0
 73 77  1  0  0  0
 74 75  2  0  0  0
 74 78  1  0  0  0
 75 80  1  0  0  0
 76 84  1  0  0  0
 77146  1  0  0  0
 77147  1  0  0  0
 77148  1  0  0  0
 78149  1  0  0  0
 78150  1  0  0  0
 78151  1  0  0  0
 79 83  1  0  0  0
 79152  1  0  0  0
 79153  1  0  0  0
 79154  1  0  0  0
 80 83  1  0  0  0
 80155  1  0  0  0
 80156  1  0  0  0
 81 82  1  0  0  0
 81157  1  0  0  0
 81158  1  0  0  0
 82 84  1  0  0  0
 82159  1  0  0  0
 82160  1  0  0  0
M  ISO  4   1 100  68 101  81 101  83 100
M  END
> <chiral flag>
0

> <version>
0

> <s_m_source_file>
/data/baiqing/PycharmProjects/Reinvent-master-3.2/result/LINK_invent/BTK/process_docking_weight1_custom_sum_contain_oxygen_bond_distance_aromatic_linkinvent_7_9_3/rearranged_h_0156.sdf

> <i_m_source_file_index>
53

> <r_mmod_Potential_Energy-OPLS-2005>
301.081817626953

> <r_mmod_Stretch_Energy-OPLS-2005>
94.1414489746094

> <r_mmod_Bend_Energy-OPLS-2005>
179.830154418945

> <r_mmod_Torsional_Energy-OPLS-2005>
324.863983154297

> <r_mmod_Improper_Torsional_Energy-OPLS-2005>
15.452488899231

> <r_mmod_Van_der_Waal_Energy-OPLS-2005>
137.453079223633

> <r_mmod_Electrostatic_Energy-OPLS-2005>
-321.884002685547

> <r_mmod_Solvation_Energy-OPLS-2005>
-197.372467041016

> <b_mmod_Minimization_Converged-OPLS-2005>
0

> <r_mmod_RMS_Derivative-OPLS-2005>
6.71933174133301

$$$$
53
                    3D
 Structure written by MMmdl.
166175  0  0  1  0            999 V2000
  -30.5425  -15.1775   20.3740 C   0  0  0  0  0  0
  -30.4212  -12.7534   19.5169 C   0  0  0  0  0  0
  -29.5236  -12.5582   18.2748 C   0  0  0  0  0  0
  -28.0735  -12.2930   18.7107 C   0  0  0  0  0  0
  -27.6092  -13.2729   19.8180 C   0  0  2  0  0  0
  -28.6445  -13.4643   20.9475 C   0  0  0  0  0  0
  -25.2390  -13.8242   20.5744 C   0  0  0  0  0  0
  -24.1736  -13.0435   20.9236 C   0  0  0  0  0  0
  -24.6388  -11.6933   20.8755 C   0  0  0  0  0  0
  -23.9083  -10.4296   21.0415 C   0  0  0  0  0  0
  -24.3638   -9.4205   21.9194 C   0  0  0  0  0  0
  -23.6291   -8.2252   22.0766 C   0  0  0  0  0  0
  -22.4272   -8.0307   21.3569 C   0  0  0  0  0  0
  -21.9914   -9.0272   20.4667 C   0  0  0  0  0  0
  -22.7257  -10.2140   20.3058 C   0  0  0  0  0  0
  -21.6860   -6.0744   22.5290 C   0  0  0  0  0  0
  -21.4042   -6.5649   23.8224 C   0  0  0  0  0  0
  -21.3655   -5.6796   24.9182 C   0  0  0  0  0  0
  -21.6031   -4.3058   24.7230 C   0  0  0  0  0  0
  -21.8809   -3.8151   23.4348 C   0  0  0  0  0  0
  -21.9187   -4.6976   22.3407 C   0  0  0  0  0  0
  -22.7758  -13.5197   21.1901 C   0  0  0  0  0  0
  -22.1654   -4.2158   21.0986 F   0  0  0  0  0  0
  -21.5614   -3.4533   25.7733 F   0  0  0  0  0  0
  -29.8885  -13.9214   20.3086 N   0  0  0  0  0  0
  -26.2812  -12.9511   20.3221 N   0  0  0  0  0  0
  -25.9329  -11.6617   20.5728 N   0  0  0  0  0  0
  -22.0401  -12.8192   22.0453 N   0  0  0  0  0  0
  -25.4054  -15.1980   20.4252 N   0  0  0  0  0  0
  -31.7676  -15.0786   20.2171 O   0  0  0  0  0  0
  -21.6643   -6.8893   21.4255 O   0  0  0  0  0  0
  -22.3441  -14.5496   20.6734 O   0  0  0  0  0  0
  -24.6604  -31.8260   23.1742 C   0  0  0  0  0  0
  -25.9294  -32.4596   23.8203 C   0  0  1  0  0  0
  -27.2177  -26.9664   20.1722 C   0  0  0  0  0  0
  -25.5972  -33.8414   24.2108 N   0  0  0  0  0  0
  -23.4740  -30.4404   21.5201 C   0  0  2  0  0  0
  -24.9256  -28.8326   20.1100 C   0  0  0  0  0  0
  -22.7661  -29.4450   22.4762 C   0  0  0  0  0  0
  -18.0326  -28.1410   22.8444 C   0  0  0  0  0  0
  -24.1495  -36.7233   23.2643 C   0  0  0  0  0  0
  -26.0413  -30.6420   21.4004 C   0  0  0  0  0  0
  -26.1063  -29.2369   20.7434 C   0  0  0  0  0  0
  -27.2477  -28.3219   20.7544 C   0  0  0  0  0  0
  -26.0125  -26.7079   19.4838 C   0  0  0  0  0  0
  -24.8995  -27.5863   19.4635 C   0  0  0  0  0  0
  -23.7128  -29.7596   20.1445 C   0  0  0  0  0  0
  -25.4128  -36.2980   24.0306 C   0  0  1  0  0  0
  -20.5947  -28.3752   23.1174 C   0  0  2  0  0  0
  -20.6799  -26.9430   22.5388 C   0  0  0  0  0  0
  -19.5774  -26.6365   21.5201 C   0  0  0  0  0  0
  -18.1960  -26.7939   22.1607 C   0  0  0  0  0  0
  -19.1583  -28.8898   23.2800 C   0  0  0  0  0  0
  -18.9496  -30.1486   23.8841 C   0  0  0  0  0  0
  -17.6486  -30.6587   24.0558 C   0  0  0  0  0  0
  -25.9081  -34.9354   23.5028 C   0  0  0  0  0  0
  -16.5381  -29.9078   23.6332 C   0  0  0  0  0  0
  -16.7306  -28.6507   23.0337 C   0  0  0  0  0  0
  -26.4545  -31.6535   25.0726 C   0  0  0  0  0  0
  -25.3689  -31.3804   26.1403 C   0  0  0  0  0  0
  -27.0423  -30.2892   24.6463 C   0  0  0  0  0  0
  -27.6039  -32.4344   25.7518 C   0  0  0  0  0  0
  -27.5585  -37.1765   24.8455 C   0  0  0  0  0  0
  -21.4325  -29.3056   22.3529 N   0  0  0  0  0  0
  -26.4276  -37.3712   23.9417 N   0  0  0  0  0  0
  -24.7463  -30.9963   22.0857 N   0  0  0  0  0  0
  -23.4220  -28.8002   23.2978 O   0  0  0  0  0  0
  -28.2353  -25.8927   20.2785 O   0  0  0  0  0  0
  -26.5687  -34.8881   22.4618 O   0  0  0  0  0  0
  -23.5674  -32.1210   23.6851 O   0  0  0  0  0  0
  -28.8561  -23.8051   18.6892 C   0  0  0  0  0  0
  -28.4552  -22.8565   20.8484 C   0  0  0  0  0  0
  -28.8650  -17.2513   19.7061 C   0  0  0  0  0  0
  -30.8544  -17.7345   20.8697 C   0  0  0  0  0  0
  -28.3890  -18.8577   19.8951 C   0  0  0  0  0  0
  -30.3266  -19.2737   21.1721 C   0  0  0  0  0  0
  -28.9716  -22.2063   18.5996 C   0  0  2  0  0  0
  -29.2612  -21.6197   20.0177 C   0  0  2  0  0  0
  -28.1055  -24.2906   19.9714 C   0  0  1  0  0  0
  -29.5282  -22.1410   16.0873 C   0  0  0  0  0  0
  -31.4328  -22.0703   17.7432 C   0  0  0  0  0  0
  -29.9543  -21.7047   17.4990 C   0  0  0  0  0  0
  -29.9633  -16.5373   20.5109 N   0  0  0  0  0  0
  -29.4182  -19.9608   20.1640 N   0  3  0  0  0  0
  -31.4504  -12.9094   19.1921 H   0  0  0  0  0  0
  -30.4413  -11.8482   20.1245 H   0  0  0  0  0  0
  -29.8893  -11.7347   17.6586 H   0  0  0  0  0  0
  -29.5665  -13.4525   17.6515 H   0  0  0  0  0  0
  -28.0294  -11.2690   19.0825 H   0  0  0  0  0  0
  -27.4007  -12.3379   17.8545 H   0  0  0  0  0  0
  -27.5187  -14.2341   19.3117 H   0  0  0  0  0  0
  -28.7914  -12.5460   21.5190 H   0  0  0  0  0  0
  -28.2949  -14.2232   21.6507 H   0  0  0  0  0  0
  -25.2789   -9.5666   22.4757 H   0  0  0  0  0  0
  -24.0000   -7.4635   22.7475 H   0  0  0  0  0  0
  -21.0850   -8.8791   19.8967 H   0  0  0  0  0  0
  -22.3729  -10.9677   19.6159 H   0  0  0  0  0  0
  -21.2069   -7.6168   23.9732 H   0  0  0  0  0  0
  -21.1481   -6.0537   25.9085 H   0  0  0  0  0  0
  -22.0585   -2.7618   23.2848 H   0  0  0  0  0  0
  -22.4019  -11.9883   22.4893 H   0  0  0  0  0  0
  -21.1021  -13.1246   22.2625 H   0  0  0  0  0  0
  -24.6414  -15.8508   20.5565 H   0  0  0  0  0  0
  -26.2620  -15.6430   20.1245 H   0  0  0  0  0  0
  -26.7369  -32.5139   23.0926 H   0  0  0  0  0  0
  -25.0098  -33.9496   25.0244 H   0  0  0  0  0  0
  -22.7867  -31.2728   21.3516 H   0  0  0  0  0  0
  -23.3763  -35.9556   23.3243 H   0  0  0  0  0  0
  -24.3586  -36.8936   22.2071 H   0  0  0  0  0  0
  -23.7233  -37.6399   23.6727 H   0  0  0  0  0  0
  -26.2222  -31.3835   20.6213 H   0  0  0  0  0  0
  -26.9030  -30.6954   22.0541 H   0  0  0  0  0  0
  -28.1390  -28.6238   21.2843 H   0  0  0  0  0  0
  -25.8873  -25.7645   18.9752 H   0  0  0  0  0  0
  -24.0017  -27.2687   18.9530 H   0  0  0  0  0  0
  -23.8792  -30.5323   19.3936 H   0  0  0  0  0  0
  -22.8226  -29.2211   19.8147 H   0  0  0  0  0  0
  -25.1313  -36.1796   25.0794 H   0  0  0  0  0  0
  -21.0038  -28.3366   24.1297 H   0  0  0  0  0  0
  -20.5662  -26.2380   23.3638 H   0  0  0  0  0  0
  -21.6669  -26.7396   22.1213 H   0  0  0  0  0  0
  -19.6938  -25.6257   21.1278 H   0  0  0  0  0  0
  -19.6721  -27.3133   20.6702 H   0  0  0  0  0  0
  -17.4225  -26.6661   21.4024 H   0  0  0  0  0  0
  -18.0371  -26.0107   22.9027 H   0  0  0  0  0  0
  -19.7967  -30.7324   24.2189 H   0  0  0  0  0  0
  -17.5033  -31.6256   24.5181 H   0  0  0  0  0  0
  -15.5378  -30.2967   23.7680 H   0  0  0  0  0  0
  -15.8710  -28.0820   22.7063 H   0  0  0  0  0  0
  -24.5844  -30.7175   25.7740 H   0  0  0  0  0  0
  -24.8913  -32.3015   26.4750 H   0  0  0  0  0  0
  -25.7933  -30.9023   27.0241 H   0  0  0  0  0  0
  -26.3076  -29.6568   24.1469 H   0  0  0  0  0  0
  -27.3930  -29.7268   25.5127 H   0  0  0  0  0  0
  -27.9036  -30.4052   23.9885 H   0  0  0  0  0  0
  -27.2598  -33.3673   26.1997 H   0  0  0  0  0  0
  -28.3896  -32.6864   25.0383 H   0  0  0  0  0  0
  -28.0659  -31.8547   26.5518 H   0  0  0  0  0  0
  -28.2547  -38.0109   24.7527 H   0  0  0  0  0  0
  -28.1126  -36.2637   24.6231 H   0  0  0  0  0  0
  -27.2314  -37.1356   25.8855 H   0  0  0  0  0  0
  -20.9578  -29.8805   21.6712 H   0  0  0  0  0  0
  -26.0134  -38.2770   24.1424 H   0  0  0  0  0  0
  -28.3708  -24.2083   17.8002 H   0  0  0  0  0  0
  -29.8547  -24.2387   18.7130 H   0  0  0  0  0  0
  -29.0198  -23.1081   21.7469 H   0  0  0  0  0  0
  -27.5099  -22.4519   21.2103 H   0  0  0  0  0  0
  -29.1819  -17.1458   18.6677 H   0  0  0  0  0  0
  -27.9694  -16.6335   19.7751 H   0  0  0  0  0  0
  -31.4498  -17.4291   21.7326 H   0  0  0  0  0  0
  -31.5780  -17.8089   20.0553 H   0  0  0  0  0  0
  -27.6855  -18.8956   20.7269 H   0  0  0  0  0  0
  -27.8119  -19.1491   19.0169 H   0  0  0  0  0  0
  -31.2033  -19.9094   21.3060 H   0  0  0  0  0  0
  -29.8119  -19.2836   22.1350 H   0  0  0  0  0  0
  -27.9780  -21.8430   18.3310 H   0  0  0  0  0  0
  -30.2916  -21.9032   20.2288 H   0  0  0  0  0  0
  -27.0465  -24.1610   19.7561 H   0  0  0  0  0  0
  -28.4871  -21.8890   15.8850 H   0  0  0  0  0  0
  -30.1332  -21.6385   15.3295 H   0  0  0  0  0  0
  -29.6466  -23.2148   15.9391 H   0  0  0  0  0  0
  -31.8288  -21.6138   18.6497 H   0  0  0  0  0  0
  -31.5869  -23.1467   17.8181 H   0  0  0  0  0  0
  -32.0598  -21.7209   16.9212 H   0  0  0  0  0  0
  -29.8989  -20.6151   17.4948 H   0  0  0  0  0  0
  -29.9899  -19.8443   19.3408 H   0  0  0  0  0  0
  1 25  1  0  0  0
  1 30  2  0  0  0
  1 83  1  0  0  0
  2  3  1  0  0  0
  2 25  1  0  0  0
  2 85  1  0  0  0
  2 86  1  0  0  0
  3  4  1  0  0  0
  3 87  1  0  0  0
  3 88  1  0  0  0
  4  5  1  0  0  0
  4 89  1  0  0  0
  4 90  1  0  0  0
  5  6  1  0  0  0
  5 26  1  0  0  0
  5 91  1  0  0  0
  6 25  1  0  0  0
  6 92  1  0  0  0
  6 93  1  0  0  0
  7  8  2  0  0  0
  7 26  1  0  0  0
  7 29  1  0  0  0
  8  9  1  0  0  0
  8 22  1  0  0  0
  9 10  1  0  0  0
  9 27  2  0  0  0
 10 11  2  0  0  0
 10 15  1  0  0  0
 11 12  1  0  0  0
 11 94  1  0  0  0
 12 13  2  0  0  0
 12 95  1  0  0  0
 13 14  1  0  0  0
 13 31  1  0  0  0
 14 15  2  0  0  0
 14 96  1  0  0  0
 15 97  1  0  0  0
 16 17  2  0  0  0
 16 21  1  0  0  0
 16 31  1  0  0  0
 17 18  1  0  0  0
 17 98  1  0  0  0
 18 19  2  0  0  0
 18 99  1  0  0  0
 19 20  1  0  0  0
 19 24  1  0  0  0
 20 21  2  0  0  0
 20100  1  0  0  0
 21 23  1  0  0  0
 22 28  1  0  0  0
 22 32  2  0  0  0
 26 27  1  0  0  0
 28101  1  0  0  0
 28102  1  0  0  0
 29103  1  0  0  0
 29104  1  0  0  0
 33 34  1  0  0  0
 33 66  1  0  0  0
 33 70  2  0  0  0
 34 36  1  0  0  0
 34 59  1  0  0  0
 34105  1  0  0  0
 35 44  2  0  0  0
 35 45  1  0  0  0
 35 68  1  0  0  0
 36 56  1  0  0  0
 36106  1  0  0  0
 37 39  1  0  0  0
 37 47  1  0  0  0
 37 66  1  0  0  0
 37107  1  0  0  0
 38 43  2  0  0  0
 38 46  1  0  0  0
 38 47  1  0  0  0
 39 64  1  0  0  0
 39 67  2  0  0  0
 40 52  1  0  0  0
 40 53  2  0  0  0
 40 58  1  0  0  0
 41108  1  0  0  0
 41109  1  0  0  0
 41110  1  0  0  0
 41 48  1  0  0  0
 42 43  1  0  0  0
 42 66  1  0  0  0
 42111  1  0  0  0
 42112  1  0  0  0
 43 44  1  0  0  0
 44113  1  0  0  0
 45 46  2  0  0  0
 45114  1  0  0  0
 46115  1  0  0  0
 47116  1  0  0  0
 47117  1  0  0  0
 48 56  1  0  0  0
 48 65  1  0  0  0
 48118  1  0  0  0
 49 50  1  0  0  0
 49 53  1  0  0  0
 49 64  1  0  0  0
 49119  1  0  0  0
 50 51  1  0  0  0
 50120  1  0  0  0
 50121  1  0  0  0
 51 52  1  0  0  0
 51122  1  0  0  0
 51123  1  0  0  0
 52124  1  0  0  0
 52125  1  0  0  0
 53 54  1  0  0  0
 54 55  2  0  0  0
 54126  1  0  0  0
 55 57  1  0  0  0
 55127  1  0  0  0
 56 69  2  0  0  0
 57 58  2  0  0  0
 57128  1  0  0  0
 58129  1  0  0  0
 59 60  1  0  0  0
 59 61  1  0  0  0
 59 62  1  0  0  0
 60130  1  0  0  0
 60131  1  0  0  0
 60132  1  0  0  0
 61133  1  0  0  0
 61134  1  0  0  0
 61135  1  0  0  0
 62136  1  0  0  0
 62137  1  0  0  0
 62138  1  0  0  0
 63 65  1  0  0  0
 63139  1  0  0  0
 63140  1  0  0  0
 63141  1  0  0  0
 64142  1  0  0  0
 65143  1  0  0  0
 68 79  1  0  0  0
 71 79  1  0  0  0
 71144  1  0  0  0
 71145  1  0  0  0
 71 77  1  0  0  0
 72 79  1  0  0  0
 72146  1  0  0  0
 72147  1  0  0  0
 72 78  1  0  0  0
 73 75  1  0  0  0
 73 83  1  0  0  0
 73148  1  0  0  0
 73149  1  0  0  0
 74 76  1  0  0  0
 74 83  1  0  0  0
 74150  1  0  0  0
 74151  1  0  0  0
 75152  1  0  0  0
 75153  1  0  0  0
 75 84  1  0  0  0
 76 84  1  0  0  0
 76154  1  0  0  0
 76155  1  0  0  0
 77 78  1  0  0  0
 77 82  1  0  0  0
 77156  1  0  0  0
 78 84  1  0  0  0
 78157  1  0  0  0
 79158  1  0  0  0
 80159  1  0  0  0
 80160  1  0  0  0
 80161  1  0  0  0
 80 82  1  0  0  0
 81 82  1  0  0  0
 81162  1  0  0  0
 81163  1  0  0  0
 81164  1  0  0  0
 82165  1  0  0  0
 84166  1  0  0  0
M  CHG  1  84   1
M  ISO  4   1 100  68 101  79 101  83 100
M  END
> <chiral flag>
0

> <version>
0

> <s_m_source_file>
/data/baiqing/PycharmProjects/Reinvent-master-3.2/result/LINK_invent/BTK/process_docking_weight1_custom_sum_contain_oxygen_bond_distance_aromatic_linkinvent_7_9_3/rearranged_h_0156.sdf

> <i_m_source_file_index>
54

> <r_mmod_Potential_Energy-OPLS-2005>
1280.70642089844

> <r_mmod_Stretch_Energy-OPLS-2005>
433.498382568359

> <r_mmod_Bend_Energy-OPLS-2005>
548.267272949219

> <r_mmod_Torsional_Energy-OPLS-2005>
441.618011474609

> <r_mmod_Improper_Torsional_Energy-OPLS-2005>
5.03258371353149

> <r_mmod_Van_der_Waal_Energy-OPLS-2005>
107.140594482422

> <r_mmod_Electrostatic_Energy-OPLS-2005>
-198.891403198242

> <r_mmod_Solvation_Energy-OPLS-2005>
-440.644470214844

> <b_mmod_Minimization_Converged-OPLS-2005>
0

> <r_mmod_RMS_Derivative-OPLS-2005>
2.65181946754456

$$$$
54
                    3D
 Structure written by MMmdl.
173182  0  0  1  0            999 V2000
  -30.7371  -14.4424   20.6271 C   0  0  0  0  0  0
  -30.4294  -12.3152   19.4290 C   0  0  0  0  0  0
  -29.4974  -12.5270   18.2159 C   0  0  0  0  0  0
  -28.0209  -12.3750   18.6286 C   0  0  0  0  0  0
  -27.6669  -13.2157   19.8880 C   0  0  2  0  0  0
  -28.7067  -12.9795   21.0101 C   0  0  0  0  0  0
  -25.2562  -13.8152   20.5637 C   0  0  0  0  0  0
  -24.1832  -13.0442   20.9099 C   0  0  0  0  0  0
  -24.6375  -11.6887   20.8730 C   0  0  0  0  0  0
  -23.9087  -10.4262   21.0419 C   0  0  0  0  0  0
  -24.3597   -9.4169   21.9197 C   0  0  0  0  0  0
  -23.6231   -8.2250   22.0793 C   0  0  0  0  0  0
  -22.4224   -8.0274   21.3579 C   0  0  0  0  0  0
  -21.9885   -9.0283   20.4708 C   0  0  0  0  0  0
  -22.7264  -10.2125   20.3080 C   0  0  0  0  0  0
  -21.6858   -6.0698   22.5265 C   0  0  0  0  0  0
  -21.4031   -6.5616   23.8197 C   0  0  0  0  0  0
  -21.3656   -5.6777   24.9169 C   0  0  0  0  0  0
  -21.6035   -4.3041   24.7212 C   0  0  0  0  0  0
  -21.8845   -3.8113   23.4341 C   0  0  0  0  0  0
  -21.9179   -4.6920   22.3390 C   0  0  0  0  0  0
  -22.7833  -13.5216   21.1759 C   0  0  0  0  0  0
  -22.1660   -4.2101   21.0964 F   0  0  0  0  0  0
  -21.5599   -3.4517   25.7735 F   0  0  0  0  0  0
  -30.0493  -13.2780   20.4784 N   0  0  0  0  0  0
  -26.3043  -12.9375   20.3403 N   0  0  0  0  0  0
  -25.9312  -11.6522   20.5796 N   0  0  0  0  0  0
  -22.0481  -12.8278   22.0357 N   0  0  0  0  0  0
  -25.4309  -15.1873   20.4023 N   0  0  0  0  0  0
  -31.8018  -14.6597   20.0441 O   0  0  0  0  0  0
  -21.6630   -6.8845   21.4233 O   0  0  0  0  0  0
  -22.3535  -14.5525   20.6574 O   0  0  0  0  0  0
  -24.6075  -31.8709   23.2131 C   0  0  0  0  0  0
  -25.9015  -32.4813   23.8385 C   0  0  1  0  0  0
  -27.2160  -27.4716   20.0937 C   0  0  0  0  0  0
  -25.5924  -33.8602   24.2327 N   0  0  0  0  0  0
  -23.3914  -30.4984   21.5504 C   0  0  2  0  0  0
  -24.8333  -28.9730   20.0915 C   0  0  0  0  0  0
  -22.7337  -29.4734   22.4968 C   0  0  0  0  0  0
  -18.0257  -28.1381   22.8475 C   0  0  0  0  0  0
  -24.1492  -36.7335   23.2621 C   0  0  0  0  0  0
  -25.9113  -30.8489   21.3570 C   0  0  0  0  0  0
  -25.9893  -29.4947   20.6869 C   0  0  0  0  0  0
  -27.1871  -28.7573   20.6710 C   0  0  0  0  0  0
  -26.0589  -26.9646   19.4700 C   0  0  0  0  0  0
  -24.8644  -27.7110   19.4684 C   0  0  0  0  0  0
  -23.5922  -29.8314   20.1618 C   0  0  0  0  0  0
  -25.4103  -36.3098   24.0322 C   0  0  1  0  0  0
  -20.5827  -28.3699   23.1290 C   0  0  2  0  0  0
  -20.6734  -26.9425   22.5412 C   0  0  0  0  0  0
  -19.5764  -26.6397   21.5168 C   0  0  0  0  0  0
  -18.1938  -26.7917   22.1578 C   0  0  0  0  0  0
  -19.1497  -28.8838   23.2883 C   0  0  0  0  0  0
  -18.9455  -30.1424   23.8938 C   0  0  0  0  0  0
  -17.6473  -30.6605   24.0553 C   0  0  0  0  0  0
  -25.9032  -34.9459   23.5101 C   0  0  0  0  0  0
  -16.5357  -29.9105   23.6309 C   0  0  0  0  0  0
  -16.7238  -28.6495   23.0361 C   0  0  0  0  0  0
  -26.4458  -31.6560   25.0696 C   0  0  0  0  0  0
  -25.3769  -31.3681   26.1493 C   0  0  0  0  0  0
  -27.0272  -30.2990   24.6055 C   0  0  0  0  0  0
  -27.6050  -32.4239   25.7467 C   0  0  0  0  0  0
  -27.5581  -37.1802   24.8456 C   0  0  0  0  0  0
  -21.4065  -29.3076   22.3690 N   0  0  0  0  0  0
  -26.4293  -37.3793   23.9411 N   0  0  0  0  0  0
  -24.6548  -31.0828   22.1020 N   0  0  0  0  0  0
  -23.4117  -28.8284   23.3005 O   0  0  0  0  0  0
  -28.3228  -26.6755   20.2362 O   0  0  0  0  0  0
  -26.5577  -34.8894   22.4647 O   0  0  0  0  0  0
  -23.5305  -32.1470   23.7595 O   0  0  0  0  0  0
  -28.2336  -21.1466   21.5252 C   0  0  0  0  0  0
  -30.4353  -22.1307   21.2930 C   0  0  0  0  0  0
  -28.4782  -23.5880   21.5769 C   0  0  0  0  0  0
  -29.6249  -20.9952   21.4435 C   0  0  0  0  0  0
  -27.6509  -22.4308   21.5903 C   0  0  0  0  0  0
  -29.8852  -23.4382   21.3458 C   0  0  0  0  0  0
  -29.5814  -17.5877   20.3263 C   0  0  0  0  0  0
  -30.5446  -17.5692   22.6862 C   0  0  0  0  0  0
  -30.0603  -19.0418   20.1737 C   0  0  0  0  0  0
  -29.8758  -18.9625   22.6738 C   0  0  0  0  0  0
  -30.5047  -16.8389   21.3121 C   0  0  0  0  0  0
  -27.3640  -24.9164   23.4276 C   0  0  0  0  0  0
  -25.4701  -21.6182   22.2833 C   0  0  0  0  0  0
  -31.9552  -24.3774   20.5448 C   0  0  0  0  0  0
  -28.4715  -26.2703   21.6094 C   0  0  0  0  0  0
  -27.7761  -24.9208   21.9353 C   0  0  1  0  0  0
  -30.2094  -19.7204   21.4643 N   0  0  0  0  0  0
  -30.1526  -15.4023   21.3764 N   0  0  0  0  0  0
  -26.2813  -22.6029   21.6466 O   0  0  0  0  0  0
  -30.6984  -24.5434   21.1962 O   0  0  0  0  0  0
  -31.4754  -12.4074   19.1207 H   0  0  0  0  0  0
  -30.3282  -11.2990   19.8108 H   0  0  0  0  0  0
  -29.7383  -11.8197   17.4232 H   0  0  0  0  0  0
  -29.6525  -13.5183   17.7883 H   0  0  0  0  0  0
  -27.8367  -11.3158   18.8236 H   0  0  0  0  0  0
  -27.3681  -12.6439   17.7963 H   0  0  0  0  0  0
  -27.7182  -14.2686   19.6071 H   0  0  0  0  0  0
  -28.6735  -11.9344   21.3177 H   0  0  0  0  0  0
  -28.4632  -13.5467   21.9095 H   0  0  0  0  0  0
  -25.2760   -9.5568   22.4755 H   0  0  0  0  0  0
  -23.9907   -7.4626   22.7496 H   0  0  0  0  0  0
  -21.0836   -8.8841   19.9009 H   0  0  0  0  0  0
  -22.3787  -10.9653   19.6148 H   0  0  0  0  0  0
  -21.2104   -7.6131   23.9682 H   0  0  0  0  0  0
  -21.1446   -6.0515   25.9063 H   0  0  0  0  0  0
  -22.0629   -2.7562   23.2869 H   0  0  0  0  0  0
  -22.4133  -11.9940   22.4757 H   0  0  0  0  0  0
  -21.1117  -13.1377   22.2618 H   0  0  0  0  0  0
  -24.6652  -15.8433   20.5104 H   0  0  0  0  0  0
  -26.2905  -15.6268   20.0988 H   0  0  0  0  0  0
  -26.7057  -32.5534   23.1132 H   0  0  0  0  0  0
  -25.0146  -33.9756   25.0516 H   0  0  0  0  0  0
  -22.6818  -31.3173   21.4174 H   0  0  0  0  0  0
  -23.3741  -35.9693   23.3299 H   0  0  0  0  0  0
  -24.3606  -36.8949   22.2043 H   0  0  0  0  0  0
  -23.7250  -37.6531   23.6637 H   0  0  0  0  0  0
  -26.0248  -31.6228   20.6007 H   0  0  0  0  0  0
  -26.7986  -30.8924   21.9777 H   0  0  0  0  0  0
  -28.0762  -29.1397   21.1490 H   0  0  0  0  0  0
  -26.0725  -25.9806   19.0249 H   0  0  0  0  0  0
  -23.9748  -27.3127   18.9992 H   0  0  0  0  0  0
  -23.6823  -30.6103   19.4054 H   0  0  0  0  0  0
  -22.7169  -29.2459   19.8734 H   0  0  0  0  0  0
  -25.1264  -36.1960   25.0818 H   0  0  0  0  0  0
  -20.9910  -28.3278   24.1415 H   0  0  0  0  0  0
  -20.5603  -26.2309   23.3609 H   0  0  0  0  0  0
  -21.6622  -26.7473   22.1254 H   0  0  0  0  0  0
  -19.6961  -25.6311   21.1207 H   0  0  0  0  0  0
  -19.6696  -27.3198   20.6692 H   0  0  0  0  0  0
  -17.4178  -26.6632   21.4004 H   0  0  0  0  0  0
  -18.0398  -26.0042   22.8979 H   0  0  0  0  0  0
  -19.7962  -30.7175   24.2361 H   0  0  0  0  0  0
  -17.5075  -31.6307   24.5158 H   0  0  0  0  0  0
  -15.5384  -30.3051   23.7640 H   0  0  0  0  0  0
  -15.8617  -28.0831   22.7110 H   0  0  0  0  0  0
  -24.5950  -30.6989   25.7902 H   0  0  0  0  0  0
  -24.8987  -32.2851   26.4929 H   0  0  0  0  0  0
  -25.8203  -30.8900   27.0244 H   0  0  0  0  0  0
  -26.2838  -29.6792   24.1057 H   0  0  0  0  0  0
  -27.3970  -29.7167   25.4504 H   0  0  0  0  0  0
  -27.8693  -30.4288   23.9259 H   0  0  0  0  0  0
  -27.2680  -33.3514   26.2096 H   0  0  0  0  0  0
  -28.3857  -32.6814   25.0302 H   0  0  0  0  0  0
  -28.0717  -31.8322   26.5353 H   0  0  0  0  0  0
  -28.2560  -38.0121   24.7495 H   0  0  0  0  0  0
  -28.1090  -36.2645   24.6276 H   0  0  0  0  0  0
  -27.2312  -37.1453   25.8857 H   0  0  0  0  0  0
  -20.9211  -29.8771   21.6901 H   0  0  0  0  0  0
  -26.0182  -38.2870   24.1428 H   0  0  0  0  0  0
  -27.6307  -20.2543   21.5343 H   0  0  0  0  0  0
  -31.4975  -21.9659   21.1706 H   0  0  0  0  0  0
  -29.5882  -17.1057   19.3476 H   0  0  0  0  0  0
  -28.5427  -17.5686   20.6644 H   0  0  0  0  0  0
  -30.0760  -16.9752   23.4704 H   0  0  0  0  0  0
  -31.5850  -17.7004   22.9839 H   0  0  0  0  0  0
  -29.3899  -19.5889   19.5072 H   0  0  0  0  0  0
  -31.0381  -19.0435   19.6899 H   0  0  0  0  0  0
  -30.1801  -19.5319   23.5574 H   0  0  0  0  0  0
  -28.7952  -18.8540   22.7583 H   0  0  0  0  0  0
  -31.5167  -16.9342   20.9122 H   0  0  0  0  0  0
  -26.9267  -23.9696   23.7522 H   0  0  0  0  0  0
  -26.6299  -25.6952   23.6328 H   0  0  0  0  0  0
  -28.2237  -25.1048   24.0679 H   0  0  0  0  0  0
  -25.6873  -20.5857   22.0283 H   0  0  0  0  0  0
  -24.4348  -21.8074   21.9934 H   0  0  0  0  0  0
  -25.5370  -21.7170   23.3682 H   0  0  0  0  0  0
  -31.8504  -23.8982   19.5664 H   0  0  0  0  0  0
  -32.6444  -23.7876   21.1542 H   0  0  0  0  0  0
  -32.3994  -25.3620   20.3875 H   0  0  0  0  0  0
  -29.5007  -26.3256   21.9433 H   0  0  0  0  0  0
  -28.0175  -27.0142   22.2681 H   0  0  0  0  0  0
  -26.8437  -24.9268   21.3679 H   0  0  0  0  0  0
  -29.3248  -15.1398   21.8892 H   0  0  0  0  0  0
  1 25  1  0  0  0
  1 30  2  0  0  0
  1 88  1  0  0  0
  2  3  1  0  0  0
  2 25  1  0  0  0
  2 91  1  0  0  0
  2 92  1  0  0  0
  3  4  1  0  0  0
  3 93  1  0  0  0
  3 94  1  0  0  0
  4  5  1  0  0  0
  4 95  1  0  0  0
  4 96  1  0  0  0
  5  6  1  0  0  0
  5 26  1  0  0  0
  5 97  1  0  0  0
  6 25  1  0  0  0
  6 98  1  0  0  0
  6 99  1  0  0  0
  7  8  2  0  0  0
  7 26  1  0  0  0
  7 29  1  0  0  0
  8  9  1  0  0  0
  8 22  1  0  0  0
  9 10  1  0  0  0
  9 27  2  0  0  0
 10 11  2  0  0  0
 10 15  1  0  0  0
 11 12  1  0  0  0
 11100  1  0  0  0
 12 13  2  0  0  0
 12101  1  0  0  0
 13 14  1  0  0  0
 13 31  1  0  0  0
 14 15  2  0  0  0
 14102  1  0  0  0
 15103  1  0  0  0
 16 17  2  0  0  0
 16 21  1  0  0  0
 16 31  1  0  0  0
 17 18  1  0  0  0
 17104  1  0  0  0
 18 19  2  0  0  0
 18105  1  0  0  0
 19 20  1  0  0  0
 19 24  1  0  0  0
 20 21  2  0  0  0
 20106  1  0  0  0
 21 23  1  0  0  0
 22 28  1  0  0  0
 22 32  2  0  0  0
 26 27  1  0  0  0
 28107  1  0  0  0
 28108  1  0  0  0
 29109  1  0  0  0
 29110  1  0  0  0
 33 34  1  0  0  0
 33 66  1  0  0  0
 33 70  2  0  0  0
 34 36  1  0  0  0
 34 59  1  0  0  0
 34111  1  0  0  0
 35 44  2  0  0  0
 35 45  1  0  0  0
 35 68  1  0  0  0
 36 56  1  0  0  0
 36112  1  0  0  0
 37 39  1  0  0  0
 37 47  1  0  0  0
 37 66  1  0  0  0
 37113  1  0  0  0
 38 43  2  0  0  0
 38 46  1  0  0  0
 38 47  1  0  0  0
 39 64  1  0  0  0
 39 67  2  0  0  0
 40 52  1  0  0  0
 40 53  2  0  0  0
 40 58  1  0  0  0
 41114  1  0  0  0
 41115  1  0  0  0
 41116  1  0  0  0
 41 48  1  0  0  0
 42 43  1  0  0  0
 42 66  1  0  0  0
 42117  1  0  0  0
 42118  1  0  0  0
 43 44  1  0  0  0
 44119  1  0  0  0
 45 46  2  0  0  0
 45120  1  0  0  0
 46121  1  0  0  0
 47122  1  0  0  0
 47123  1  0  0  0
 48 56  1  0  0  0
 48 65  1  0  0  0
 48124  1  0  0  0
 49 50  1  0  0  0
 49 53  1  0  0  0
 49 64  1  0  0  0
 49125  1  0  0  0
 50 51  1  0  0  0
 50126  1  0  0  0
 50127  1  0  0  0
 51 52  1  0  0  0
 51128  1  0  0  0
 51129  1  0  0  0
 52130  1  0  0  0
 52131  1  0  0  0
 53 54  1  0  0  0
 54 55  2  0  0  0
 54132  1  0  0  0
 55 57  1  0  0  0
 55133  1  0  0  0
 56 69  2  0  0  0
 57 58  2  0  0  0
 57134  1  0  0  0
 58135  1  0  0  0
 59 60  1  0  0  0
 59 61  1  0  0  0
 59 62  1  0  0  0
 60136  1  0  0  0
 60137  1  0  0  0
 60138  1  0  0  0
 61139  1  0  0  0
 61140  1  0  0  0
 61141  1  0  0  0
 62142  1  0  0  0
 62143  1  0  0  0
 62144  1  0  0  0
 63 65  1  0  0  0
 63145  1  0  0  0
 63146  1  0  0  0
 63147  1  0  0  0
 64148  1  0  0  0
 65149  1  0  0  0
 68 85  1  0  0  0
 71 74  2  0  0  0
 71 75  1  0  0  0
 71150  1  0  0  0
 72 74  1  0  0  0
 72 76  2  0  0  0
 72151  1  0  0  0
 73 75  2  0  0  0
 73 76  1  0  0  0
 73 86  1  0  0  0
 74 87  1  0  0  0
 75 89  1  0  0  0
 76 90  1  0  0  0
 77 79  1  0  0  0
 77 81  1  0  0  0
 77152  1  0  0  0
 77153  1  0  0  0
 78 80  1  0  0  0
 78 81  1  0  0  0
 78154  1  0  0  0
 78155  1  0  0  0
 79 87  1  0  0  0
 79156  1  0  0  0
 79157  1  0  0  0
 80 87  1  0  0  0
 80158  1  0  0  0
 80159  1  0  0  0
 81 88  1  0  0  0
 81160  1  0  0  0
 82161  1  0  0  0
 82162  1  0  0  0
 82163  1  0  0  0
 82 86  1  0  0  0
 83 89  1  0  0  0
 83164  1  0  0  0
 83165  1  0  0  0
 83166  1  0  0  0
 84 90  1  0  0  0
 84167  1  0  0  0
 84168  1  0  0  0
 84169  1  0  0  0
 85 86  1  0  0  0
 85170  1  0  0  0
 85171  1  0  0  0
 86172  1  0  0  0
 88173  1  0  0  0
M  ISO  4   1 100  68 101  85 101  88 100
M  END
> <chiral flag>
0

> <version>
0

> <s_m_source_file>
/data/baiqing/PycharmProjects/Reinvent-master-3.2/result/LINK_invent/BTK/process_docking_weight1_custom_sum_contain_oxygen_bond_distance_aromatic_linkinvent_7_9_3/rearranged_h_0156.sdf

> <i_m_source_file_index>
55

> <r_mmod_Potential_Energy-OPLS-2005>
107.337287902832

> <r_mmod_Stretch_Energy-OPLS-2005>
43.6869659423828

> <r_mmod_Bend_Energy-OPLS-2005>
123.754776000977

> <r_mmod_Torsional_Energy-OPLS-2005>
309.4755859375

> <r_mmod_Improper_Torsional_Energy-OPLS-2005>
7.70211410522461

> <r_mmod_Van_der_Waal_Energy-OPLS-2005>
192.760208129883

> <r_mmod_Electrostatic_Energy-OPLS-2005>
-355.628753662109

> <r_mmod_Solvation_Energy-OPLS-2005>
-229.72102355957

> <b_mmod_Minimization_Converged-OPLS-2005>
0

> <r_mmod_RMS_Derivative-OPLS-2005>
7.24649429321289

$$$$
55
                    3D
 Structure written by MMmdl.
165174  0  0  1  0            999 V2000
  -30.6638  -14.6990   20.5346 C   0  0  0  0  0  0
  -30.4362  -12.4434   19.4767 C   0  0  0  0  0  0
  -29.5176  -12.5200   18.2380 C   0  0  0  0  0  0
  -28.0431  -12.3470   18.6503 C   0  0  0  0  0  0
  -27.6505  -13.2339   19.8614 C   0  0  2  0  0  0
  -28.6926  -13.1456   20.9989 C   0  0  0  0  0  0
  -25.2521  -13.8213   20.5691 C   0  0  0  0  0  0
  -24.1800  -13.0448   20.9167 C   0  0  0  0  0  0
  -24.6392  -11.6918   20.8723 C   0  0  0  0  0  0
  -23.9071  -10.4286   21.0386 C   0  0  0  0  0  0
  -24.3615   -9.4208   21.9167 C   0  0  0  0  0  0
  -23.6276   -8.2247   22.0745 C   0  0  0  0  0  0
  -22.4257   -8.0276   21.3555 C   0  0  0  0  0  0
  -21.9905   -9.0262   20.4659 C   0  0  0  0  0  0
  -22.7236  -10.2126   20.3043 C   0  0  0  0  0  0
  -21.6854   -6.0717   22.5278 C   0  0  0  0  0  0
  -21.4026   -6.5619   23.8208 C   0  0  0  0  0  0
  -21.3661   -5.6768   24.9160 C   0  0  0  0  0  0
  -21.6041   -4.3037   24.7219 C   0  0  0  0  0  0
  -21.8823   -3.8131   23.4332 C   0  0  0  0  0  0
  -21.9195   -4.6946   22.3395 C   0  0  0  0  0  0
  -22.7821  -13.5244   21.1817 C   0  0  0  0  0  0
  -22.1661   -4.2126   21.0983 F   0  0  0  0  0  0
  -21.5630   -3.4531   25.7724 F   0  0  0  0  0  0
  -30.0005  -13.4953   20.4282 N   0  0  0  0  0  0
  -26.2970  -12.9412   20.3295 N   0  0  0  0  0  0
  -25.9313  -11.6551   20.5714 N   0  0  0  0  0  0
  -22.0454  -12.8262   22.0369 N   0  0  0  0  0  0
  -25.4234  -15.1932   20.4144 N   0  0  0  0  0  0
  -31.8240  -14.7894   20.1220 O   0  0  0  0  0  0
  -21.6618   -6.8869   21.4237 O   0  0  0  0  0  0
  -22.3518  -14.5553   20.6661 O   0  0  0  0  0  0
  -24.6285  -31.8576   23.1980 C   0  0  0  0  0  0
  -25.9117  -32.4777   23.8324 C   0  0  1  0  0  0
  -27.2476  -27.2945   20.1522 C   0  0  0  0  0  0
  -25.5909  -33.8581   24.2249 N   0  0  0  0  0  0
  -23.4254  -30.4776   21.5392 C   0  0  2  0  0  0
  -24.8799  -28.9269   20.1136 C   0  0  0  0  0  0
  -22.7499  -29.4617   22.4917 C   0  0  0  0  0  0
  -18.0293  -28.1393   22.8491 C   0  0  0  0  0  0
  -24.1492  -36.7301   23.2635 C   0  0  0  0  0  0
  -25.9675  -30.7847   21.3727 C   0  0  0  0  0  0
  -26.0476  -29.4087   20.7171 C   0  0  0  0  0  0
  -27.2322  -28.6094   20.7184 C   0  0  0  0  0  0
  -26.0537  -26.8694   19.5199 C   0  0  0  0  0  0
  -24.8880  -27.6639   19.4992 C   0  0  0  0  0  0
  -23.6444  -29.8053   20.1577 C   0  0  0  0  0  0
  -25.4123  -36.3085   24.0321 C   0  0  1  0  0  0
  -20.5893  -28.3705   23.1278 C   0  0  2  0  0  0
  -20.6779  -26.9426   22.5414 C   0  0  0  0  0  0
  -19.5753  -26.6385   21.5218 C   0  0  0  0  0  0
  -18.1932  -26.7936   22.1632 C   0  0  0  0  0  0
  -19.1543  -28.8863   23.2873 C   0  0  0  0  0  0
  -18.9466  -30.1462   23.8896 C   0  0  0  0  0  0
  -17.6463  -30.6590   24.0563 C   0  0  0  0  0  0
  -25.9058  -34.9458   23.5085 C   0  0  0  0  0  0
  -16.5353  -29.9091   23.6324 C   0  0  0  0  0  0
  -16.7274  -28.6502   23.0350 C   0  0  0  0  0  0
  -26.4470  -31.6606   25.0723 C   0  0  0  0  0  0
  -25.3678  -31.3802   26.1440 C   0  0  0  0  0  0
  -27.0292  -30.3015   24.6212 C   0  0  0  0  0  0
  -27.6025  -32.4346   25.7487 C   0  0  0  0  0  0
  -27.5595  -37.1796   24.8461 C   0  0  0  0  0  0
  -21.4215  -29.3046   22.3668 N   0  0  0  0  0  0
  -26.4297  -37.3790   23.9403 N   0  0  0  0  0  0
  -24.6915  -31.0574   22.0947 N   0  0  0  0  0  0
  -23.4207  -28.8169   23.3014 O   0  0  0  0  0  0
  -28.3746  -26.4451   20.2230 O   0  0  0  0  0  0
  -26.5630  -34.8935   22.4654 O   0  0  0  0  0  0
  -23.5428  -32.1376   23.7288 O   0  0  0  0  0  0
  -31.7020  -23.3088   19.9278 C   0  0  0  0  0  0
  -29.2170  -22.5950   20.9347 C   0  0  0  0  0  0
  -30.6600  -24.2600   19.8824 C   0  0  0  0  0  0
  -31.5349  -22.0197   20.4787 C   0  0  0  0  0  0
  -29.3806  -23.9409   20.4077 C   0  0  0  0  0  0
  -30.2739  -21.6059   20.9848 C   0  0  0  0  0  0
  -29.8780  -17.9045   22.3769 C   0  0  0  0  0  0
  -30.3182  -18.3602   20.0106 C   0  0  0  0  0  0
  -29.4627  -16.4100   22.0321 C   0  0  0  0  0  0
  -29.7772  -16.9179   19.6775 C   0  0  0  0  0  0
  -29.6725  -18.9985   21.2682 C   0  0  0  0  0  0
  -30.9663  -25.6188   19.2725 C   0  0  0  0  0  0
  -32.7784  -21.1385   20.5463 C   0  0  0  0  0  0
  -28.1700  -24.9682   20.3309 C   0  0  0  0  0  0
  -29.9295  -15.8694   20.7287 N   0  0  0  0  0  0
  -30.1976  -20.3504   21.6920 N   0  0  0  0  0  0
  -31.4813  -12.5521   19.1782 H   0  0  0  0  0  0
  -30.3626  -11.4609   19.9456 H   0  0  0  0  0  0
  -29.7996  -11.7529   17.5144 H   0  0  0  0  0  0
  -29.6493  -13.4817   17.7357 H   0  0  0  0  0  0
  -27.8941  -11.2957   18.8990 H   0  0  0  0  0  0
  -27.3898  -12.5512   17.8023 H   0  0  0  0  0  0
  -27.6572  -14.2616   19.4947 H   0  0  0  0  0  0
  -28.7232  -12.1398   21.4216 H   0  0  0  0  0  0
  -28.4262  -13.8157   21.8166 H   0  0  0  0  0  0
  -25.2763   -9.5697   22.4728 H   0  0  0  0  0  0
  -23.9990   -7.4665   22.7483 H   0  0  0  0  0  0
  -21.0831   -8.8790   19.8995 H   0  0  0  0  0  0
  -22.3701  -10.9655   19.6150 H   0  0  0  0  0  0
  -21.2020   -7.6121   23.9714 H   0  0  0  0  0  0
  -21.1484   -6.0484   25.9069 H   0  0  0  0  0  0
  -22.0607   -2.7597   23.2826 H   0  0  0  0  0  0
  -22.4060  -11.9946   22.4817 H   0  0  0  0  0  0
  -21.1102  -13.1372   22.2576 H   0  0  0  0  0  0
  -24.6611  -15.8504   20.5309 H   0  0  0  0  0  0
  -26.2843  -15.6386   20.1228 H   0  0  0  0  0  0
  -26.7193  -32.5450   23.1078 H   0  0  0  0  0  0
  -25.0053  -33.9716   25.0382 H   0  0  0  0  0  0
  -22.7190  -31.2973   21.3926 H   0  0  0  0  0  0
  -23.3748  -35.9643   23.3316 H   0  0  0  0  0  0
  -24.3585  -36.8904   22.2051 H   0  0  0  0  0  0
  -23.7261  -37.6513   23.6643 H   0  0  0  0  0  0
  -26.1001  -31.5463   20.6030 H   0  0  0  0  0  0
  -26.8466  -30.8358   22.0041 H   0  0  0  0  0  0
  -28.1283  -28.9820   21.1951 H   0  0  0  0  0  0
  -25.9905  -25.9043   19.0412 H   0  0  0  0  0  0
  -23.9964  -27.2869   19.0178 H   0  0  0  0  0  0
  -23.7626  -30.5782   19.3979 H   0  0  0  0  0  0
  -22.7658  -29.2303   19.8590 H   0  0  0  0  0  0
  -25.1302  -36.1931   25.0813 H   0  0  0  0  0  0
  -20.9978  -28.3280   24.1402 H   0  0  0  0  0  0
  -20.5694  -26.2312   23.3621 H   0  0  0  0  0  0
  -21.6647  -26.7462   22.1202 H   0  0  0  0  0  0
  -19.6917  -25.6289   21.1266 H   0  0  0  0  0  0
  -19.6690  -27.3181   20.6741 H   0  0  0  0  0  0
  -17.4206  -26.6676   21.4027 H   0  0  0  0  0  0
  -18.0333  -26.0081   22.9036 H   0  0  0  0  0  0
  -19.7939  -30.7275   24.2269 H   0  0  0  0  0  0
  -17.5019  -31.6281   24.5165 H   0  0  0  0  0  0
  -15.5352  -30.2990   23.7660 H   0  0  0  0  0  0
  -15.8679  -28.0831   22.7058 H   0  0  0  0  0  0
  -24.5826  -30.7192   25.7764 H   0  0  0  0  0  0
  -24.8890  -32.3000   26.4809 H   0  0  0  0  0  0
  -25.7965  -30.9002   27.0247 H   0  0  0  0  0  0
  -26.2874  -29.6801   24.1202 H   0  0  0  0  0  0
  -27.3912  -29.7264   25.4737 H   0  0  0  0  0  0
  -27.8767  -30.4267   23.9479 H   0  0  0  0  0  0
  -27.2638  -33.3665   26.2027 H   0  0  0  0  0  0
  -28.3844  -32.6899   25.0323 H   0  0  0  0  0  0
  -28.0679  -31.8500   26.5433 H   0  0  0  0  0  0
  -28.2597  -38.0108   24.7517 H   0  0  0  0  0  0
  -28.1089  -36.2631   24.6252 H   0  0  0  0  0  0
  -27.2313  -37.1425   25.8863 H   0  0  0  0  0  0
  -20.9401  -29.8748   21.6865 H   0  0  0  0  0  0
  -26.0178  -38.2861   24.1395 H   0  0  0  0  0  0
  -32.6762  -23.5856   19.5479 H   0  0  0  0  0  0
  -28.2574  -22.3328   21.3559 H   0  0  0  0  0  0
  -30.9273  -17.8957   22.6732 H   0  0  0  0  0  0
  -29.3351  -18.2030   23.2770 H   0  0  0  0  0  0
  -30.1496  -19.0120   19.1509 H   0  0  0  0  0  0
  -31.3984  -18.2971   20.1307 H   0  0  0  0  0  0
  -28.3746  -16.3396   22.0367 H   0  0  0  0  0  0
  -29.7962  -15.7536   22.8390 H   0  0  0  0  0  0
  -30.2104  -16.5780   18.7367 H   0  0  0  0  0  0
  -28.7060  -17.0006   19.4849 H   0  0  0  0  0  0
  -28.6016  -19.1090   21.0978 H   0  0  0  0  0  0
  -31.8931  -25.6027   18.6987 H   0  0  0  0  0  0
  -31.0785  -26.3695   20.0562 H   0  0  0  0  0  0
  -30.1772  -25.9371   18.5912 H   0  0  0  0  0  0
  -33.4080  -21.2958   19.6681 H   0  0  0  0  0  0
  -32.5522  -20.0771   20.5840 H   0  0  0  0  0  0
  -33.3715  -21.3862   21.4283 H   0  0  0  0  0  0
  -27.5436  -24.7883   21.2051 H   0  0  0  0  0  0
  -27.6030  -24.6272   19.4678 H   0  0  0  0  0  0
  -30.9676  -20.2552   22.3488 H   0  0  0  0  0  0
  1 25  1  0  0  0
  1 30  2  0  0  0
  1 85  1  0  0  0
  2  3  1  0  0  0
  2 25  1  0  0  0
  2 87  1  0  0  0
  2 88  1  0  0  0
  3  4  1  0  0  0
  3 89  1  0  0  0
  3 90  1  0  0  0
  4  5  1  0  0  0
  4 91  1  0  0  0
  4 92  1  0  0  0
  5  6  1  0  0  0
  5 26  1  0  0  0
  5 93  1  0  0  0
  6 25  1  0  0  0
  6 94  1  0  0  0
  6 95  1  0  0  0
  7  8  2  0  0  0
  7 26  1  0  0  0
  7 29  1  0  0  0
  8  9  1  0  0  0
  8 22  1  0  0  0
  9 10  1  0  0  0
  9 27  2  0  0  0
 10 11  2  0  0  0
 10 15  1  0  0  0
 11 12  1  0  0  0
 11 96  1  0  0  0
 12 13  2  0  0  0
 12 97  1  0  0  0
 13 14  1  0  0  0
 13 31  1  0  0  0
 14 15  2  0  0  0
 14 98  1  0  0  0
 15 99  1  0  0  0
 16 17  2  0  0  0
 16 21  1  0  0  0
 16 31  1  0  0  0
 17 18  1  0  0  0
 17100  1  0  0  0
 18 19  2  0  0  0
 18101  1  0  0  0
 19 20  1  0  0  0
 19 24  1  0  0  0
 20 21  2  0  0  0
 20102  1  0  0  0
 21 23  1  0  0  0
 22 28  1  0  0  0
 22 32  2  0  0  0
 26 27  1  0  0  0
 28103  1  0  0  0
 28104  1  0  0  0
 29105  1  0  0  0
 29106  1  0  0  0
 33 34  1  0  0  0
 33 66  1  0  0  0
 33 70  2  0  0  0
 34 36  1  0  0  0
 34 59  1  0  0  0
 34107  1  0  0  0
 35 44  2  0  0  0
 35 45  1  0  0  0
 35 68  1  0  0  0
 36 56  1  0  0  0
 36108  1  0  0  0
 37 39  1  0  0  0
 37 47  1  0  0  0
 37 66  1  0  0  0
 37109  1  0  0  0
 38 43  2  0  0  0
 38 46  1  0  0  0
 38 47  1  0  0  0
 39 64  1  0  0  0
 39 67  2  0  0  0
 40 52  1  0  0  0
 40 53  2  0  0  0
 40 58  1  0  0  0
 41110  1  0  0  0
 41111  1  0  0  0
 41112  1  0  0  0
 41 48  1  0  0  0
 42 43  1  0  0  0
 42 66  1  0  0  0
 42113  1  0  0  0
 42114  1  0  0  0
 43 44  1  0  0  0
 44115  1  0  0  0
 45 46  2  0  0  0
 45116  1  0  0  0
 46117  1  0  0  0
 47118  1  0  0  0
 47119  1  0  0  0
 48 56  1  0  0  0
 48 65  1  0  0  0
 48120  1  0  0  0
 49 50  1  0  0  0
 49 53  1  0  0  0
 49 64  1  0  0  0
 49121  1  0  0  0
 50 51  1  0  0  0
 50122  1  0  0  0
 50123  1  0  0  0
 51 52  1  0  0  0
 51124  1  0  0  0
 51125  1  0  0  0
 52126  1  0  0  0
 52127  1  0  0  0
 53 54  1  0  0  0
 54 55  2  0  0  0
 54128  1  0  0  0
 55 57  1  0  0  0
 55129  1  0  0  0
 56 69  2  0  0  0
 57 58  2  0  0  0
 57130  1  0  0  0
 58131  1  0  0  0
 59 60  1  0  0  0
 59 61  1  0  0  0
 59 62  1  0  0  0
 60132  1  0  0  0
 60133  1  0  0  0
 60134  1  0  0  0
 61135  1  0  0  0
 61136  1  0  0  0
 61137  1  0  0  0
 62138  1  0  0  0
 62139  1  0  0  0
 62140  1  0  0  0
 63 65  1  0  0  0
 63141  1  0  0  0
 63142  1  0  0  0
 63143  1  0  0  0
 64144  1  0  0  0
 65145  1  0  0  0
 68 84  1  0  0  0
 71 73  2  0  0  0
 71 74  1  0  0  0
 71146  1  0  0  0
 72 75  2  0  0  0
 72 76  1  0  0  0
 72147  1  0  0  0
 73 75  1  0  0  0
 73 82  1  0  0  0
 74 76  2  0  0  0
 74 83  1  0  0  0
 75 84  1  0  0  0
 76 86  1  0  0  0
 77 79  1  0  0  0
 77 81  1  0  0  0
 77148  1  0  0  0
 77149  1  0  0  0
 78 80  1  0  0  0
 78 81  1  0  0  0
 78150  1  0  0  0
 78151  1  0  0  0
 79 85  1  0  0  0
 79152  1  0  0  0
 79153  1  0  0  0
 80 85  1  0  0  0
 80154  1  0  0  0
 80155  1  0  0  0
 81 86  1  0  0  0
 81156  1  0  0  0
 82157  1  0  0  0
 82158  1  0  0  0
 82159  1  0  0  0
 83160  1  0  0  0
 83161  1  0  0  0
 83162  1  0  0  0
 84163  1  0  0  0
 84164  1  0  0  0
 86165  1  0  0  0
M  ISO  4   1 100  68 101  84 101  85 100
M  END
> <chiral flag>
0

> <version>
0

> <s_m_source_file>
/data/baiqing/PycharmProjects/Reinvent-master-3.2/result/LINK_invent/BTK/process_docking_weight1_custom_sum_contain_oxygen_bond_distance_aromatic_linkinvent_7_9_3/rearranged_h_0156.sdf

> <i_m_source_file_index>
56

> <r_mmod_Potential_Energy-OPLS-2005>
331.651580810547

> <r_mmod_Stretch_Energy-OPLS-2005>
105.72297668457

> <r_mmod_Bend_Energy-OPLS-2005>
180.818283081055

> <r_mmod_Torsional_Energy-OPLS-2005>
357.624603271484

> <r_mmod_Improper_Torsional_Energy-OPLS-2005>
14.7178220748901

> <r_mmod_Van_der_Waal_Energy-OPLS-2005>
139.802322387695

> <r_mmod_Electrostatic_Energy-OPLS-2005>
-335.553527832031

> <r_mmod_Solvation_Energy-OPLS-2005>
-196.302673339844

> <b_mmod_Minimization_Converged-OPLS-2005>
0

> <r_mmod_RMS_Derivative-OPLS-2005>
4.54593896865845

$$$$
56
                    3D
 Structure written by MMmdl.
164173  0  0  1  0            999 V2000
  -30.6714  -14.6204   20.5075 C   0  0  0  0  0  0
  -30.4195  -12.3881   19.4480 C   0  0  0  0  0  0
  -29.4963  -12.4990   18.2173 C   0  0  0  0  0  0
  -28.0211  -12.3426   18.6338 C   0  0  0  0  0  0
  -27.6455  -13.2244   19.8553 C   0  0  2  0  0  0
  -28.6912  -13.1100   20.9854 C   0  0  0  0  0  0
  -25.2527  -13.8194   20.5699 C   0  0  0  0  0  0
  -24.1807  -13.0445   20.9202 C   0  0  0  0  0  0
  -24.6387  -11.6919   20.8745 C   0  0  0  0  0  0
  -23.9065  -10.4295   21.0407 C   0  0  0  0  0  0
  -24.3617   -9.4210   21.9184 C   0  0  0  0  0  0
  -23.6293   -8.2244   22.0755 C   0  0  0  0  0  0
  -22.4276   -8.0281   21.3543 C   0  0  0  0  0  0
  -21.9911   -9.0254   20.4645 C   0  0  0  0  0  0
  -22.7239  -10.2133   20.3055 C   0  0  0  0  0  0
  -21.6852   -6.0735   22.5277 C   0  0  0  0  0  0
  -21.4014   -6.5641   23.8212 C   0  0  0  0  0  0
  -21.3659   -5.6793   24.9175 C   0  0  0  0  0  0
  -21.6046   -4.3056   24.7225 C   0  0  0  0  0  0
  -21.8819   -3.8148   23.4347 C   0  0  0  0  0  0
  -21.9193   -4.6963   22.3402 C   0  0  0  0  0  0
  -22.7829  -13.5227   21.1861 C   0  0  0  0  0  0
  -22.1661   -4.2150   21.0979 F   0  0  0  0  0  0
  -21.5628   -3.4540   25.7739 F   0  0  0  0  0  0
  -30.0009  -13.4313   20.4055 N   0  0  0  0  0  0
  -26.2950  -12.9389   20.3304 N   0  0  0  0  0  0
  -25.9316  -11.6536   20.5759 N   0  0  0  0  0  0
  -22.0476  -12.8212   22.0413 N   0  0  0  0  0  0
  -25.4236  -15.1917   20.4121 N   0  0  0  0  0  0
  -31.8492  -14.7102   20.1533 O   0  0  0  0  0  0
  -21.6639   -6.8877   21.4240 O   0  0  0  0  0  0
  -22.3515  -14.5536   20.6714 O   0  0  0  0  0  0
  -24.6238  -31.8602   23.2032 C   0  0  0  0  0  0
  -25.9093  -32.4783   23.8357 C   0  0  1  0  0  0
  -27.2235  -27.3402   20.1231 C   0  0  0  0  0  0
  -25.5916  -33.8585   24.2285 N   0  0  0  0  0  0
  -23.4168  -30.4826   21.5452 C   0  0  2  0  0  0
  -24.8641  -28.9359   20.1137 C   0  0  0  0  0  0
  -22.7464  -29.4621   22.4947 C   0  0  0  0  0  0
  -18.0282  -28.1385   22.8482 C   0  0  0  0  0  0
  -24.1483  -36.7290   23.2640 C   0  0  0  0  0  0
  -25.9548  -30.7985   21.3699 C   0  0  0  0  0  0
  -26.0310  -29.4265   20.7143 C   0  0  0  0  0  0
  -27.2182  -28.6408   20.7057 C   0  0  0  0  0  0
  -26.0393  -26.8891   19.5053 C   0  0  0  0  0  0
  -24.8683  -27.6720   19.4996 C   0  0  0  0  0  0
  -23.6308  -29.8141   20.1613 C   0  0  0  0  0  0
  -25.4111  -36.3087   24.0329 C   0  0  1  0  0  0
  -20.5880  -28.3683   23.1289 C   0  0  2  0  0  0
  -20.6770  -26.9408   22.5416 C   0  0  0  0  0  0
  -19.5753  -26.6384   21.5210 C   0  0  0  0  0  0
  -18.1926  -26.7931   22.1610 C   0  0  0  0  0  0
  -19.1535  -28.8852   23.2880 C   0  0  0  0  0  0
  -18.9463  -30.1454   23.8897 C   0  0  0  0  0  0
  -17.6463  -30.6587   24.0568 C   0  0  0  0  0  0
  -25.9046  -34.9454   23.5107 C   0  0  0  0  0  0
  -16.5354  -29.9088   23.6336 C   0  0  0  0  0  0
  -16.7271  -28.6507   23.0352 C   0  0  0  0  0  0
  -26.4493  -31.6595   25.0723 C   0  0  0  0  0  0
  -25.3731  -31.3716   26.1453 C   0  0  0  0  0  0
  -27.0352  -30.3030   24.6159 C   0  0  0  0  0  0
  -27.6050  -32.4337   25.7492 C   0  0  0  0  0  0
  -27.5576  -37.1799   24.8465 C   0  0  0  0  0  0
  -21.4181  -29.3038   22.3688 N   0  0  0  0  0  0
  -26.4289  -37.3780   23.9409 N   0  0  0  0  0  0
  -24.6838  -31.0634   22.0969 N   0  0  0  0  0  0
  -23.4195  -28.8161   23.3019 O   0  0  0  0  0  0
  -28.3405  -26.5048   20.1333 O   0  0  0  0  0  0
  -26.5615  -34.8919   22.4675 O   0  0  0  0  0  0
  -23.5408  -32.1386   23.7377 O   0  0  0  0  0  0
  -30.7203  -19.3020   19.9385 C   0  0  0  0  0  0
  -28.9110  -19.0686   21.4942 C   0  0  0  0  0  0
  -29.4508  -21.3411   20.6050 C   0  0  0  0  0  0
  -30.0048  -18.4646   20.8245 C   0  0  0  0  0  0
  -30.4578  -20.6966   19.8210 C   0  0  0  0  0  0
  -28.6183  -20.4747   21.3834 C   0  0  0  0  0  0
  -29.3330  -23.5182   22.1406 C   0  0  0  0  0  0
  -29.1466  -25.0295   21.9190 C   0  0  0  0  0  0
  -28.4259  -23.8428   19.9048 C   0  0  0  0  0  0
  -29.4117  -22.9277   20.7226 C   0  0  2  0  0  0
  -28.1766  -25.1689   20.7363 C   0  0  2  0  0  0
  -31.3431  -21.4890   18.8716 C   0  0  0  0  0  0
  -26.6921  -20.2411   22.8181 C   0  0  0  0  0  0
  -30.5918  -17.0609   21.2182 C   0  0  0  0  0  0
  -29.9691  -15.7426   20.8613 N   0  0  0  0  0  0
  -27.5619  -21.0605   22.0480 O   0  0  0  0  0  0
  -31.4627  -12.4904   19.1441 H   0  0  0  0  0  0
  -30.3378  -11.4005   19.9047 H   0  0  0  0  0  0
  -29.7582  -11.7404   17.4785 H   0  0  0  0  0  0
  -29.6415  -13.4650   17.7308 H   0  0  0  0  0  0
  -27.8578  -11.2912   18.8732 H   0  0  0  0  0  0
  -27.3650  -12.5669   17.7917 H   0  0  0  0  0  0
  -27.6566  -14.2557   19.5014 H   0  0  0  0  0  0
  -28.7015  -12.1022   21.4030 H   0  0  0  0  0  0
  -28.4446  -13.7780   21.8120 H   0  0  0  0  0  0
  -25.2761   -9.5687   22.4759 H   0  0  0  0  0  0
  -24.0004   -7.4636   22.7475 H   0  0  0  0  0  0
  -21.0844   -8.8770   19.8948 H   0  0  0  0  0  0
  -22.3698  -10.9671   19.6162 H   0  0  0  0  0  0
  -21.2007   -7.6148   23.9715 H   0  0  0  0  0  0
  -21.1480   -6.0524   25.9077 H   0  0  0  0  0  0
  -22.0599   -2.7610   23.2847 H   0  0  0  0  0  0
  -22.4094  -11.9865   22.4782 H   0  0  0  0  0  0
  -21.1094  -13.1232   22.2628 H   0  0  0  0  0  0
  -24.6563  -15.8459   20.5207 H   0  0  0  0  0  0
  -26.2722  -15.6307   20.0784 H   0  0  0  0  0  0
  -26.7160  -32.5465   23.1109 H   0  0  0  0  0  0
  -25.0090  -33.9740   25.0447 H   0  0  0  0  0  0
  -22.7092  -31.3018   21.4014 H   0  0  0  0  0  0
  -23.3748  -35.9619   23.3313 H   0  0  0  0  0  0
  -24.3567  -36.8905   22.2052 H   0  0  0  0  0  0
  -23.7236  -37.6492   23.6662 H   0  0  0  0  0  0
  -26.0815  -31.5616   20.6009 H   0  0  0  0  0  0
  -26.8366  -30.8491   21.9971 H   0  0  0  0  0  0
  -28.1179  -29.0122   21.1760 H   0  0  0  0  0  0
  -26.0182  -25.9161   19.0345 H   0  0  0  0  0  0
  -23.9732  -27.2911   19.0275 H   0  0  0  0  0  0
  -23.7477  -30.5888   19.4027 H   0  0  0  0  0  0
  -22.7515  -29.2410   19.8618 H   0  0  0  0  0  0
  -25.1290  -36.1940   25.0821 H   0  0  0  0  0  0
  -20.9971  -28.3261   24.1410 H   0  0  0  0  0  0
  -20.5668  -26.2293   23.3614 H   0  0  0  0  0  0
  -21.6642  -26.7438   22.1214 H   0  0  0  0  0  0
  -19.6918  -25.6295   21.1239 H   0  0  0  0  0  0
  -19.6703  -27.3195   20.6741 H   0  0  0  0  0  0
  -17.4205  -26.6698   21.3999 H   0  0  0  0  0  0
  -18.0311  -26.0064   22.8993 H   0  0  0  0  0  0
  -19.7940  -30.7269   24.2265 H   0  0  0  0  0  0
  -17.5022  -31.6268   24.5168 H   0  0  0  0  0  0
  -15.5357  -30.2992   23.7662 H   0  0  0  0  0  0
  -15.8668  -28.0833   22.7064 H   0  0  0  0  0  0
  -24.5946  -30.7010   25.7795 H   0  0  0  0  0  0
  -24.8867  -32.2869   26.4837 H   0  0  0  0  0  0
  -25.8068  -30.8950   27.0254 H   0  0  0  0  0  0
  -26.2933  -29.6770   24.1188 H   0  0  0  0  0  0
  -27.4082  -29.7290   25.4651 H   0  0  0  0  0  0
  -27.8777  -30.4342   23.9364 H   0  0  0  0  0  0
  -27.2667  -33.3647   26.2053 H   0  0  0  0  0  0
  -28.3867  -32.6884   25.0322 H   0  0  0  0  0  0
  -28.0713  -31.8475   26.5423 H   0  0  0  0  0  0
  -28.2598  -38.0091   24.7511 H   0  0  0  0  0  0
  -28.1070  -36.2625   24.6296 H   0  0  0  0  0  0
  -27.2296  -37.1458   25.8868 H   0  0  0  0  0  0
  -20.9358  -29.8765   21.6904 H   0  0  0  0  0  0
  -26.0171  -38.2853   24.1419 H   0  0  0  0  0  0
  -31.5583  -18.8832   19.3971 H   0  0  0  0  0  0
  -28.3477  -18.4391   22.1667 H   0  0  0  0  0  0
  -28.4718  -23.1464   22.6913 H   0  0  0  0  0  0
  -30.2214  -23.2926   22.7320 H   0  0  0  0  0  0
  -30.1081  -25.4748   21.6586 H   0  0  0  0  0  0
  -28.7840  -25.5410   22.8114 H   0  0  0  0  0  0
  -27.4736  -23.3294   19.7663 H   0  0  0  0  0  0
  -28.8207  -24.0521   18.9105 H   0  0  0  0  0  0
  -30.3975  -23.2593   20.4009 H   0  0  0  0  0  0
  -27.1727  -25.0849   21.1581 H   0  0  0  0  0  0
  -31.8108  -20.8391   18.1313 H   0  0  0  0  0  0
  -32.1384  -21.9960   19.4189 H   0  0  0  0  0  0
  -30.7646  -22.2334   18.3236 H   0  0  0  0  0  0
  -25.8894  -20.8549   23.2263 H   0  0  0  0  0  0
  -27.2143  -19.7845   23.6601 H   0  0  0  0  0  0
  -26.2309  -19.4616   22.2101 H   0  0  0  0  0  0
  -30.6661  -17.0629   22.3064 H   0  0  0  0  0  0
  -31.6319  -17.0639   20.8888 H   0  0  0  0  0  0
  -28.9864  -15.6284   21.0563 H   0  0  0  0  0  0
  1 25  1  0  0  0
  1 30  2  0  0  0
  1 85  1  0  0  0
  2  3  1  0  0  0
  2 25  1  0  0  0
  2 87  1  0  0  0
  2 88  1  0  0  0
  3  4  1  0  0  0
  3 89  1  0  0  0
  3 90  1  0  0  0
  4  5  1  0  0  0
  4 91  1  0  0  0
  4 92  1  0  0  0
  5  6  1  0  0  0
  5 26  1  0  0  0
  5 93  1  0  0  0
  6 25  1  0  0  0
  6 94  1  0  0  0
  6 95  1  0  0  0
  7  8  2  0  0  0
  7 26  1  0  0  0
  7 29  1  0  0  0
  8  9  1  0  0  0
  8 22  1  0  0  0
  9 10  1  0  0  0
  9 27  2  0  0  0
 10 11  2  0  0  0
 10 15  1  0  0  0
 11 12  1  0  0  0
 11 96  1  0  0  0
 12 13  2  0  0  0
 12 97  1  0  0  0
 13 14  1  0  0  0
 13 31  1  0  0  0
 14 15  2  0  0  0
 14 98  1  0  0  0
 15 99  1  0  0  0
 16 17  2  0  0  0
 16 21  1  0  0  0
 16 31  1  0  0  0
 17 18  1  0  0  0
 17100  1  0  0  0
 18 19  2  0  0  0
 18101  1  0  0  0
 19 20  1  0  0  0
 19 24  1  0  0  0
 20 21  2  0  0  0
 20102  1  0  0  0
 21 23  1  0  0  0
 22 28  1  0  0  0
 22 32  2  0  0  0
 26 27  1  0  0  0
 28103  1  0  0  0
 28104  1  0  0  0
 29105  1  0  0  0
 29106  1  0  0  0
 33 34  1  0  0  0
 33 66  1  0  0  0
 33 70  2  0  0  0
 34 36  1  0  0  0
 34 59  1  0  0  0
 34107  1  0  0  0
 35 44  2  0  0  0
 35 45  1  0  0  0
 35 68  1  0  0  0
 36 56  1  0  0  0
 36108  1  0  0  0
 37 39  1  0  0  0
 37 47  1  0  0  0
 37 66  1  0  0  0
 37109  1  0  0  0
 38 43  2  0  0  0
 38 46  1  0  0  0
 38 47  1  0  0  0
 39 64  1  0  0  0
 39 67  2  0  0  0
 40 52  1  0  0  0
 40 53  2  0  0  0
 40 58  1  0  0  0
 41110  1  0  0  0
 41111  1  0  0  0
 41112  1  0  0  0
 41 48  1  0  0  0
 42 43  1  0  0  0
 42 66  1  0  0  0
 42113  1  0  0  0
 42114  1  0  0  0
 43 44  1  0  0  0
 44115  1  0  0  0
 45 46  2  0  0  0
 45116  1  0  0  0
 46117  1  0  0  0
 47118  1  0  0  0
 47119  1  0  0  0
 48 56  1  0  0  0
 48 65  1  0  0  0
 48120  1  0  0  0
 49 50  1  0  0  0
 49 53  1  0  0  0
 49 64  1  0  0  0
 49121  1  0  0  0
 50 51  1  0  0  0
 50122  1  0  0  0
 50123  1  0  0  0
 51 52  1  0  0  0
 51124  1  0  0  0
 51125  1  0  0  0
 52126  1  0  0  0
 52127  1  0  0  0
 53 54  1  0  0  0
 54 55  2  0  0  0
 54128  1  0  0  0
 55 57  1  0  0  0
 55129  1  0  0  0
 56 69  2  0  0  0
 57 58  2  0  0  0
 57130  1  0  0  0
 58131  1  0  0  0
 59 60  1  0  0  0
 59 61  1  0  0  0
 59 62  1  0  0  0
 60132  1  0  0  0
 60133  1  0  0  0
 60134  1  0  0  0
 61135  1  0  0  0
 61136  1  0  0  0
 61137  1  0  0  0
 62138  1  0  0  0
 62139  1  0  0  0
 62140  1  0  0  0
 63 65  1  0  0  0
 63141  1  0  0  0
 63142  1  0  0  0
 63143  1  0  0  0
 64144  1  0  0  0
 65145  1  0  0  0
 68 81  1  0  0  0
 71 74  2  0  0  0
 71 75  1  0  0  0
 71146  1  0  0  0
 72 74  1  0  0  0
 72 76  2  0  0  0
 72147  1  0  0  0
 73 75  2  0  0  0
 73 76  1  0  0  0
 73 80  1  0  0  0
 74 84  1  0  0  0
 75 82  1  0  0  0
 76 86  1  0  0  0
 77 78  1  0  0  0
 77 80  1  0  0  0
 77148  1  0  0  0
 77149  1  0  0  0
 78 81  1  0  0  0
 78150  1  0  0  0
 78151  1  0  0  0
 79 80  1  0  0  0
 79 81  1  0  0  0
 79152  1  0  0  0
 79153  1  0  0  0
 80154  1  0  0  0
 81155  1  0  0  0
 82156  1  0  0  0
 82157  1  0  0  0
 82158  1  0  0  0
 83 86  1  0  0  0
 83159  1  0  0  0
 83160  1  0  0  0
 83161  1  0  0  0
 84 85  1  0  0  0
 84162  1  0  0  0
 84163  1  0  0  0
 85164  1  0  0  0
M  ISO  4   1 100  68 101  81 101  85 100
M  END
> <chiral flag>
0

> <version>
0

> <s_m_source_file>
/data/baiqing/PycharmProjects/Reinvent-master-3.2/result/LINK_invent/BTK/process_docking_weight1_custom_sum_contain_oxygen_bond_distance_aromatic_linkinvent_7_9_3/rearranged_h_0156.sdf

> <i_m_source_file_index>
57

> <r_mmod_Potential_Energy-OPLS-2005>
106.815467834473

> <r_mmod_Stretch_Energy-OPLS-2005>
76.1202545166016

> <r_mmod_Bend_Energy-OPLS-2005>
179.757141113281

> <r_mmod_Torsional_Energy-OPLS-2005>
288.688537597656

> <r_mmod_Improper_Torsional_Energy-OPLS-2005>
5.92416906356812

> <r_mmod_Van_der_Waal_Energy-OPLS-2005>
149.549057006836

> <r_mmod_Electrostatic_Energy-OPLS-2005>
-427.810333251953

> <r_mmod_Solvation_Energy-OPLS-2005>
-208.374938964844

> <b_mmod_Minimization_Converged-OPLS-2005>
0

> <r_mmod_RMS_Derivative-OPLS-2005>
0.489899665117264

$$$$
57
                    3D
 Structure written by MMmdl.
169178  0  0  1  0            999 V2000
  -30.5936  -14.7183   20.4558 C   0  0  0  0  0  0
  -30.4460  -12.4362   19.4601 C   0  0  0  0  0  0
  -29.5148  -12.5140   18.2278 C   0  0  0  0  0  0
  -28.0395  -12.3408   18.6417 C   0  0  0  0  0  0
  -27.6514  -13.2250   19.8556 C   0  0  2  0  0  0
  -28.6989  -13.1172   20.9874 C   0  0  0  0  0  0
  -25.2552  -13.8182   20.5669 C   0  0  0  0  0  0
  -24.1821  -13.0449   20.9197 C   0  0  0  0  0  0
  -24.6402  -11.6923   20.8737 C   0  0  0  0  0  0
  -23.9068  -10.4304   21.0409 C   0  0  0  0  0  0
  -24.3618   -9.4212   21.9189 C   0  0  0  0  0  0
  -23.6291   -8.2247   22.0758 C   0  0  0  0  0  0
  -22.4267   -8.0283   21.3555 C   0  0  0  0  0  0
  -21.9906   -9.0265   20.4659 C   0  0  0  0  0  0
  -22.7234  -10.2141   20.3062 C   0  0  0  0  0  0
  -21.6849   -6.0724   22.5285 C   0  0  0  0  0  0
  -21.4007   -6.5636   23.8213 C   0  0  0  0  0  0
  -21.3665   -5.6788   24.9186 C   0  0  0  0  0  0
  -21.6046   -4.3051   24.7225 C   0  0  0  0  0  0
  -21.8821   -3.8137   23.4350 C   0  0  0  0  0  0
  -21.9191   -4.6957   22.3403 C   0  0  0  0  0  0
  -22.7842  -13.5247   21.1850 C   0  0  0  0  0  0
  -22.1661   -4.2145   21.0984 F   0  0  0  0  0  0
  -21.5643   -3.4533   25.7733 F   0  0  0  0  0  0
  -30.0065  -13.4747   20.4171 N   0  0  0  0  0  0
  -26.2983  -12.9374   20.3283 N   0  0  0  0  0  0
  -25.9327  -11.6527   20.5722 N   0  0  0  0  0  0
  -22.0470  -12.8260   22.0407 N   0  0  0  0  0  0
  -25.4260  -15.1904   20.4067 N   0  0  0  0  0  0
  -31.7676  -14.8669   20.1049 O   0  0  0  0  0  0
  -21.6639   -6.8872   21.4240 O   0  0  0  0  0  0
  -22.3533  -14.5549   20.6687 O   0  0  0  0  0  0
  -24.6341  -31.8526   23.1941 C   0  0  0  0  0  0
  -25.9166  -32.4728   23.8294 C   0  0  1  0  0  0
  -27.2288  -27.2561   20.1157 C   0  0  0  0  0  0
  -25.5960  -33.8531   24.2226 N   0  0  0  0  0  0
  -23.4301  -30.4724   21.5404 C   0  0  2  0  0  0
  -24.8749  -28.9073   20.1169 C   0  0  0  0  0  0
  -22.7509  -29.4597   22.4939 C   0  0  0  0  0  0
  -18.0292  -28.1371   22.8465 C   0  0  0  0  0  0
  -24.1494  -36.7264   23.2631 C   0  0  0  0  0  0
  -25.9771  -30.7613   21.3730 C   0  0  0  0  0  0
  -26.0500  -29.3830   20.7143 C   0  0  0  0  0  0
  -27.2289  -28.5725   20.6953 C   0  0  0  0  0  0
  -26.0281  -26.8438   19.4989 C   0  0  0  0  0  0
  -24.8680  -27.6450   19.5026 C   0  0  0  0  0  0
  -23.6462  -29.7955   20.1618 C   0  0  0  0  0  0
  -25.4115  -36.3045   24.0323 C   0  0  1  0  0  0
  -20.5888  -28.3689   23.1262 C   0  0  2  0  0  0
  -20.6778  -26.9410   22.5393 C   0  0  0  0  0  0
  -19.5758  -26.6369   21.5197 C   0  0  0  0  0  0
  -18.1939  -26.7910   22.1611 C   0  0  0  0  0  0
  -19.1540  -28.8850   23.2850 C   0  0  0  0  0  0
  -18.9465  -30.1451   23.8860 C   0  0  0  0  0  0
  -17.6464  -30.6574   24.0543 C   0  0  0  0  0  0
  -25.9065  -34.9421   23.5073 C   0  0  0  0  0  0
  -16.5354  -29.9057   23.6331 C   0  0  0  0  0  0
  -16.7275  -28.6476   23.0347 C   0  0  0  0  0  0
  -26.4525  -31.6558   25.0704 C   0  0  0  0  0  0
  -25.3733  -31.3730   26.1421 C   0  0  0  0  0  0
  -27.0369  -30.2952   24.6231 C   0  0  0  0  0  0
  -27.6077  -32.4304   25.7478 C   0  0  0  0  0  0
  -27.5593  -37.1765   24.8450 C   0  0  0  0  0  0
  -21.4218  -29.3035   22.3663 N   0  0  0  0  0  0
  -26.4275  -37.3759   23.9433 N   0  0  0  0  0  0
  -24.7002  -31.0474   22.0921 N   0  0  0  0  0  0
  -23.4199  -28.8159   23.3065 O   0  0  0  0  0  0
  -28.3473  -26.3890   20.1413 O   0  0  0  0  0  0
  -26.5638  -34.8920   22.4645 O   0  0  0  0  0  0
  -23.5496  -32.1366   23.7231 O   0  0  0  0  0  0
  -29.4812  -19.5478   21.5198 C   0  0  0  0  0  0
  -29.7061  -19.3510   19.1601 C   0  0  0  0  0  0
  -29.5019  -20.2289   20.2692 C   0  0  0  0  0  0
  -29.6372  -18.1272   21.6586 C   0  0  0  0  0  0
  -29.8400  -17.9149   19.2669 C   0  0  0  0  0  0
  -29.8216  -17.2540   20.5426 C   0  0  0  0  0  0
  -29.0731  -22.6494   21.4258 C   0  0  0  0  0  0
  -28.5032  -22.4753   19.0363 C   0  0  0  0  0  0
  -29.1093  -24.2307   21.3029 C   0  0  0  0  0  0
  -28.5504  -24.0683   18.9173 C   0  0  0  0  0  0
  -29.4298  -21.8361   20.1353 C   0  0  2  0  0  0
  -28.1971  -24.8853   20.2115 C   0  0  2  0  0  0
  -29.5926  -17.5404   23.0602 C   0  0  0  0  0  0
  -31.3854  -17.1399   17.4051 C   0  0  0  0  0  0
  -28.9116  -17.4844   16.9247 C   0  0  0  0  0  0
  -29.9607  -17.0931   17.9783 C   0  0  0  0  0  0
  -29.7610  -15.7823   20.7472 N   0  0  0  0  0  0
  -31.4853  -12.5709   19.1555 H   0  0  0  0  0  0
  -30.3952  -11.4479   19.9204 H   0  0  0  0  0  0
  -29.7918  -11.7532   17.4969 H   0  0  0  0  0  0
  -29.6441  -13.4759   17.7291 H   0  0  0  0  0  0
  -27.8867  -11.2892   18.8883 H   0  0  0  0  0  0
  -27.3838  -12.5523   17.7965 H   0  0  0  0  0  0
  -27.6579  -14.2533   19.4919 H   0  0  0  0  0  0
  -28.7269  -12.1046   21.3928 H   0  0  0  0  0  0
  -28.4350  -13.7644   21.8254 H   0  0  0  0  0  0
  -25.2763   -9.5692   22.4761 H   0  0  0  0  0  0
  -24.0011   -7.4630   22.7469 H   0  0  0  0  0  0
  -21.0846   -8.8780   19.8965 H   0  0  0  0  0  0
  -22.3697  -10.9679   19.6168 H   0  0  0  0  0  0
  -21.1985   -7.6138   23.9714 H   0  0  0  0  0  0
  -21.1492   -6.0519   25.9091 H   0  0  0  0  0  0
  -22.0589   -2.7598   23.2843 H   0  0  0  0  0  0
  -22.4052  -11.9923   22.4836 H   0  0  0  0  0  0
  -21.1096  -13.1310   22.2587 H   0  0  0  0  0  0
  -24.6585  -15.8441   20.5132 H   0  0  0  0  0  0
  -26.2701  -15.6276   20.0583 H   0  0  0  0  0  0
  -26.7237  -32.5371   23.1036 H   0  0  0  0  0  0
  -25.0125  -33.9650   25.0382 H   0  0  0  0  0  0
  -22.7271  -31.2945   21.3886 H   0  0  0  0  0  0
  -23.3768  -35.9585   23.3260 H   0  0  0  0  0  0
  -24.3589  -36.8918   22.2055 H   0  0  0  0  0  0
  -23.7240  -37.6454   23.6670 H   0  0  0  0  0  0
  -26.1198  -31.5221   20.6040 H   0  0  0  0  0  0
  -26.8526  -30.8065   22.0089 H   0  0  0  0  0  0
  -28.1343  -28.9360   21.1604 H   0  0  0  0  0  0
  -25.9704  -25.8802   19.0135 H   0  0  0  0  0  0
  -23.9639  -27.2713   19.0404 H   0  0  0  0  0  0
  -23.7695  -30.5638   19.3977 H   0  0  0  0  0  0
  -22.7658  -29.2232   19.8638 H   0  0  0  0  0  0
  -25.1288  -36.1869   25.0809 H   0  0  0  0  0  0
  -20.9965  -28.3263   24.1391 H   0  0  0  0  0  0
  -20.5671  -26.2306   23.3595 H   0  0  0  0  0  0
  -21.6648  -26.7434   22.1200 H   0  0  0  0  0  0
  -19.6927  -25.6273   21.1245 H   0  0  0  0  0  0
  -19.6700  -27.3161   20.6711 H   0  0  0  0  0  0
  -17.4210  -26.6646   21.4009 H   0  0  0  0  0  0
  -18.0350  -26.0051   22.9009 H   0  0  0  0  0  0
  -19.7943  -30.7271   24.2217 H   0  0  0  0  0  0
  -17.5017  -31.6259   24.5141 H   0  0  0  0  0  0
  -15.5347  -30.2946   23.7674 H   0  0  0  0  0  0
  -15.8678  -28.0786   22.7074 H   0  0  0  0  0  0
  -24.5900  -30.7096   25.7742 H   0  0  0  0  0  0
  -24.8944  -32.2911   26.4830 H   0  0  0  0  0  0
  -25.8040  -30.8909   27.0203 H   0  0  0  0  0  0
  -26.2959  -29.6687   24.1254 H   0  0  0  0  0  0
  -27.4015  -29.7244   25.4782 H   0  0  0  0  0  0
  -27.8853  -30.4189   23.9494 H   0  0  0  0  0  0
  -27.2680  -33.3610   26.2030 H   0  0  0  0  0  0
  -28.3894  -32.6850   25.0307 H   0  0  0  0  0  0
  -28.0736  -31.8443   26.5412 H   0  0  0  0  0  0
  -28.2538  -38.0133   24.7590 H   0  0  0  0  0  0
  -28.1159  -36.2669   24.6133 H   0  0  0  0  0  0
  -27.2332  -37.1242   25.8852 H   0  0  0  0  0  0
  -20.9422  -29.8736   21.6836 H   0  0  0  0  0  0
  -26.0146  -38.2820   24.1476 H   0  0  0  0  0  0
  -29.3508  -20.1298   22.4205 H   0  0  0  0  0  0
  -29.7578  -19.7990   18.1793 H   0  0  0  0  0  0
  -28.0829  -22.3438   21.7642 H   0  0  0  0  0  0
  -29.7657  -22.3667   22.2201 H   0  0  0  0  0  0
  -28.7637  -22.0521   18.0658 H   0  0  0  0  0  0
  -27.4752  -22.1655   19.2263 H   0  0  0  0  0  0
  -30.1400  -24.5333   21.1157 H   0  0  0  0  0  0
  -28.8487  -24.6575   22.2710 H   0  0  0  0  0  0
  -27.8967  -24.3861   18.1048 H   0  0  0  0  0  0
  -29.5550  -24.3571   18.6059 H   0  0  0  0  0  0
  -30.4509  -22.1138   19.8668 H   0  0  0  0  0  0
  -27.1690  -24.6519   20.4912 H   0  0  0  0  0  0
  -29.8614  -18.2855   23.8087 H   0  0  0  0  0  0
  -30.2936  -16.7113   23.1667 H   0  0  0  0  0  0
  -28.5917  -17.1745   23.2873 H   0  0  0  0  0  0
  -32.1114  -16.7557   18.1230 H   0  0  0  0  0  0
  -31.6831  -18.1554   17.1432 H   0  0  0  0  0  0
  -31.4664  -16.5258   16.5069 H   0  0  0  0  0  0
  -27.9064  -17.4501   17.3475 H   0  0  0  0  0  0
  -28.9363  -16.7955   16.0793 H   0  0  0  0  0  0
  -29.0740  -18.4860   16.5287 H   0  0  0  0  0  0
  -29.7472  -16.0504   18.2043 H   0  0  0  0  0  0
  -28.8932  -15.4729   21.1563 H   0  0  0  0  0  0
  1 25  1  0  0  0
  1 30  2  0  0  0
  1 87  1  0  0  0
  2  3  1  0  0  0
  2 25  1  0  0  0
  2 88  1  0  0  0
  2 89  1  0  0  0
  3  4  1  0  0  0
  3 90  1  0  0  0
  3 91  1  0  0  0
  4  5  1  0  0  0
  4 92  1  0  0  0
  4 93  1  0  0  0
  5  6  1  0  0  0
  5 26  1  0  0  0
  5 94  1  0  0  0
  6 25  1  0  0  0
  6 95  1  0  0  0
  6 96  1  0  0  0
  7  8  2  0  0  0
  7 26  1  0  0  0
  7 29  1  0  0  0
  8  9  1  0  0  0
  8 22  1  0  0  0
  9 10  1  0  0  0
  9 27  2  0  0  0
 10 11  2  0  0  0
 10 15  1  0  0  0
 11 12  1  0  0  0
 11 97  1  0  0  0
 12 13  2  0  0  0
 12 98  1  0  0  0
 13 14  1  0  0  0
 13 31  1  0  0  0
 14 15  2  0  0  0
 14 99  1  0  0  0
 15100  1  0  0  0
 16 17  2  0  0  0
 16 21  1  0  0  0
 16 31  1  0  0  0
 17 18  1  0  0  0
 17101  1  0  0  0
 18 19  2  0  0  0
 18102  1  0  0  0
 19 20  1  0  0  0
 19 24  1  0  0  0
 20 21  2  0  0  0
 20103  1  0  0  0
 21 23  1  0  0  0
 22 28  1  0  0  0
 22 32  2  0  0  0
 26 27  1  0  0  0
 28104  1  0  0  0
 28105  1  0  0  0
 29106  1  0  0  0
 29107  1  0  0  0
 33 34  1  0  0  0
 33 66  1  0  0  0
 33 70  2  0  0  0
 34 36  1  0  0  0
 34 59  1  0  0  0
 34108  1  0  0  0
 35 44  2  0  0  0
 35 45  1  0  0  0
 35 68  1  0  0  0
 36 56  1  0  0  0
 36109  1  0  0  0
 37 39  1  0  0  0
 37 47  1  0  0  0
 37 66  1  0  0  0
 37110  1  0  0  0
 38 43  2  0  0  0
 38 46  1  0  0  0
 38 47  1  0  0  0
 39 64  1  0  0  0
 39 67  2  0  0  0
 40 52  1  0  0  0
 40 53  2  0  0  0
 40 58  1  0  0  0
 41111  1  0  0  0
 41112  1  0  0  0
 41113  1  0  0  0
 41 48  1  0  0  0
 42 43  1  0  0  0
 42 66  1  0  0  0
 42114  1  0  0  0
 42115  1  0  0  0
 43 44  1  0  0  0
 44116  1  0  0  0
 45 46  2  0  0  0
 45117  1  0  0  0
 46118  1  0  0  0
 47119  1  0  0  0
 47120  1  0  0  0
 48 56  1  0  0  0
 48 65  1  0  0  0
 48121  1  0  0  0
 49 50  1  0  0  0
 49 53  1  0  0  0
 49 64  1  0  0  0
 49122  1  0  0  0
 50 51  1  0  0  0
 50123  1  0  0  0
 50124  1  0  0  0
 51 52  1  0  0  0
 51125  1  0  0  0
 51126  1  0  0  0
 52127  1  0  0  0
 52128  1  0  0  0
 53 54  1  0  0  0
 54 55  2  0  0  0
 54129  1  0  0  0
 55 57  1  0  0  0
 55130  1  0  0  0
 56 69  2  0  0  0
 57 58  2  0  0  0
 57131  1  0  0  0
 58132  1  0  0  0
 59 60  1  0  0  0
 59 61  1  0  0  0
 59 62  1  0  0  0
 60133  1  0  0  0
 60134  1  0  0  0
 60135  1  0  0  0
 61136  1  0  0  0
 61137  1  0  0  0
 61138  1  0  0  0
 62139  1  0  0  0
 62140  1  0  0  0
 62141  1  0  0  0
 63 65  1  0  0  0
 63142  1  0  0  0
 63143  1  0  0  0
 63144  1  0  0  0
 64145  1  0  0  0
 65146  1  0  0  0
 68 82  1  0  0  0
 71 73  2  0  0  0
 71 74  1  0  0  0
 71147  1  0  0  0
 72 73  1  0  0  0
 72 75  2  0  0  0
 72148  1  0  0  0
 73 81  1  0  0  0
 74 76  2  0  0  0
 74 83  1  0  0  0
 75 76  1  0  0  0
 75 86  1  0  0  0
 76 87  1  0  0  0
 77 79  1  0  0  0
 77 81  1  0  0  0
 77149  1  0  0  0
 77150  1  0  0  0
 78 80  1  0  0  0
 78 81  1  0  0  0
 78151  1  0  0  0
 78152  1  0  0  0
 79 82  1  0  0  0
 79153  1  0  0  0
 79154  1  0  0  0
 80 82  1  0  0  0
 80155  1  0  0  0
 80156  1  0  0  0
 81157  1  0  0  0
 82158  1  0  0  0
 83159  1  0  0  0
 83160  1  0  0  0
 83161  1  0  0  0
 84162  1  0  0  0
 84163  1  0  0  0
 84164  1  0  0  0
 84 86  1  0  0  0
 85 86  1  0  0  0
 85165  1  0  0  0
 85166  1  0  0  0
 85167  1  0  0  0
 86168  1  0  0  0
 87169  1  0  0  0
M  ISO  4   1 100  68 101  82 101  87 100
M  END
> <chiral flag>
0

> <version>
0

> <s_m_source_file>
/data/baiqing/PycharmProjects/Reinvent-master-3.2/result/LINK_invent/BTK/process_docking_weight1_custom_sum_contain_oxygen_bond_distance_aromatic_linkinvent_7_9_3/rearranged_h_0156.sdf

> <i_m_source_file_index>
58

> <r_mmod_Potential_Energy-OPLS-2005>
158.980087280273

> <r_mmod_Stretch_Energy-OPLS-2005>
118.186828613281

> <r_mmod_Bend_Energy-OPLS-2005>
172.138473510742

> <r_mmod_Torsional_Energy-OPLS-2005>
262.213562011719

> <r_mmod_Improper_Torsional_Energy-OPLS-2005>
5.17218971252441

> <r_mmod_Van_der_Waal_Energy-OPLS-2005>
132.394515991211

> <r_mmod_Electrostatic_Energy-OPLS-2005>
-414.34130859375

> <r_mmod_Solvation_Energy-OPLS-2005>
-193.877105712891

> <b_mmod_Minimization_Converged-OPLS-2005>
0

> <r_mmod_RMS_Derivative-OPLS-2005>
2.49273872375488

$$$$
58
                    3D
 Structure written by MMmdl.
180188  0  0  1  0            999 V2000
  -30.7175  -14.3930   20.6819 C   0  0  0  0  0  0
  -30.4333  -12.3000   19.4024 C   0  0  0  0  0  0
  -29.4943  -12.5349   18.2015 C   0  0  0  0  0  0
  -28.0160  -12.3883   18.6126 C   0  0  0  0  0  0
  -27.6711  -13.1986   19.8891 C   0  0  2  0  0  0
  -28.7048  -12.9134   21.0015 C   0  0  0  0  0  0
  -25.2610  -13.8140   20.5666 C   0  0  0  0  0  0
  -24.1847  -13.0425   20.9153 C   0  0  0  0  0  0
  -24.6391  -11.6900   20.8723 C   0  0  0  0  0  0
  -23.9053  -10.4286   21.0400 C   0  0  0  0  0  0
  -24.3606   -9.4205   21.9174 C   0  0  0  0  0  0
  -23.6289   -8.2248   22.0753 C   0  0  0  0  0  0
  -22.4269   -8.0285   21.3546 C   0  0  0  0  0  0
  -21.9899   -9.0252   20.4647 C   0  0  0  0  0  0
  -22.7228  -10.2134   20.3052 C   0  0  0  0  0  0
  -21.6849   -6.0734   22.5283 C   0  0  0  0  0  0
  -21.4012   -6.5637   23.8213 C   0  0  0  0  0  0
  -21.3658   -5.6790   24.9175 C   0  0  0  0  0  0
  -21.6042   -4.3054   24.7223 C   0  0  0  0  0  0
  -21.8821   -3.8145   23.4345 C   0  0  0  0  0  0
  -21.9191   -4.6963   22.3402 C   0  0  0  0  0  0
  -22.7870  -13.5243   21.1823 C   0  0  0  0  0  0
  -22.1661   -4.2147   21.0982 F   0  0  0  0  0  0
  -21.5625   -3.4544   25.7738 F   0  0  0  0  0  0
  -30.0508  -13.2256   20.4801 N   0  0  0  0  0  0
  -26.3054  -12.9304   20.3400 N   0  0  0  0  0  0
  -25.9314  -11.6458   20.5744 N   0  0  0  0  0  0
  -22.0503  -12.8240   22.0394 N   0  0  0  0  0  0
  -25.4338  -15.1855   20.4074 N   0  0  0  0  0  0
  -31.7403  -14.7093   20.0681 O   0  0  0  0  0  0
  -21.6640   -6.8882   21.4242 O   0  0  0  0  0  0
  -22.3561  -14.5542   20.6681 O   0  0  0  0  0  0
  -24.6068  -31.8714   23.2107 C   0  0  0  0  0  0
  -25.8974  -32.4845   23.8406 C   0  0  1  0  0  0
  -27.2363  -27.4641   20.1082 C   0  0  0  0  0  0
  -25.5842  -33.8634   24.2341 N   0  0  0  0  0  0
  -23.3964  -30.4950   21.5486 C   0  0  2  0  0  0
  -24.8462  -28.9606   20.1165 C   0  0  0  0  0  0
  -22.7380  -29.4673   22.4975 C   0  0  0  0  0  0
  -18.0257  -28.1367   22.8487 C   0  0  0  0  0  0
  -24.1481  -36.7293   23.2656 C   0  0  0  0  0  0
  -25.9210  -30.8473   21.3603 C   0  0  0  0  0  0
  -26.0022  -29.4828   20.7110 C   0  0  0  0  0  0
  -27.2014  -28.7416   20.7027 C   0  0  0  0  0  0
  -26.0680  -26.9459   19.5103 C   0  0  0  0  0  0
  -24.8717  -27.6898   19.5132 C   0  0  0  0  0  0
  -23.6076  -29.8250   20.1640 C   0  0  0  0  0  0
  -25.4096  -36.3111   24.0369 C   0  0  1  0  0  0
  -20.5860  -28.3644   23.1301 C   0  0  2  0  0  0
  -20.6743  -26.9375   22.5398 C   0  0  0  0  0  0
  -19.5733  -26.6371   21.5187 C   0  0  0  0  0  0
  -18.1914  -26.7917   22.1610 C   0  0  0  0  0  0
  -19.1518  -28.8814   23.2905 C   0  0  0  0  0  0
  -18.9467  -30.1427   23.8914 C   0  0  0  0  0  0
  -17.6481  -30.6587   24.0564 C   0  0  0  0  0  0
  -25.9013  -34.9486   23.5158 C   0  0  0  0  0  0
  -16.5359  -29.9104   23.6339 C   0  0  0  0  0  0
  -16.7252  -28.6526   23.0338 C   0  0  0  0  0  0
  -26.4420  -31.6626   25.0713 C   0  0  0  0  0  0
  -25.3697  -31.3728   26.1495 C   0  0  0  0  0  0
  -27.0273  -30.3100   24.6017 C   0  0  0  0  0  0
  -27.6003  -32.4350   25.7446 C   0  0  0  0  0  0
  -27.5576  -37.1775   24.8477 C   0  0  0  0  0  0
  -21.4112  -29.3031   22.3708 N   0  0  0  0  0  0
  -26.4284  -37.3782   23.9431 N   0  0  0  0  0  0
  -24.6596  -31.0855   22.0988 N   0  0  0  0  0  0
  -23.4167  -28.8192   23.2990 O   0  0  0  0  0  0
  -28.4045  -26.7456   20.0918 O   0  0  0  0  0  0
  -26.5591  -34.8946   22.4730 O   0  0  0  0  0  0
  -23.5262  -32.1421   23.7528 O   0  0  0  0  0  0
  -29.2997  -18.2057   23.2834 C   0  0  2  0  0  0
  -30.2204  -16.6686   21.5654 C   0  0  2  0  0  0
  -30.4837  -17.2546   22.9748 C   0  0  1  0  0  0
  -28.6263  -18.5251   21.9360 C   0  0  1  0  0  0
  -28.8626  -17.2474   21.1049 C   0  0  1  0  0  0
  -29.7857  -24.1247   19.3642 C   0  0  0  0  0  0
  -26.7862  -20.0779   22.0536 C   0  0  0  0  0  0
  -27.7552  -18.0394   19.1368 C   0  0  0  0  0  0
  -29.5790  -19.4141   24.2146 C   0  0  0  0  0  0
  -31.3237  -22.8342   23.6895 C   0  0  0  0  0  0
  -30.2804  -21.7987   24.1721 C   0  0  0  0  0  0
  -31.2327  -23.2746   22.2103 C   0  0  0  0  0  0
  -28.3742  -25.5727   20.9037 C   0  0  0  0  0  0
  -29.7082  -24.8145   20.7396 C   0  0  2  0  0  0
  -30.1417  -15.2076   21.5744 N   0  0  0  0  0  0
  -30.4788  -20.4364   23.6249 N   0  3  0  0  0  0
  -29.9102  -23.8135   21.8133 N   0  3  0  0  0  0
  -31.7301  -17.9339   22.9677 O   0  0  0  0  0  0
  -27.2209  -18.7247   22.1063 O   0  0  0  0  0  0
  -28.9209  -17.4504   19.6954 O   0  0  0  0  0  0
  -31.4719  -12.4323   19.0932 H   0  0  0  0  0  0
  -30.3591  -11.2686   19.7509 H   0  0  0  0  0  0
  -29.7287  -11.8366   17.3969 H   0  0  0  0  0  0
  -29.6634  -13.5345   17.7970 H   0  0  0  0  0  0
  -27.8200  -11.3291   18.7830 H   0  0  0  0  0  0
  -27.3664  -12.6889   17.7896 H   0  0  0  0  0  0
  -27.7377  -14.2566   19.6326 H   0  0  0  0  0  0
  -28.6666  -11.8609   21.2868 H   0  0  0  0  0  0
  -28.4432  -13.4560   21.9101 H   0  0  0  0  0  0
  -25.2756   -9.5687   22.4742 H   0  0  0  0  0  0
  -23.9996   -7.4641   22.7479 H   0  0  0  0  0  0
  -21.0823   -8.8764   19.8963 H   0  0  0  0  0  0
  -22.3674  -10.9664   19.6162 H   0  0  0  0  0  0
  -21.2008   -7.6148   23.9714 H   0  0  0  0  0  0
  -21.1475   -6.0525   25.9077 H   0  0  0  0  0  0
  -22.0602   -2.7609   23.2847 H   0  0  0  0  0  0
  -22.4100  -11.9893   22.4773 H   0  0  0  0  0  0
  -21.1131  -13.1285   22.2603 H   0  0  0  0  0  0
  -24.6677  -15.8412   20.5159 H   0  0  0  0  0  0
  -26.2863  -15.6165   20.0781 H   0  0  0  0  0  0
  -26.7056  -32.5588   23.1186 H   0  0  0  0  0  0
  -24.9960  -33.9817   25.0462 H   0  0  0  0  0  0
  -22.6823  -31.3091   21.4053 H   0  0  0  0  0  0
  -23.3757  -35.9616   23.3332 H   0  0  0  0  0  0
  -24.3572  -36.8870   22.2063 H   0  0  0  0  0  0
  -23.7216  -37.6497   23.6640 H   0  0  0  0  0  0
  -26.0246  -31.6104   20.5877 H   0  0  0  0  0  0
  -26.8111  -30.9067   21.9740 H   0  0  0  0  0  0
  -28.0956  -29.1412   21.1614 H   0  0  0  0  0  0
  -26.0855  -25.9738   19.0387 H   0  0  0  0  0  0
  -23.9839  -27.2777   19.0536 H   0  0  0  0  0  0
  -23.7174  -30.5966   19.4006 H   0  0  0  0  0  0
  -22.7346  -29.2396   19.8714 H   0  0  0  0  0  0
  -25.1269  -36.1976   25.0860 H   0  0  0  0  0  0
  -20.9955  -28.3199   24.1417 H   0  0  0  0  0  0
  -20.5579  -26.2257   23.3587 H   0  0  0  0  0  0
  -21.6625  -26.7377   22.1223 H   0  0  0  0  0  0
  -19.6887  -25.6282   21.1211 H   0  0  0  0  0  0
  -19.6682  -27.3188   20.6728 H   0  0  0  0  0  0
  -17.4155  -26.6641   21.4027 H   0  0  0  0  0  0
  -18.0337  -26.0057   22.9010 H   0  0  0  0  0  0
  -19.7958  -30.7227   24.2266 H   0  0  0  0  0  0
  -17.5060  -31.6272   24.5158 H   0  0  0  0  0  0
  -15.5369  -30.3028   23.7655 H   0  0  0  0  0  0
  -15.8652  -28.0876   22.7029 H   0  0  0  0  0  0
  -24.5882  -30.7056   25.7836 H   0  0  0  0  0  0
  -24.8878  -32.2899   26.4917 H   0  0  0  0  0  0
  -25.8086  -30.8902   27.0245 H   0  0  0  0  0  0
  -26.2807  -29.6827   24.1131 H   0  0  0  0  0  0
  -27.4177  -29.7362   25.4423 H   0  0  0  0  0  0
  -27.8582  -30.4503   23.9094 H   0  0  0  0  0  0
  -27.2635  -33.3672   26.2021 H   0  0  0  0  0  0
  -28.3785  -32.6891   25.0220 H   0  0  0  0  0  0
  -28.0705  -31.8461   26.5333 H   0  0  0  0  0  0
  -28.2583  -38.0074   24.7543 H   0  0  0  0  0  0
  -28.1070  -36.2598   24.6292 H   0  0  0  0  0  0
  -27.2302  -37.1467   25.8882 H   0  0  0  0  0  0
  -20.9225  -29.8832   21.7039 H   0  0  0  0  0  0
  -26.0182  -38.2859   24.1447 H   0  0  0  0  0  0
  -28.5794  -17.5867   23.8222 H   0  0  0  0  0  0
  -30.9960  -17.0123   20.8751 H   0  0  0  0  0  0
  -30.5319  -16.4750   23.7381 H   0  0  0  0  0  0
  -29.1120  -19.3699   21.4439 H   0  0  0  0  0  0
  -28.0665  -16.5354   21.3381 H   0  0  0  0  0  0
  -29.6941  -24.8500   18.5524 H   0  0  0  0  0  0
  -28.9849  -23.3947   19.2334 H   0  0  0  0  0  0
  -30.7345  -23.6043   19.2280 H   0  0  0  0  0  0
  -25.7112  -20.1206   22.2302 H   0  0  0  0  0  0
  -26.9738  -20.5194   21.0745 H   0  0  0  0  0  0
  -27.2674  -20.6990   22.8088 H   0  0  0  0  0  0
  -27.7754  -17.9426   18.0520 H   0  0  0  0  0  0
  -27.7110  -19.1035   19.3688 H   0  0  0  0  0  0
  -26.8423  -17.5645   19.4980 H   0  0  0  0  0  0
  -30.0153  -19.0730   25.1550 H   0  0  0  0  0  0
  -28.6249  -19.8690   24.4835 H   0  0  0  0  0  0
  -32.3275  -22.4450   23.8772 H   0  0  0  0  0  0
  -31.2357  -23.7199   24.3195 H   0  0  0  0  0  0
  -29.2723  -22.1405   23.9351 H   0  0  0  0  0  0
  -30.3252  -21.7400   25.2607 H   0  0  0  0  0  0
  -31.4747  -22.4336   21.5607 H   0  0  0  0  0  0
  -31.9952  -24.0328   22.0232 H   0  0  0  0  0  0
  -27.5433  -24.9166   20.6357 H   0  0  0  0  0  0
  -28.2236  -25.8777   21.9414 H   0  0  0  0  0  0
  -30.5189  -25.5404   20.8181 H   0  0  0  0  0  0
  -29.3764  -14.8017   22.0907 H   0  0  0  0  0  0
  -30.3475  -20.4433   22.6274 H   0  0  0  0  0  0
  -31.4233  -20.1155   23.7914 H   0  0  0  0  0  0
  -30.2639  -23.3888   20.9695 H   0  0  0  0  0  0
  -30.1873  -24.6194   22.3560 H   0  0  0  0  0  0
  -32.4093  -17.2800   22.8152 H   0  0  0  0  0  0
  1 25  1  0  0  0
  1 30  2  0  0  0
  1 85  1  0  0  0
  2  3  1  0  0  0
  2 25  1  0  0  0
  2 91  1  0  0  0
  2 92  1  0  0  0
  3  4  1  0  0  0
  3 93  1  0  0  0
  3 94  1  0  0  0
  4  5  1  0  0  0
  4 95  1  0  0  0
  4 96  1  0  0  0
  5  6  1  0  0  0
  5 26  1  0  0  0
  5 97  1  0  0  0
  6 25  1  0  0  0
  6 98  1  0  0  0
  6 99  1  0  0  0
  7  8  2  0  0  0
  7 26  1  0  0  0
  7 29  1  0  0  0
  8  9  1  0  0  0
  8 22  1  0  0  0
  9 10  1  0  0  0
  9 27  2  0  0  0
 10 11  2  0  0  0
 10 15  1  0  0  0
 11 12  1  0  0  0
 11100  1  0  0  0
 12 13  2  0  0  0
 12101  1  0  0  0
 13 14  1  0  0  0
 13 31  1  0  0  0
 14 15  2  0  0  0
 14102  1  0  0  0
 15103  1  0  0  0
 16 17  2  0  0  0
 16 21  1  0  0  0
 16 31  1  0  0  0
 17 18  1  0  0  0
 17104  1  0  0  0
 18 19  2  0  0  0
 18105  1  0  0  0
 19 20  1  0  0  0
 19 24  1  0  0  0
 20 21  2  0  0  0
 20106  1  0  0  0
 21 23  1  0  0  0
 22 28  1  0  0  0
 22 32  2  0  0  0
 26 27  1  0  0  0
 28107  1  0  0  0
 28108  1  0  0  0
 29109  1  0  0  0
 29110  1  0  0  0
 33 34  1  0  0  0
 33 66  1  0  0  0
 33 70  2  0  0  0
 34 36  1  0  0  0
 34 59  1  0  0  0
 34111  1  0  0  0
 35 44  2  0  0  0
 35 45  1  0  0  0
 35 68  1  0  0  0
 36 56  1  0  0  0
 36112  1  0  0  0
 37 39  1  0  0  0
 37 47  1  0  0  0
 37 66  1  0  0  0
 37113  1  0  0  0
 38 43  2  0  0  0
 38 46  1  0  0  0
 38 47  1  0  0  0
 39 64  1  0  0  0
 39 67  2  0  0  0
 40 52  1  0  0  0
 40 53  2  0  0  0
 40 58  1  0  0  0
 41114  1  0  0  0
 41115  1  0  0  0
 41116  1  0  0  0
 41 48  1  0  0  0
 42 43  1  0  0  0
 42 66  1  0  0  0
 42117  1  0  0  0
 42118  1  0  0  0
 43 44  1  0  0  0
 44119  1  0  0  0
 45 46  2  0  0  0
 45120  1  0  0  0
 46121  1  0  0  0
 47122  1  0  0  0
 47123  1  0  0  0
 48 56  1  0  0  0
 48 65  1  0  0  0
 48124  1  0  0  0
 49 50  1  0  0  0
 49 53  1  0  0  0
 49 64  1  0  0  0
 49125  1  0  0  0
 50 51  1  0  0  0
 50126  1  0  0  0
 50127  1  0  0  0
 51 52  1  0  0  0
 51128  1  0  0  0
 51129  1  0  0  0
 52130  1  0  0  0
 52131  1  0  0  0
 53 54  1  0  0  0
 54 55  2  0  0  0
 54132  1  0  0  0
 55 57  1  0  0  0
 55133  1  0  0  0
 56 69  2  0  0  0
 57 58  2  0  0  0
 57134  1  0  0  0
 58135  1  0  0  0
 59 60  1  0  0  0
 59 61  1  0  0  0
 59 62  1  0  0  0
 60136  1  0  0  0
 60137  1  0  0  0
 60138  1  0  0  0
 61139  1  0  0  0
 61140  1  0  0  0
 61141  1  0  0  0
 62142  1  0  0  0
 62143  1  0  0  0
 62144  1  0  0  0
 63 65  1  0  0  0
 63145  1  0  0  0
 63146  1  0  0  0
 63147  1  0  0  0
 64148  1  0  0  0
 65149  1  0  0  0
 68 83  1  0  0  0
 71 73  1  0  0  0
 71 74  1  0  0  0
 71 79  1  0  0  0
 71150  1  0  0  0
 72 73  1  0  0  0
 72 75  1  0  0  0
 72 85  1  0  0  0
 72151  1  0  0  0
 73 88  1  0  0  0
 73152  1  0  0  0
 74 75  1  0  0  0
 74 89  1  0  0  0
 74153  1  0  0  0
 75 90  1  0  0  0
 75154  1  0  0  0
 76155  1  0  0  0
 76156  1  0  0  0
 76157  1  0  0  0
 76 84  1  0  0  0
 77 89  1  0  0  0
 77158  1  0  0  0
 77159  1  0  0  0
 77160  1  0  0  0
 78 90  1  0  0  0
 78161  1  0  0  0
 78162  1  0  0  0
 78163  1  0  0  0
 79 86  1  0  0  0
 79164  1  0  0  0
 79165  1  0  0  0
 80 81  1  0  0  0
 80 82  1  0  0  0
 80166  1  0  0  0
 80167  1  0  0  0
 81 86  1  0  0  0
 81168  1  0  0  0
 81169  1  0  0  0
 82 87  1  0  0  0
 82170  1  0  0  0
 82171  1  0  0  0
 83 84  1  0  0  0
 83172  1  0  0  0
 83173  1  0  0  0
 84 87  1  0  0  0
 84174  1  0  0  0
 85175  1  0  0  0
 86176  1  0  0  0
 86177  1  0  0  0
 87178  1  0  0  0
 87179  1  0  0  0
 88180  1  0  0  0
M  CHG  2  86   1  87   1
M  ISO  4   1 100  68 101  83 101  85 100
M  END
> <chiral flag>
0

> <version>
0

> <s_m_source_file>
/data/baiqing/PycharmProjects/Reinvent-master-3.2/result/LINK_invent/BTK/process_docking_weight1_custom_sum_contain_oxygen_bond_distance_aromatic_linkinvent_7_9_3/rearranged_h_0156.sdf

> <i_m_source_file_index>
59

> <r_mmod_Potential_Energy-OPLS-2005>
-94.9832229614258

> <r_mmod_Stretch_Energy-OPLS-2005>
34.9451065063477

> <r_mmod_Bend_Energy-OPLS-2005>
323.42822265625

> <r_mmod_Torsional_Energy-OPLS-2005>
324.814392089844

> <r_mmod_Improper_Torsional_Energy-OPLS-2005>
3.20048046112061

> <r_mmod_Van_der_Waal_Energy-OPLS-2005>
119.834747314453

> <r_mmod_Electrostatic_Energy-OPLS-2005>
68.106315612793

> <r_mmod_Solvation_Energy-OPLS-2005>
-977.108581542969

> <b_mmod_Minimization_Converged-OPLS-2005>
0

> <r_mmod_RMS_Derivative-OPLS-2005>
3.294020652771

$$$$
59
                    3D
 Structure written by MMmdl.
161170  0  0  1  0            999 V2000
  -30.6735  -14.6352   20.4467 C   0  0  0  0  0  0
  -30.4131  -12.3833   19.4590 C   0  0  0  0  0  0
  -29.4974  -12.4862   18.2224 C   0  0  0  0  0  0
  -28.0216  -12.3342   18.6364 C   0  0  0  0  0  0
  -27.6402  -13.2294   19.8472 C   0  0  2  0  0  0
  -28.6864  -13.1459   20.9803 C   0  0  0  0  0  0
  -25.2500  -13.8201   20.5694 C   0  0  0  0  0  0
  -24.1791  -13.0446   20.9206 C   0  0  0  0  0  0
  -24.6380  -11.6925   20.8742 C   0  0  0  0  0  0
  -23.9069  -10.4304   21.0406 C   0  0  0  0  0  0
  -24.3620   -9.4217   21.9179 C   0  0  0  0  0  0
  -23.6296   -8.2250   22.0752 C   0  0  0  0  0  0
  -22.4277   -8.0284   21.3544 C   0  0  0  0  0  0
  -21.9915   -9.0255   20.4645 C   0  0  0  0  0  0
  -22.7241  -10.2137   20.3055 C   0  0  0  0  0  0
  -21.6851   -6.0737   22.5279 C   0  0  0  0  0  0
  -21.4014   -6.5641   23.8214 C   0  0  0  0  0  0
  -21.3658   -5.6790   24.9173 C   0  0  0  0  0  0
  -21.6045   -4.3055   24.7224 C   0  0  0  0  0  0
  -21.8818   -3.8148   23.4345 C   0  0  0  0  0  0
  -21.9193   -4.6965   22.3398 C   0  0  0  0  0  0
  -22.7813  -13.5222   21.1868 C   0  0  0  0  0  0
  -22.1659   -4.2153   21.0974 F   0  0  0  0  0  0
  -21.5630   -3.4539   25.7735 F   0  0  0  0  0  0
  -29.9954  -13.4479   20.3930 N   0  0  0  0  0  0
  -26.2924  -12.9409   20.3277 N   0  0  0  0  0  0
  -25.9311  -11.6554   20.5751 N   0  0  0  0  0  0
  -22.0462  -12.8210   22.0422 N   0  0  0  0  0  0
  -25.4184  -15.1926   20.4127 N   0  0  0  0  0  0
  -31.8772  -14.6738   20.1865 O   0  0  0  0  0  0
  -21.6637   -6.8878   21.4240 O   0  0  0  0  0  0
  -22.3494  -14.5526   20.6711 O   0  0  0  0  0  0
  -24.6232  -31.8604   23.2031 C   0  0  0  0  0  0
  -25.9082  -32.4782   23.8360 C   0  0  1  0  0  0
  -27.2266  -27.3319   20.1069 C   0  0  0  0  0  0
  -25.5902  -33.8588   24.2286 N   0  0  0  0  0  0
  -23.4170  -30.4824   21.5445 C   0  0  2  0  0  0
  -24.8644  -28.9363   20.1091 C   0  0  0  0  0  0
  -22.7466  -29.4615   22.4937 C   0  0  0  0  0  0
  -18.0286  -28.1366   22.8484 C   0  0  0  0  0  0
  -24.1490  -36.7299   23.2638 C   0  0  0  0  0  0
  -25.9558  -30.7917   21.3748 C   0  0  0  0  0  0
  -26.0289  -29.4192   20.7170 C   0  0  0  0  0  0
  -27.2093  -28.6249   20.7128 C   0  0  0  0  0  0
  -26.0350  -26.8869   19.4917 C   0  0  0  0  0  0
  -24.8673  -27.6747   19.4912 C   0  0  0  0  0  0
  -23.6325  -29.8153   20.1592 C   0  0  0  0  0  0
  -25.4113  -36.3096   24.0335 C   0  0  1  0  0  0
  -20.5882  -28.3668   23.1293 C   0  0  2  0  0  0
  -20.6756  -26.9383   22.5431 C   0  0  0  0  0  0
  -19.5747  -26.6371   21.5210 C   0  0  0  0  0  0
  -18.1924  -26.7916   22.1612 C   0  0  0  0  0  0
  -19.1537  -28.8830   23.2881 C   0  0  0  0  0  0
  -18.9462  -30.1431   23.8900 C   0  0  0  0  0  0
  -17.6465  -30.6569   24.0565 C   0  0  0  0  0  0
  -25.9052  -34.9462   23.5118 C   0  0  0  0  0  0
  -16.5357  -29.9074   23.6319 C   0  0  0  0  0  0
  -16.7278  -28.6490   23.0343 C   0  0  0  0  0  0
  -26.4476  -31.6597   25.0731 C   0  0  0  0  0  0
  -25.3693  -31.3726   26.1446 C   0  0  0  0  0  0
  -27.0301  -30.3020   24.6179 C   0  0  0  0  0  0
  -27.6056  -32.4317   25.7483 C   0  0  0  0  0  0
  -27.5588  -37.1795   24.8457 C   0  0  0  0  0  0
  -21.4184  -29.3027   22.3688 N   0  0  0  0  0  0
  -26.4302  -37.3786   23.9405 N   0  0  0  0  0  0
  -24.6838  -31.0618   22.0973 N   0  0  0  0  0  0
  -23.4200  -28.8155   23.3012 O   0  0  0  0  0  0
  -28.3682  -26.5263   20.1735 O   0  0  0  0  0  0
  -26.5633  -34.8920   22.4699 O   0  0  0  0  0  0
  -23.5405  -32.1410   23.7370 O   0  0  0  0  0  0
  -29.9594  -20.8050   19.3296 C   0  0  0  0  0  0
  -28.7447  -20.4725   21.3957 C   0  0  0  0  0  0
  -30.2435  -19.4150   19.3190 C   0  0  0  0  0  0
  -29.8403  -18.5359   20.3332 C   0  0  0  0  0  0
  -29.2411  -21.3800   20.4077 C   0  0  0  0  0  0
  -29.0331  -19.0569   21.3762 C   0  0  0  0  0  0
  -31.1030  -18.7183   18.2989 C   0  0  0  0  0  0
  -31.0586  -17.2301   18.7083 C   0  0  0  0  0  0
  -30.5573  -17.1533   20.1780 C   0  0  2  0  0  0
  -27.6162  -18.6053   23.2540 C   0  0  0  0  0  0
  -29.2189  -22.9438   20.5907 C   0  0  0  0  0  0
  -28.1110  -23.8463   19.9099 C   0  0  0  0  0  0
  -28.5115  -25.2970   19.3800 C   0  0  0  0  0  0
  -29.9599  -15.8078   20.5106 N   0  0  0  0  0  0
  -28.6210  -18.1714   22.3474 O   0  0  0  0  0  0
  -31.4589  -12.4710   19.1590 H   0  0  0  0  0  0
  -30.3188  -11.4045   19.9315 H   0  0  0  0  0  0
  -29.7611  -11.7205   17.4915 H   0  0  0  0  0  0
  -29.6445  -13.4472   17.7263 H   0  0  0  0  0  0
  -27.8603  -11.2845   18.8870 H   0  0  0  0  0  0
  -27.3677  -12.5456   17.7894 H   0  0  0  0  0  0
  -27.6410  -14.2539   19.4739 H   0  0  0  0  0  0
  -28.6937  -12.1526   21.4312 H   0  0  0  0  0  0
  -28.4468  -13.8485   21.7804 H   0  0  0  0  0  0
  -25.2765   -9.5688   22.4755 H   0  0  0  0  0  0
  -24.0002   -7.4642   22.7474 H   0  0  0  0  0  0
  -21.0847   -8.8775   19.8950 H   0  0  0  0  0  0
  -22.3698  -10.9673   19.6167 H   0  0  0  0  0  0
  -21.2007   -7.6152   23.9715 H   0  0  0  0  0  0
  -21.1481   -6.0522   25.9072 H   0  0  0  0  0  0
  -22.0598   -2.7615   23.2841 H   0  0  0  0  0  0
  -22.4085  -11.9876   22.4814 H   0  0  0  0  0  0
  -21.1077  -13.1226   22.2626 H   0  0  0  0  0  0
  -24.6507  -15.8451   20.5275 H   0  0  0  0  0  0
  -26.2674  -15.6380   20.0894 H   0  0  0  0  0  0
  -26.7144  -32.5458   23.1104 H   0  0  0  0  0  0
  -24.9988  -33.9737   25.0382 H   0  0  0  0  0  0
  -22.7103  -31.3014   21.3992 H   0  0  0  0  0  0
  -23.3757  -35.9622   23.3307 H   0  0  0  0  0  0
  -24.3562  -36.8930   22.2048 H   0  0  0  0  0  0
  -23.7237  -37.6501   23.6662 H   0  0  0  0  0  0
  -26.0858  -31.5538   20.6057 H   0  0  0  0  0  0
  -26.8370  -30.8407   22.0034 H   0  0  0  0  0  0
  -28.1040  -28.9878   21.2004 H   0  0  0  0  0  0
  -25.9739  -25.9101   19.0347 H   0  0  0  0  0  0
  -23.9699  -27.2968   19.0214 H   0  0  0  0  0  0
  -23.7528  -30.5912   19.4025 H   0  0  0  0  0  0
  -22.7533  -29.2436   19.8584 H   0  0  0  0  0  0
  -25.1289  -36.1972   25.0829 H   0  0  0  0  0  0
  -20.9969  -28.3254   24.1415 H   0  0  0  0  0  0
  -20.5628  -26.2273   23.3636 H   0  0  0  0  0  0
  -21.6626  -26.7392   22.1240 H   0  0  0  0  0  0
  -19.6909  -25.6282   21.1230 H   0  0  0  0  0  0
  -19.6707  -27.3188   20.6741 H   0  0  0  0  0  0
  -17.4202  -26.6688   21.4010 H   0  0  0  0  0  0
  -18.0306  -26.0050   22.8990 H   0  0  0  0  0  0
  -19.7945  -30.7232   24.2289 H   0  0  0  0  0  0
  -17.5025  -31.6253   24.5158 H   0  0  0  0  0  0
  -15.5354  -30.2973   23.7630 H   0  0  0  0  0  0
  -15.8683  -28.0814   22.7041 H   0  0  0  0  0  0
  -24.5967  -30.6956   25.7791 H   0  0  0  0  0  0
  -24.8732  -32.2855   26.4759 H   0  0  0  0  0  0
  -25.8012  -30.9039   27.0294 H   0  0  0  0  0  0
  -26.2872  -29.6788   24.1193 H   0  0  0  0  0  0
  -27.3979  -29.7281   25.4692 H   0  0  0  0  0  0
  -27.8753  -30.4302   23.9407 H   0  0  0  0  0  0
  -27.2712  -33.3635   26.2058 H   0  0  0  0  0  0
  -28.3856  -32.6847   25.0287 H   0  0  0  0  0  0
  -28.0726  -31.8432   26.5396 H   0  0  0  0  0  0
  -28.2607  -38.0092   24.7503 H   0  0  0  0  0  0
  -28.1091  -36.2626   24.6289 H   0  0  0  0  0  0
  -27.2303  -37.1453   25.8860 H   0  0  0  0  0  0
  -20.9362  -29.8781   21.6926 H   0  0  0  0  0  0
  -26.0207  -38.2869   24.1413 H   0  0  0  0  0  0
  -30.3743  -21.4416   18.5603 H   0  0  0  0  0  0
  -28.2012  -20.9002   22.2251 H   0  0  0  0  0  0
  -32.1199  -19.1088   18.3603 H   0  0  0  0  0  0
  -30.7356  -18.8782   17.2846 H   0  0  0  0  0  0
  -32.0102  -16.7248   18.5406 H   0  0  0  0  0  0
  -30.3217  -16.7382   18.0711 H   0  0  0  0  0  0
  -31.4305  -17.2505   20.8257 H   0  0  0  0  0  0
  -27.2783  -17.7581   23.8510 H   0  0  0  0  0  0
  -26.7473  -19.0028   22.7267 H   0  0  0  0  0  0
  -27.9977  -19.3612   23.9414 H   0  0  0  0  0  0
  -30.1903  -23.2918   20.2381 H   0  0  0  0  0  0
  -29.2292  -23.1610   21.6594 H   0  0  0  0  0  0
  -27.2157  -23.8941   20.5289 H   0  0  0  0  0  0
  -27.8005  -23.2950   19.0207 H   0  0  0  0  0  0
  -28.0201  -25.4587   18.4210 H   0  0  0  0  0  0
  -29.5642  -25.2577   19.1009 H   0  0  0  0  0  0
  -28.9688  -15.7621   20.6901 H   0  0  0  0  0  0
  1 25  1  0  0  0
  1 30  2  0  0  0
  1 84  1  0  0  0
  2  3  1  0  0  0
  2 25  1  0  0  0
  2 86  1  0  0  0
  2 87  1  0  0  0
  3  4  1  0  0  0
  3 88  1  0  0  0
  3 89  1  0  0  0
  4  5  1  0  0  0
  4 90  1  0  0  0
  4 91  1  0  0  0
  5  6  1  0  0  0
  5 26  1  0  0  0
  5 92  1  0  0  0
  6 25  1  0  0  0
  6 93  1  0  0  0
  6 94  1  0  0  0
  7  8  2  0  0  0
  7 26  1  0  0  0
  7 29  1  0  0  0
  8  9  1  0  0  0
  8 22  1  0  0  0
  9 10  1  0  0  0
  9 27  2  0  0  0
 10 11  2  0  0  0
 10 15  1  0  0  0
 11 12  1  0  0  0
 11 95  1  0  0  0
 12 13  2  0  0  0
 12 96  1  0  0  0
 13 14  1  0  0  0
 13 31  1  0  0  0
 14 15  2  0  0  0
 14 97  1  0  0  0
 15 98  1  0  0  0
 16 17  2  0  0  0
 16 21  1  0  0  0
 16 31  1  0  0  0
 17 18  1  0  0  0
 17 99  1  0  0  0
 18 19  2  0  0  0
 18100  1  0  0  0
 19 20  1  0  0  0
 19 24  1  0  0  0
 20 21  2  0  0  0
 20101  1  0  0  0
 21 23  1  0  0  0
 22 28  1  0  0  0
 22 32  2  0  0  0
 26 27  1  0  0  0
 28102  1  0  0  0
 28103  1  0  0  0
 29104  1  0  0  0
 29105  1  0  0  0
 33 34  1  0  0  0
 33 66  1  0  0  0
 33 70  2  0  0  0
 34 36  1  0  0  0
 34 59  1  0  0  0
 34106  1  0  0  0
 35 44  2  0  0  0
 35 45  1  0  0  0
 35 68  1  0  0  0
 36 56  1  0  0  0
 36107  1  0  0  0
 37 39  1  0  0  0
 37 47  1  0  0  0
 37 66  1  0  0  0
 37108  1  0  0  0
 38 43  2  0  0  0
 38 46  1  0  0  0
 38 47  1  0  0  0
 39 64  1  0  0  0
 39 67  2  0  0  0
 40 52  1  0  0  0
 40 53  2  0  0  0
 40 58  1  0  0  0
 41109  1  0  0  0
 41110  1  0  0  0
 41111  1  0  0  0
 41 48  1  0  0  0
 42 43  1  0  0  0
 42 66  1  0  0  0
 42112  1  0  0  0
 42113  1  0  0  0
 43 44  1  0  0  0
 44114  1  0  0  0
 45 46  2  0  0  0
 45115  1  0  0  0
 46116  1  0  0  0
 47117  1  0  0  0
 47118  1  0  0  0
 48 56  1  0  0  0
 48 65  1  0  0  0
 48119  1  0  0  0
 49 50  1  0  0  0
 49 53  1  0  0  0
 49 64  1  0  0  0
 49120  1  0  0  0
 50 51  1  0  0  0
 50121  1  0  0  0
 50122  1  0  0  0
 51 52  1  0  0  0
 51123  1  0  0  0
 51124  1  0  0  0
 52125  1  0  0  0
 52126  1  0  0  0
 53 54  1  0  0  0
 54 55  2  0  0  0
 54127  1  0  0  0
 55 57  1  0  0  0
 55128  1  0  0  0
 56 69  2  0  0  0
 57 58  2  0  0  0
 57129  1  0  0  0
 58130  1  0  0  0
 59 60  1  0  0  0
 59 61  1  0  0  0
 59 62  1  0  0  0
 60131  1  0  0  0
 60132  1  0  0  0
 60133  1  0  0  0
 61134  1  0  0  0
 61135  1  0  0  0
 61136  1  0  0  0
 62137  1  0  0  0
 62138  1  0  0  0
 62139  1  0  0  0
 63 65  1  0  0  0
 63140  1  0  0  0
 63141  1  0  0  0
 63142  1  0  0  0
 64143  1  0  0  0
 65144  1  0  0  0
 68 83  1  0  0  0
 71 73  2  0  0  0
 71 75  1  0  0  0
 71145  1  0  0  0
 72 75  2  0  0  0
 72 76  1  0  0  0
 72146  1  0  0  0
 73 74  1  0  0  0
 73 77  1  0  0  0
 74 76  2  0  0  0
 74 79  1  0  0  0
 75 81  1  0  0  0
 76 85  1  0  0  0
 77 78  1  0  0  0
 77147  1  0  0  0
 77148  1  0  0  0
 78 79  1  0  0  0
 78149  1  0  0  0
 78150  1  0  0  0
 79 84  1  0  0  0
 79151  1  0  0  0
 80 85  1  0  0  0
 80152  1  0  0  0
 80153  1  0  0  0
 80154  1  0  0  0
 81 82  1  0  0  0
 81155  1  0  0  0
 81156  1  0  0  0
 82 83  1  0  0  0
 82157  1  0  0  0
 82158  1  0  0  0
 83159  1  0  0  0
 83160  1  0  0  0
 84161  1  0  0  0
M  ISO  4   1 100  68 101  83 101  84 100
M  END
> <chiral flag>
0

> <version>
0

> <s_m_source_file>
/data/baiqing/PycharmProjects/Reinvent-master-3.2/result/LINK_invent/BTK/process_docking_weight1_custom_sum_contain_oxygen_bond_distance_aromatic_linkinvent_7_9_3/rearranged_h_0156.sdf

> <i_m_source_file_index>
60

> <r_mmod_Potential_Energy-OPLS-2005>
108.157257080078

> <r_mmod_Stretch_Energy-OPLS-2005>
75.2707595825195

> <r_mmod_Bend_Energy-OPLS-2005>
210.599716186523

> <r_mmod_Torsional_Energy-OPLS-2005>
229.133605957031

> <r_mmod_Improper_Torsional_Energy-OPLS-2005>
9.06261253356934

> <r_mmod_Van_der_Waal_Energy-OPLS-2005>
140.816177368164

> <r_mmod_Electrostatic_Energy-OPLS-2005>
-402.711975097656

> <r_mmod_Solvation_Energy-OPLS-2005>
-204.853607177734

> <b_mmod_Minimization_Converged-OPLS-2005>
0

> <r_mmod_RMS_Derivative-OPLS-2005>
1.55955123901367

$$$$
60
                    3D
 Structure written by MMmdl.
163171  0  0  1  0            999 V2000
  -30.5959  -14.7786   20.4550 C   0  0  0  0  0  0
  -30.4344  -12.4818   19.4797 C   0  0  0  0  0  0
  -29.5126  -12.5158   18.2411 C   0  0  0  0  0  0
  -28.0392  -12.3345   18.6536 C   0  0  0  0  0  0
  -27.6377  -13.2381   19.8502 C   0  0  2  0  0  0
  -28.6811  -13.1858   20.9867 C   0  0  0  0  0  0
  -25.2482  -13.8216   20.5721 C   0  0  0  0  0  0
  -24.1784  -13.0449   20.9242 C   0  0  0  0  0  0
  -24.6380  -11.6929   20.8756 C   0  0  0  0  0  0
  -23.9060  -10.4297   21.0406 C   0  0  0  0  0  0
  -24.3611   -9.4212   21.9175 C   0  0  0  0  0  0
  -23.6302   -8.2238   22.0734 C   0  0  0  0  0  0
  -22.4282   -8.0267   21.3532 C   0  0  0  0  0  0
  -21.9915   -9.0241   20.4637 C   0  0  0  0  0  0
  -22.7240  -10.2125   20.3055 C   0  0  0  0  0  0
  -21.6852   -6.0734   22.5281 C   0  0  0  0  0  0
  -21.4016   -6.5634   23.8216 C   0  0  0  0  0  0
  -21.3663   -5.6786   24.9177 C   0  0  0  0  0  0
  -21.6045   -4.3048   24.7227 C   0  0  0  0  0  0
  -21.8819   -3.8143   23.4346 C   0  0  0  0  0  0
  -21.9200   -4.6964   22.3407 C   0  0  0  0  0  0
  -22.7797  -13.5215   21.1902 C   0  0  0  0  0  0
  -22.1667   -4.2151   21.0984 F   0  0  0  0  0  0
  -21.5633   -3.4527   25.7734 F   0  0  0  0  0  0
  -29.9787  -13.5477   20.4032 N   0  0  0  0  0  0
  -26.2904  -12.9430   20.3279 N   0  0  0  0  0  0
  -25.9309  -11.6564   20.5743 N   0  0  0  0  0  0
  -22.0445  -12.8199   22.0456 N   0  0  0  0  0  0
  -25.4161  -15.1945   20.4128 N   0  0  0  0  0  0
  -31.7839  -14.8792   20.1393 O   0  0  0  0  0  0
  -21.6645   -6.8869   21.4235 O   0  0  0  0  0  0
  -22.3480  -14.5518   20.6743 O   0  0  0  0  0  0
  -24.6336  -31.8525   23.1934 C   0  0  0  0  0  0
  -25.9147  -32.4740   23.8294 C   0  0  1  0  0  0
  -27.2155  -27.2397   20.1481 C   0  0  0  0  0  0
  -25.5927  -33.8540   24.2225 N   0  0  0  0  0  0
  -23.4307  -30.4748   21.5370 C   0  0  2  0  0  0
  -24.8781  -28.9117   20.1127 C   0  0  0  0  0  0
  -22.7507  -29.4598   22.4888 C   0  0  0  0  0  0
  -18.0286  -28.1396   22.8475 C   0  0  0  0  0  0
  -24.1492  -36.7287   23.2641 C   0  0  0  0  0  0
  -25.9785  -30.7627   21.3723 C   0  0  0  0  0  0
  -26.0520  -29.3808   20.7185 C   0  0  0  0  0  0
  -27.2285  -28.5605   20.7162 C   0  0  0  0  0  0
  -26.0206  -26.8351   19.5199 C   0  0  0  0  0  0
  -24.8687  -27.6481   19.5001 C   0  0  0  0  0  0
  -23.6500  -29.8028   20.1554 C   0  0  0  0  0  0
  -25.4121  -36.3065   24.0322 C   0  0  1  0  0  0
  -20.5896  -28.3714   23.1257 C   0  0  2  0  0  0
  -20.6786  -26.9427   22.5410 C   0  0  0  0  0  0
  -19.5763  -26.6387   21.5212 C   0  0  0  0  0  0
  -18.1936  -26.7940   22.1615 C   0  0  0  0  0  0
  -19.1542  -28.8871   23.2862 C   0  0  0  0  0  0
  -18.9468  -30.1469   23.8885 C   0  0  0  0  0  0
  -17.6469  -30.6601   24.0564 C   0  0  0  0  0  0
  -25.9057  -34.9432   23.5083 C   0  0  0  0  0  0
  -16.5357  -29.9103   23.6335 C   0  0  0  0  0  0
  -16.7270  -28.6520   23.0352 C   0  0  0  0  0  0
  -26.4503  -31.6570   25.0696 C   0  0  0  0  0  0
  -25.3715  -31.3738   26.1409 C   0  0  0  0  0  0
  -27.0355  -30.2977   24.6209 C   0  0  0  0  0  0
  -27.6048  -32.4316   25.7483 C   0  0  0  0  0  0
  -27.5584  -37.1800   24.8467 C   0  0  0  0  0  0
  -21.4210  -29.3060   22.3640 N   0  0  0  0  0  0
  -26.4292  -37.3768   23.9404 N   0  0  0  0  0  0
  -24.7000  -31.0492   22.0903 N   0  0  0  0  0  0
  -23.4200  -28.8141   23.2989 O   0  0  0  0  0  0
  -28.2924  -26.3198   20.1609 O   0  0  0  0  0  0
  -26.5647  -34.8919   22.4664 O   0  0  0  0  0  0
  -23.5480  -32.1346   23.7234 O   0  0  0  0  0  0
  -28.6248  -21.0312   23.9157 C   0  0  0  0  0  0
  -27.5012  -21.8386   23.7140 C   0  0  0  0  0  0
  -29.3651  -20.5857   22.8135 C   0  0  0  0  0  0
  -27.2712  -22.4064   22.4400 C   0  0  0  0  0  0
  -28.2188  -22.2334   21.3827 C   0  0  0  0  0  0
  -29.0275  -20.9919   21.4918 C   0  0  0  0  0  0
  -26.5812  -22.1141   24.8927 C   0  0  0  0  0  0
  -30.5373  -19.6597   23.0976 C   0  0  0  0  0  0
  -25.9507  -23.1395   22.2255 C   0  0  0  0  0  0
  -28.3244  -23.4584   20.3342 C   0  0  0  0  0  0
  -30.2272  -17.4042   20.4949 C   0  0  0  0  0  0
  -28.1246  -25.0079   20.8950 C   0  0  0  0  0  0
  -29.1239  -18.6076   20.6106 C   0  0  0  0  0  0
  -29.8247  -15.9223   20.6459 N   0  0  0  0  0  0
  -29.4486  -20.0884   20.4729 O   0  0  0  0  0  0
  -31.4732  -12.6185   19.1739 H   0  0  0  0  0  0
  -30.3918  -11.5099   19.9729 H   0  0  0  0  0  0
  -29.8029  -11.7394   17.5326 H   0  0  0  0  0  0
  -29.6331  -13.4678   17.7207 H   0  0  0  0  0  0
  -27.9010  -11.2870   18.9225 H   0  0  0  0  0  0
  -27.3819  -12.5196   17.8034 H   0  0  0  0  0  0
  -27.6247  -14.2587   19.4649 H   0  0  0  0  0  0
  -28.7257  -12.1916   21.4339 H   0  0  0  0  0  0
  -28.4089  -13.8720   21.7905 H   0  0  0  0  0  0
  -25.2750   -9.5699   22.4754 H   0  0  0  0  0  0
  -24.0025   -7.4628   22.7438 H   0  0  0  0  0  0
  -21.0851   -8.8748   19.8942 H   0  0  0  0  0  0
  -22.3684  -10.9653   19.6165 H   0  0  0  0  0  0
  -21.1990   -7.6137   23.9724 H   0  0  0  0  0  0
  -21.1496   -6.0510   25.9084 H   0  0  0  0  0  0
  -22.0596   -2.7605   23.2844 H   0  0  0  0  0  0
  -22.4071  -11.9874   22.4856 H   0  0  0  0  0  0
  -21.1041  -13.1180   22.2635 H   0  0  0  0  0  0
  -24.6410  -15.8414   20.5111 H   0  0  0  0  0  0
  -26.2536  -15.6334   20.0525 H   0  0  0  0  0  0
  -26.7218  -32.5381   23.1036 H   0  0  0  0  0  0
  -25.0038  -33.9672   25.0347 H   0  0  0  0  0  0
  -22.7270  -31.2972   21.3880 H   0  0  0  0  0  0
  -23.3751  -35.9623   23.3296 H   0  0  0  0  0  0
  -24.3582  -36.8917   22.2056 H   0  0  0  0  0  0
  -23.7247  -37.6486   23.6671 H   0  0  0  0  0  0
  -26.1190  -31.5202   20.5999 H   0  0  0  0  0  0
  -26.8566  -30.8143   22.0045 H   0  0  0  0  0  0
  -28.1306  -28.9207   21.1915 H   0  0  0  0  0  0
  -25.9704  -25.8572   19.0603 H   0  0  0  0  0  0
  -23.9692  -27.2829   19.0236 H   0  0  0  0  0  0
  -23.7724  -30.5766   19.3965 H   0  0  0  0  0  0
  -22.7677  -29.2363   19.8503 H   0  0  0  0  0  0
  -25.1303  -36.1905   25.0816 H   0  0  0  0  0  0
  -20.9993  -28.3306   24.1375 H   0  0  0  0  0  0
  -20.5689  -26.2323   23.3621 H   0  0  0  0  0  0
  -21.6655  -26.7451   22.1203 H   0  0  0  0  0  0
  -19.6930  -25.6292   21.1251 H   0  0  0  0  0  0
  -19.6710  -27.3192   20.6738 H   0  0  0  0  0  0
  -17.4212  -26.6668   21.4015 H   0  0  0  0  0  0
  -18.0339  -26.0094   22.9019 H   0  0  0  0  0  0
  -19.7943  -30.7284   24.2252 H   0  0  0  0  0  0
  -17.5026  -31.6274   24.5175 H   0  0  0  0  0  0
  -15.5362  -30.3009   23.7674 H   0  0  0  0  0  0
  -15.8660  -28.0844   22.7081 H   0  0  0  0  0  0
  -24.5895  -30.7083   25.7734 H   0  0  0  0  0  0
  -24.8906  -32.2916   26.4794 H   0  0  0  0  0  0
  -25.8020  -30.8934   27.0202 H   0  0  0  0  0  0
  -26.2943  -29.6712   24.1233 H   0  0  0  0  0  0
  -27.4016  -29.7255   25.4743 H   0  0  0  0  0  0
  -27.8825  -30.4232   23.9466 H   0  0  0  0  0  0
  -27.2641  -33.3618   26.2039 H   0  0  0  0  0  0
  -28.3874  -32.6868   25.0327 H   0  0  0  0  0  0
  -28.0696  -31.8450   26.5415 H   0  0  0  0  0  0
  -28.2602  -38.0098   24.7511 H   0  0  0  0  0  0
  -28.1075  -36.2625   24.6286 H   0  0  0  0  0  0
  -27.2304  -37.1450   25.8872 H   0  0  0  0  0  0
  -20.9397  -29.8758   21.6825 H   0  0  0  0  0  0
  -26.0164  -38.2842   24.1394 H   0  0  0  0  0  0
  -28.8658  -20.6663   24.9054 H   0  0  0  0  0  0
  -27.0392  -21.8083   25.8341 H   0  0  0  0  0  0
  -25.6432  -21.5681   24.7867 H   0  0  0  0  0  0
  -26.3558  -23.1770   24.9726 H   0  0  0  0  0  0
  -30.1987  -18.6406   23.2813 H   0  0  0  0  0  0
  -31.0758  -19.9943   23.9852 H   0  0  0  0  0  0
  -31.2534  -19.6610   22.2751 H   0  0  0  0  0  0
  -25.1235  -22.5043   22.5435 H   0  0  0  0  0  0
  -25.7614  -23.3689   21.1771 H   0  0  0  0  0  0
  -25.9023  -24.0562   22.8128 H   0  0  0  0  0  0
  -27.5998  -23.2763   19.5404 H   0  0  0  0  0  0
  -29.3033  -23.3870   19.8577 H   0  0  0  0  0  0
  -31.0131  -17.5839   21.2266 H   0  0  0  0  0  0
  -30.7173  -17.5023   19.5254 H   0  0  0  0  0  0
  -28.8017  -25.0994   21.7447 H   0  0  0  0  0  0
  -27.1438  -25.0973   21.3437 H   0  0  0  0  0  0
  -28.5534  -18.4472   21.5251 H   0  0  0  0  0  0
  -28.3905  -18.4221   19.8261 H   0  0  0  0  0  0
  -28.8535  -15.7511   20.8612 H   0  0  0  0  0  0
  1 25  1  0  0  0
  1 30  2  0  0  0
  1 84  1  0  0  0
  2  3  1  0  0  0
  2 25  1  0  0  0
  2 86  1  0  0  0
  2 87  1  0  0  0
  3  4  1  0  0  0
  3 88  1  0  0  0
  3 89  1  0  0  0
  4  5  1  0  0  0
  4 90  1  0  0  0
  4 91  1  0  0  0
  5  6  1  0  0  0
  5 26  1  0  0  0
  5 92  1  0  0  0
  6 25  1  0  0  0
  6 93  1  0  0  0
  6 94  1  0  0  0
  7  8  2  0  0  0
  7 26  1  0  0  0
  7 29  1  0  0  0
  8  9  1  0  0  0
  8 22  1  0  0  0
  9 10  1  0  0  0
  9 27  2  0  0  0
 10 11  2  0  0  0
 10 15  1  0  0  0
 11 12  1  0  0  0
 11 95  1  0  0  0
 12 13  2  0  0  0
 12 96  1  0  0  0
 13 14  1  0  0  0
 13 31  1  0  0  0
 14 15  2  0  0  0
 14 97  1  0  0  0
 15 98  1  0  0  0
 16 17  2  0  0  0
 16 21  1  0  0  0
 16 31  1  0  0  0
 17 18  1  0  0  0
 17 99  1  0  0  0
 18 19  2  0  0  0
 18100  1  0  0  0
 19 20  1  0  0  0
 19 24  1  0  0  0
 20 21  2  0  0  0
 20101  1  0  0  0
 21 23  1  0  0  0
 22 28  1  0  0  0
 22 32  2  0  0  0
 26 27  1  0  0  0
 28102  1  0  0  0
 28103  1  0  0  0
 29104  1  0  0  0
 29105  1  0  0  0
 33 34  1  0  0  0
 33 66  1  0  0  0
 33 70  2  0  0  0
 34 36  1  0  0  0
 34 59  1  0  0  0
 34106  1  0  0  0
 35 44  2  0  0  0
 35 45  1  0  0  0
 35 68  1  0  0  0
 36 56  1  0  0  0
 36107  1  0  0  0
 37 39  1  0  0  0
 37 47  1  0  0  0
 37 66  1  0  0  0
 37108  1  0  0  0
 38 43  2  0  0  0
 38 46  1  0  0  0
 38 47  1  0  0  0
 39 64  1  0  0  0
 39 67  2  0  0  0
 40 52  1  0  0  0
 40 53  2  0  0  0
 40 58  1  0  0  0
 41109  1  0  0  0
 41110  1  0  0  0
 41111  1  0  0  0
 41 48  1  0  0  0
 42 43  1  0  0  0
 42 66  1  0  0  0
 42112  1  0  0  0
 42113  1  0  0  0
 43 44  1  0  0  0
 44114  1  0  0  0
 45 46  2  0  0  0
 45115  1  0  0  0
 46116  1  0  0  0
 47117  1  0  0  0
 47118  1  0  0  0
 48 56  1  0  0  0
 48 65  1  0  0  0
 48119  1  0  0  0
 49 50  1  0  0  0
 49 53  1  0  0  0
 49 64  1  0  0  0
 49120  1  0  0  0
 50 51  1  0  0  0
 50121  1  0  0  0
 50122  1  0  0  0
 51 52  1  0  0  0
 51123  1  0  0  0
 51124  1  0  0  0
 52125  1  0  0  0
 52126  1  0  0  0
 53 54  1  0  0  0
 54 55  2  0  0  0
 54127  1  0  0  0
 55 57  1  0  0  0
 55128  1  0  0  0
 56 69  2  0  0  0
 57 58  2  0  0  0
 57129  1  0  0  0
 58130  1  0  0  0
 59 60  1  0  0  0
 59 61  1  0  0  0
 59 62  1  0  0  0
 60131  1  0  0  0
 60132  1  0  0  0
 60133  1  0  0  0
 61134  1  0  0  0
 61135  1  0  0  0
 61136  1  0  0  0
 62137  1  0  0  0
 62138  1  0  0  0
 62139  1  0  0  0
 63 65  1  0  0  0
 63140  1  0  0  0
 63141  1  0  0  0
 63142  1  0  0  0
 64143  1  0  0  0
 65144  1  0  0  0
 68 82  1  0  0  0
 71 72  2  0  0  0
 71 73  1  0  0  0
 71145  1  0  0  0
 72 74  1  0  0  0
 72 77  1  0  0  0
 73 76  2  0  0  0
 73 78  1  0  0  0
 74 75  2  0  0  0
 74 79  1  0  0  0
 75 76  1  0  0  0
 75 80  1  0  0  0
 76 85  1  0  0  0
 77146  1  0  0  0
 77147  1  0  0  0
 77148  1  0  0  0
 78149  1  0  0  0
 78150  1  0  0  0
 78151  1  0  0  0
 79152  1  0  0  0
 79153  1  0  0  0
 79154  1  0  0  0
 80 82  1  0  0  0
 80155  1  0  0  0
 80156  1  0  0  0
 81 83  1  0  0  0
 81 84  1  0  0  0
 81157  1  0  0  0
 81158  1  0  0  0
 82159  1  0  0  0
 82160  1  0  0  0
 83 85  1  0  0  0
 83161  1  0  0  0
 83162  1  0  0  0
 84163  1  0  0  0
M  ISO  4   1 100  68 101  82 101  84 100
M  END
> <chiral flag>
0

> <version>
0

> <s_m_source_file>
/data/baiqing/PycharmProjects/Reinvent-master-3.2/result/LINK_invent/BTK/process_docking_weight1_custom_sum_contain_oxygen_bond_distance_aromatic_linkinvent_7_9_3/rearranged_h_0156.sdf

> <i_m_source_file_index>
61

> <r_mmod_Potential_Energy-OPLS-2005>
316.930358886719

> <r_mmod_Stretch_Energy-OPLS-2005>
167.016891479492

> <r_mmod_Bend_Energy-OPLS-2005>
203.597229003906

> <r_mmod_Torsional_Energy-OPLS-2005>
349.167388916016

> <r_mmod_Improper_Torsional_Energy-OPLS-2005>
5.66395616531372

> <r_mmod_Van_der_Waal_Energy-OPLS-2005>
151.049942016602

> <r_mmod_Electrostatic_Energy-OPLS-2005>
-448.359344482422

> <r_mmod_Solvation_Energy-OPLS-2005>
-212.438415527344

> <b_mmod_Minimization_Converged-OPLS-2005>
0

> <r_mmod_RMS_Derivative-OPLS-2005>
1.58965480327606

$$$$
61
                    3D
 Structure written by MMmdl.
182191  0  0  1  0            999 V2000
  -31.5558  -14.3963   21.3437 C   0  0  0  0  0  0
  -31.2782  -14.5057   18.7402 C   0  0  0  0  0  0
  -29.3837  -14.6840   17.0757 C   0  0  0  0  0  0
  -27.1792  -14.5136   18.0208 C   0  0  0  0  0  0
  -27.0252  -13.8110   20.3461 C   0  0  2  0  0  0
  -28.9381  -13.1055   21.3302 C   0  0  0  0  0  0
  -24.8120  -13.8994   20.6183 C   0  0  0  0  0  0
  -23.8811  -13.0219   20.9733 C   0  0  0  0  0  0
  -24.4805  -11.7197   20.9854 C   0  0  0  0  0  0
  -23.8483  -10.4153   21.0776 C   0  0  0  0  0  0
  -24.3345   -9.4085   21.9368 C   0  0  0  0  0  0
  -23.6224   -8.2004   22.0740 C   0  0  0  0  0  0
  -22.4234   -8.0016   21.3483 C   0  0  0  0  0  0
  -21.9786   -8.9900   20.4551 C   0  0  0  0  0  0
  -22.6902  -10.1876   20.3125 C   0  0  0  0  0  0
  -21.6810   -6.0613   22.5287 C   0  0  0  0  0  0
  -21.3969   -6.5573   23.8200 C   0  0  0  0  0  0
  -21.3651   -5.6756   24.9186 C   0  0  0  0  0  0
  -21.6035   -4.3014   24.7256 C   0  0  0  0  0  0
  -21.8823   -3.8076   23.4392 C   0  0  0  0  0  0
  -21.9178   -4.6860   22.3431 C   0  0  0  0  0  0
  -22.4975  -13.4450   21.2134 C   0  0  0  0  0  0
  -22.1663   -4.2054   21.1010 F   0  0  0  0  0  0
  -21.5651   -3.4519   25.7784 F   0  0  0  0  0  0
  -30.7432  -13.6894   20.6240 N   0  0  0  0  0  0
  -25.9084  -13.1437   20.6435 N   0  0  0  0  0  0
  -25.7904  -11.8176   20.8846 N   0  0  0  0  0  0
  -21.8204  -12.7436   22.1029 N   0  0  0  0  0  0
  -24.8359  -15.2729   20.3163 N   0  0  0  0  0  0
  -32.6002  -14.7148   20.7956 O   0  0  0  0  0  0
  -21.6603   -6.8656   21.4200 O   0  0  0  0  0  0
  -22.0652  -14.4756   20.6985 O   0  0  0  0  0  0
  -24.7335  -31.7403   23.1087 C   0  0  0  0  0  0
  -25.9680  -32.4167   23.7807 C   0  0  1  0  0  0
  -27.1230  -26.2092   20.0831 C   0  0  0  0  0  0
  -25.6054  -33.8023   24.1645 N   0  0  0  0  0  0
  -23.5669  -30.3361   21.4837 C   0  0  2  0  0  0
  -24.9866  -28.5837   20.1038 C   0  0  0  0  0  0
  -22.7943  -29.4032   22.4587 C   0  0  0  0  0  0
  -18.0361  -28.1443   22.8435 C   0  0  0  0  0  0
  -24.1513  -36.7024   23.2666 C   0  0  0  0  0  0
  -26.1675  -30.2961   21.4366 C   0  0  0  0  0  0
  -26.1994  -28.8169   20.7573 C   0  0  0  0  0  0
  -27.2408  -27.6703   20.7037 C   0  0  0  0  0  0
  -25.8747  -26.3144   19.4048 C   0  0  0  0  0  0
  -24.8893  -27.3647   19.4120 C   0  0  0  0  0  0
  -23.8267  -29.6107   20.1305 C   0  0  0  0  0  0
  -25.4181  -36.2715   24.0239 C   0  0  1  0  0  0
  -20.6021  -28.3821   23.1068 C   0  0  2  0  0  0
  -20.6813  -26.9443   22.5415 C   0  0  0  0  0  0
  -19.5796  -26.6359   21.5223 C   0  0  0  0  0  0
  -18.1974  -26.7961   22.1611 C   0  0  0  0  0  0
  -19.1642  -28.8959   23.2720 C   0  0  0  0  0  0
  -18.9538  -30.1530   23.8786 C   0  0  0  0  0  0
  -17.6527  -30.6616   24.0541 C   0  0  0  0  0  0
  -25.9192  -34.9125   23.4813 C   0  0  0  0  0  0
  -16.5410  -29.9094   23.6364 C   0  0  0  0  0  0
  -16.7336  -28.6519   23.0373 C   0  0  0  0  0  0
  -26.4689  -31.6413   25.0633 C   0  0  0  0  0  0
  -25.3624  -31.3874   26.1153 C   0  0  0  0  0  0
  -27.0699  -30.2707   24.6879 C   0  0  0  0  0  0
  -27.6038  -32.4390   25.7483 C   0  0  0  0  0  0
  -27.5553  -37.1670   24.8460 C   0  0  0  0  0  0
  -21.4554  -29.2989   22.3349 N   0  0  0  0  0  0
  -26.4254  -37.3536   23.9401 N   0  0  0  0  0  0
  -24.8566  -30.8351   22.0611 N   0  0  0  0  0  0
  -23.4185  -28.7686   23.3114 O   0  0  0  0  0  0
  -27.9605  -24.7503   19.9603 O   0  0  0  0  0  0
  -26.5896  -34.8804   22.4478 O   0  0  0  0  0  0
  -23.6268  -32.0722   23.5759 O   0  0  0  0  0  0
  -28.4467  -10.9154   18.7867 C   0  0  0  0  0  0
  -29.6798  -12.9656   18.6169 C   0  0  0  0  0  0
  -29.7372  -11.3831   18.6620 C   0  0  0  0  0  0
  -27.6831  -12.0764   18.7324 C   0  0  0  0  0  0
  -29.0950  -14.7733   19.2848 C   0  0  0  0  0  0
  -28.8154  -13.3876   19.0694 C   0  0  0  0  0  0
  -28.6913  -15.2938   22.8646 C   0  0  0  0  0  0
  -29.9002  -16.9419   21.5539 C   0  0  0  0  0  0
  -30.0656  -14.7611   23.4102 C   0  0  0  0  0  0
  -31.1647  -16.5309   22.3330 C   0  0  0  0  0  0
  -28.7913  -15.8078   21.3700 C   0  0  0  0  0  0
  -30.8820  -10.4964   18.1995 C   0  0  0  0  0  0
  -26.2989  -11.8581   18.0642 C   0  0  0  0  0  0
  -30.2079  -17.4428   18.0701 C   0  0  0  0  0  0
  -29.9586  -20.9889   19.1180 C   0  0  0  0  0  0
  -27.8697  -20.7763   17.7703 C   0  0  0  0  0  0
  -27.7962  -22.7433   19.8807 C   0  0  0  0  0  0
  -28.9050  -16.9563   18.7901 C   0  0  1  0  0  0
  -28.4465  -20.7108   19.1951 C   0  0  0  0  0  0
  -31.0963  -15.0849   22.4215 N   0  0  0  0  0  0
  -28.3893  -18.7468   19.4942 N   0  3  0  0  0  0
  -28.8780  -14.9095   19.8924 O   0  0  0  0  0  0
  -31.6756  -15.5112   18.8621 H   0  0  0  0  0  0
  -32.1219  -13.9589   18.3144 H   0  0  0  0  0  0
  -29.4677  -13.9093   16.3080 H   0  0  0  0  0  0
  -29.4266  -15.5498   16.4218 H   0  0  0  0  0  0
  -26.5239  -14.0739   17.2785 H   0  0  0  0  0  0
  -26.7162  -15.4959   18.0236 H   0  0  0  0  0  0
  -26.8907  -14.6546   20.9893 H   0  0  0  0  0  0
  -28.9799  -12.0326   21.1398 H   0  0  0  0  0  0
  -28.8156  -12.9087   22.3844 H   0  0  0  0  0  0
  -25.2335   -9.5758   22.5139 H   0  0  0  0  0  0
  -23.9961   -7.4377   22.7430 H   0  0  0  0  0  0
  -21.0780   -8.8303   19.8801 H   0  0  0  0  0  0
  -22.3205  -10.9454   19.6357 H   0  0  0  0  0  0
  -21.1941   -7.6083   23.9663 H   0  0  0  0  0  0
  -21.1489   -6.0514   25.9087 H   0  0  0  0  0  0
  -22.0616   -2.7534   23.2918 H   0  0  0  0  0  0
  -22.2206  -11.9288   22.5432 H   0  0  0  0  0  0
  -20.8781  -13.0143   22.3452 H   0  0  0  0  0  0
  -23.9722  -15.7989   20.2312 H   0  0  0  0  0  0
  -25.6446  -15.7494   19.9441 H   0  0  0  0  0  0
  -26.7801  -32.4505   23.0535 H   0  0  0  0  0  0
  -25.0036  -33.8975   24.9691 H   0  0  0  0  0  0
  -22.9202  -31.1905   21.2699 H   0  0  0  0  0  0
  -23.3805  -35.9318   23.3216 H   0  0  0  0  0  0
  -24.3564  -36.8831   22.2103 H   0  0  0  0  0  0
  -23.7249  -37.6140   23.6862 H   0  0  0  0  0  0
  -26.4408  -31.0015   20.6510 H   0  0  0  0  0  0
  -26.9966  -30.3432   22.1293 H   0  0  0  0  0  0
  -28.1614  -27.8668   21.2348 H   0  0  0  0  0  0
  -25.5922  -25.4392   18.8376 H   0  0  0  0  0  0
  -23.9796  -27.1767   18.8581 H   0  0  0  0  0  0
  -24.0526  -30.3608   19.3725 H   0  0  0  0  0  0
  -22.9109  -29.1264   19.7874 H   0  0  0  0  0  0
  -25.1422  -36.1395   25.0725 H   0  0  0  0  0  0
  -21.0075  -28.3482   24.1204 H   0  0  0  0  0  0
  -20.5655  -26.2451   23.3713 H   0  0  0  0  0  0
  -21.6667  -26.7337   22.1246 H   0  0  0  0  0  0
  -19.6956  -25.6241   21.1324 H   0  0  0  0  0  0
  -19.6759  -27.3110   20.6706 H   0  0  0  0  0  0
  -17.4255  -26.6704   21.4004 H   0  0  0  0  0  0
  -18.0347  -26.0125   22.9026 H   0  0  0  0  0  0
  -19.8010  -30.7372   24.2112 H   0  0  0  0  0  0
  -17.5074  -31.6282   24.5169 H   0  0  0  0  0  0
  -15.5405  -30.2964   23.7746 H   0  0  0  0  0  0
  -15.8734  -28.0799   22.7155 H   0  0  0  0  0  0
  -24.5854  -30.7184   25.7430 H   0  0  0  0  0  0
  -24.8777  -32.3144   26.4223 H   0  0  0  0  0  0
  -25.7685  -30.9253   27.0157 H   0  0  0  0  0  0
  -26.3480  -29.6145   24.2009 H   0  0  0  0  0  0
  -27.4073  -29.7377   25.5776 H   0  0  0  0  0  0
  -27.9478  -30.3733   24.0499 H   0  0  0  0  0  0
  -27.2514  -33.3824   26.1661 H   0  0  0  0  0  0
  -28.4047  -32.6733   25.0459 H   0  0  0  0  0  0
  -28.0477  -31.8788   26.5717 H   0  0  0  0  0  0
  -28.2492  -38.0036   24.7519 H   0  0  0  0  0  0
  -28.1128  -36.2548   24.6275 H   0  0  0  0  0  0
  -27.2261  -37.1268   25.8858 H   0  0  0  0  0  0
  -20.9950  -29.8598   21.6320 H   0  0  0  0  0  0
  -26.0031  -38.2556   24.1429 H   0  0  0  0  0  0
  -28.1119   -9.9005   18.6163 H   0  0  0  0  0  0
  -30.4134  -12.8103   17.7871 H   0  0  0  0  0  0
  -28.4322  -16.1512   23.4878 H   0  0  0  0  0  0
  -27.8446  -14.6331   23.0469 H   0  0  0  0  0  0
  -30.2903  -17.3729   20.6547 H   0  0  0  0  0  0
  -29.4586  -17.7855   22.0868 H   0  0  0  0  0  0
  -30.2909  -15.2582   24.3552 H   0  0  0  0  0  0
  -30.1051  -13.7084   23.6835 H   0  0  0  0  0  0
  -31.1786  -16.9912   23.3209 H   0  0  0  0  0  0
  -32.0705  -16.8941   21.8429 H   0  0  0  0  0  0
  -27.8872  -16.4054   21.2391 H   0  0  0  0  0  0
  -30.5146   -9.5087   17.9200 H   0  0  0  0  0  0
  -31.5997  -10.3609   19.0081 H   0  0  0  0  0  0
  -31.4074  -10.9114   17.3398 H   0  0  0  0  0  0
  -25.9215  -10.8675   18.3197 H   0  0  0  0  0  0
  -26.4264  -11.8538   16.9817 H   0  0  0  0  0  0
  -25.4960  -12.5552   18.2900 H   0  0  0  0  0  0
  -29.9842  -18.3239   17.4698 H   0  0  0  0  0  0
  -30.6951  -16.7642   17.3865 H   0  0  0  0  0  0
  -30.9959  -17.7406   18.7560 H   0  0  0  0  0  0
  -30.1500  -22.0084   18.7800 H   0  0  0  0  0  0
  -30.4641  -20.3257   18.4193 H   0  0  0  0  0  0
  -30.4294  -20.8738   20.0943 H   0  0  0  0  0  0
  -28.0557  -21.7420   17.2999 H   0  0  0  0  0  0
  -26.7889  -20.6261   17.7892 H   0  0  0  0  0  0
  -28.2959  -20.0077   17.1256 H   0  0  0  0  0  0
  -27.8669  -22.5814   20.9567 H   0  0  0  0  0  0
  -26.7240  -22.6818   19.6910 H   0  0  0  0  0  0
  -28.1921  -16.9307   17.9724 H   0  0  0  0  0  0
  -28.7983  -18.7009   20.4147 H   0  0  0  0  0  0
  -27.4026  -18.6061   19.6525 H   0  0  0  0  0  0
  1 25  1  0  0  0
  1 30  2  0  0  0
  1 90  1  0  0  0
  2  3  1  0  0  0
  2 25  1  0  0  0
  2 93  1  0  0  0
  2 94  1  0  0  0
  3  4  1  0  0  0
  3 95  1  0  0  0
  3 96  1  0  0  0
  4  5  1  0  0  0
  4 97  1  0  0  0
  4 98  1  0  0  0
  5  6  1  0  0  0
  5 26  1  0  0  0
  5 99  1  0  0  0
  6 25  1  0  0  0
  6100  1  0  0  0
  6101  1  0  0  0
  7  8  2  0  0  0
  7 26  1  0  0  0
  7 29  1  0  0  0
  8  9  1  0  0  0
  8 22  1  0  0  0
  9 10  1  0  0  0
  9 27  2  0  0  0
 10 11  2  0  0  0
 10 15  1  0  0  0
 11 12  1  0  0  0
 11102  1  0  0  0
 12 13  2  0  0  0
 12103  1  0  0  0
 13 14  1  0  0  0
 13 31  1  0  0  0
 14 15  2  0  0  0
 14104  1  0  0  0
 15105  1  0  0  0
 16 17  2  0  0  0
 16 21  1  0  0  0
 16 31  1  0  0  0
 17 18  1  0  0  0
 17106  1  0  0  0
 18 19  2  0  0  0
 18107  1  0  0  0
 19 20  1  0  0  0
 19 24  1  0  0  0
 20 21  2  0  0  0
 20108  1  0  0  0
 21 23  1  0  0  0
 22 28  1  0  0  0
 22 32  2  0  0  0
 26 27  1  0  0  0
 28109  1  0  0  0
 28110  1  0  0  0
 29111  1  0  0  0
 29112  1  0  0  0
 33 34  1  0  0  0
 33 66  1  0  0  0
 33 70  2  0  0  0
 34 36  1  0  0  0
 34 59  1  0  0  0
 34113  1  0  0  0
 35 44  2  0  0  0
 35 45  1  0  0  0
 35 68  1  0  0  0
 36 56  1  0  0  0
 36114  1  0  0  0
 37 39  1  0  0  0
 37 47  1  0  0  0
 37 66  1  0  0  0
 37115  1  0  0  0
 38 43  2  0  0  0
 38 46  1  0  0  0
 38 47  1  0  0  0
 39 64  1  0  0  0
 39 67  2  0  0  0
 40 52  1  0  0  0
 40 53  2  0  0  0
 40 58  1  0  0  0
 41116  1  0  0  0
 41117  1  0  0  0
 41118  1  0  0  0
 41 48  1  0  0  0
 42 43  1  0  0  0
 42 66  1  0  0  0
 42119  1  0  0  0
 42120  1  0  0  0
 43 44  1  0  0  0
 44121  1  0  0  0
 45 46  2  0  0  0
 45122  1  0  0  0
 46123  1  0  0  0
 47124  1  0  0  0
 47125  1  0  0  0
 48 56  1  0  0  0
 48 65  1  0  0  0
 48126  1  0  0  0
 49 50  1  0  0  0
 49 53  1  0  0  0
 49 64  1  0  0  0
 49127  1  0  0  0
 50 51  1  0  0  0
 50128  1  0  0  0
 50129  1  0  0  0
 51 52  1  0  0  0
 51130  1  0  0  0
 51131  1  0  0  0
 52132  1  0  0  0
 52133  1  0  0  0
 53 54  1  0  0  0
 54 55  2  0  0  0
 54134  1  0  0  0
 55 57  1  0  0  0
 55135  1  0  0  0
 56 69  2  0  0  0
 57 58  2  0  0  0
 57136  1  0  0  0
 58137  1  0  0  0
 59 60  1  0  0  0
 59 61  1  0  0  0
 59 62  1  0  0  0
 60138  1  0  0  0
 60139  1  0  0  0
 60140  1  0  0  0
 61141  1  0  0  0
 61142  1  0  0  0
 61143  1  0  0  0
 62144  1  0  0  0
 62145  1  0  0  0
 62146  1  0  0  0
 63 65  1  0  0  0
 63147  1  0  0  0
 63148  1  0  0  0
 63149  1  0  0  0
 64150  1  0  0  0
 65151  1  0  0  0
 68 87  1  0  0  0
 71 73  2  0  0  0
 71 74  1  0  0  0
 71152  1  0  0  0
 72 73  1  0  0  0
 72 75  2  0  0  0
 72153  1  0  0  0
 73 82  1  0  0  0
 74 76  2  0  0  0
 74 83  1  0  0  0
 75 76  1  0  0  0
 75 88  1  0  0  0
 76 92  1  0  0  0
 77 79  1  0  0  0
 77 81  1  0  0  0
 77154  1  0  0  0
 77155  1  0  0  0
 78 80  1  0  0  0
 78 81  1  0  0  0
 78156  1  0  0  0
 78157  1  0  0  0
 79 90  1  0  0  0
 79158  1  0  0  0
 79159  1  0  0  0
 80 90  1  0  0  0
 80160  1  0  0  0
 80161  1  0  0  0
 81 92  1  0  0  0
 81162  1  0  0  0
 82163  1  0  0  0
 82164  1  0  0  0
 82165  1  0  0  0
 83166  1  0  0  0
 83167  1  0  0  0
 83168  1  0  0  0
 84169  1  0  0  0
 84170  1  0  0  0
 84171  1  0  0  0
 84 88  1  0  0  0
 85172  1  0  0  0
 85173  1  0  0  0
 85174  1  0  0  0
 85 89  1  0  0  0
 86 89  1  0  0  0
 86175  1  0  0  0
 86176  1  0  0  0
 86177  1  0  0  0
 87 89  1  0  0  0
 87178  1  0  0  0
 87179  1  0  0  0
 88 91  1  0  0  0
 88180  1  0  0  0
 89 91  1  0  0  0
 91181  1  0  0  0
 91182  1  0  0  0
M  CHG  1  91   1
M  ISO  4   1 100  68 101  87 101  90 100
M  END
> <chiral flag>
0

> <version>
0

> <s_m_source_file>
/data/baiqing/PycharmProjects/Reinvent-master-3.2/result/LINK_invent/BTK/process_docking_weight1_custom_sum_contain_oxygen_bond_distance_aromatic_linkinvent_7_9_3/rearranged_h_0156.sdf

> <i_m_source_file_index>
62

> <r_mmod_Potential_Energy-OPLS-2005>
19319.59765625

> <r_mmod_Stretch_Energy-OPLS-2005>
9105.30859375

> <r_mmod_Bend_Energy-OPLS-2005>
3371.17431640625

> <r_mmod_Torsional_Energy-OPLS-2005>
609.309509277344

> <r_mmod_Improper_Torsional_Energy-OPLS-2005>
72.1103363037109

> <r_mmod_Van_der_Waal_Energy-OPLS-2005>
3521.53881835938

> <r_mmod_Electrostatic_Energy-OPLS-2005>
-165.227523803711

> <r_mmod_Solvation_Energy-OPLS-2005>
-432.952697753906

> <b_mmod_Minimization_Converged-OPLS-2005>
0

> <r_mmod_RMS_Derivative-OPLS-2005>
3.82826256752014

$$$$
62
                    3D
 Structure written by MMmdl.
165174  0  0  1  0            999 V2000
  -30.6383  -14.8200   20.4024 C   0  0  0  0  0  0
  -30.4368  -12.5016   19.4717 C   0  0  0  0  0  0
  -29.5075  -12.4759   18.2414 C   0  0  0  0  0  0
  -28.0396  -12.3019   18.6730 C   0  0  0  0  0  0
  -27.6357  -13.2443   19.8375 C   0  0  2  0  0  0
  -28.6883  -13.2732   20.9638 C   0  0  0  0  0  0
  -25.2485  -13.8234   20.5714 C   0  0  0  0  0  0
  -24.1767  -13.0455   20.9220 C   0  0  0  0  0  0
  -24.6405  -11.6951   20.8765 C   0  0  0  0  0  0
  -23.9062  -10.4319   21.0442 C   0  0  0  0  0  0
  -24.3607   -9.4234   21.9226 C   0  0  0  0  0  0
  -23.6284   -8.2272   22.0795 C   0  0  0  0  0  0
  -22.4271   -8.0305   21.3582 C   0  0  0  0  0  0
  -21.9905   -9.0263   20.4679 C   0  0  0  0  0  0
  -22.7234  -10.2149   20.3091 C   0  0  0  0  0  0
  -21.6857   -6.0732   22.5276 C   0  0  0  0  0  0
  -21.4001   -6.5628   23.8206 C   0  0  0  0  0  0
  -21.3677   -5.6793   24.9178 C   0  0  0  0  0  0
  -21.6063   -4.3058   24.7233 C   0  0  0  0  0  0
  -21.8809   -3.8137   23.4353 C   0  0  0  0  0  0
  -21.9182   -4.6955   22.3401 C   0  0  0  0  0  0
  -22.7795  -13.5242   21.1873 C   0  0  0  0  0  0
  -22.1647   -4.2129   21.0989 F   0  0  0  0  0  0
  -21.5664   -3.4550   25.7751 F   0  0  0  0  0  0
  -29.9699  -13.6126   20.3351 N   0  0  0  0  0  0
  -26.2939  -12.9473   20.3312 N   0  0  0  0  0  0
  -25.9338  -11.6617   20.5805 N   0  0  0  0  0  0
  -22.0385  -12.8243   22.0414 N   0  0  0  0  0  0
  -25.4092  -15.1959   20.4141 N   0  0  0  0  0  0
  -31.8627  -14.8115   20.2477 O   0  0  0  0  0  0
  -21.6654   -6.8876   21.4242 O   0  0  0  0  0  0
  -22.3494  -14.5558   20.6732 O   0  0  0  0  0  0
  -24.6356  -31.8550   23.1939 C   0  0  0  0  0  0
  -25.9163  -32.4757   23.8303 C   0  0  1  0  0  0
  -27.2155  -27.2225   20.1514 C   0  0  0  0  0  0
  -25.5948  -33.8554   24.2217 N   0  0  0  0  0  0
  -23.4306  -30.4786   21.5381 C   0  0  2  0  0  0
  -24.8728  -28.9043   20.1269 C   0  0  0  0  0  0
  -22.7507  -29.4649   22.4907 C   0  0  0  0  0  0
  -18.0304  -28.1406   22.8485 C   0  0  0  0  0  0
  -24.1482  -36.7297   23.2639 C   0  0  0  0  0  0
  -25.9783  -30.7608   21.3706 C   0  0  0  0  0  0
  -26.0499  -29.3744   20.7230 C   0  0  0  0  0  0
  -27.2265  -28.5532   20.7042 C   0  0  0  0  0  0
  -25.9989  -26.8080   19.5726 C   0  0  0  0  0  0
  -24.8526  -27.6290   19.5440 C   0  0  0  0  0  0
  -23.6497  -29.8035   20.1597 C   0  0  0  0  0  0
  -25.4116  -36.3073   24.0311 C   0  0  1  0  0  0
  -20.5905  -28.3738   23.1248 C   0  0  2  0  0  0
  -20.6800  -26.9455   22.5400 C   0  0  0  0  0  0
  -19.5782  -26.6387   21.5217 C   0  0  0  0  0  0
  -18.1955  -26.7943   22.1624 C   0  0  0  0  0  0
  -19.1550  -28.8884   23.2856 C   0  0  0  0  0  0
  -18.9480  -30.1480   23.8882 C   0  0  0  0  0  0
  -17.6476  -30.6593   24.0564 C   0  0  0  0  0  0
  -25.9064  -34.9447   23.5057 C   0  0  0  0  0  0
  -16.5365  -29.9093   23.6335 C   0  0  0  0  0  0
  -16.7288  -28.6515   23.0348 C   0  0  0  0  0  0
  -26.4506  -31.6619   25.0719 C   0  0  0  0  0  0
  -25.3695  -31.3827   26.1419 C   0  0  0  0  0  0
  -27.0388  -30.3036   24.6264 C   0  0  0  0  0  0
  -27.6011  -32.4409   25.7524 C   0  0  0  0  0  0
  -27.5572  -37.1813   24.8455 C   0  0  0  0  0  0
  -21.4220  -29.3077   22.3625 N   0  0  0  0  0  0
  -26.4289  -37.3775   23.9393 N   0  0  0  0  0  0
  -24.7022  -31.0515   22.0904 N   0  0  0  0  0  0
  -23.4199  -28.8182   23.3010 O   0  0  0  0  0  0
  -28.3557  -26.3831   20.0713 O   0  0  0  0  0  0
  -26.5634  -34.8934   22.4628 O   0  0  0  0  0  0
  -23.5500  -32.1362   23.7248 O   0  0  0  0  0  0
  -28.1889  -18.0001   22.4831 C   0  0  0  0  0  0
  -28.2485  -19.3491   22.0843 C   0  0  0  0  0  0
  -29.0398  -19.7437   20.9741 C   0  0  0  0  0  0
  -29.6647  -18.5976   20.2867 C   0  0  0  0  0  0
  -29.5211  -17.2004   20.7507 C   0  0  0  0  0  0
  -28.7916  -23.3353   17.5447 C   0  0  0  0  0  0
  -27.6061  -23.9129   18.3059 C   0  0  0  0  0  0
  -29.3280  -22.1928   18.4052 C   0  0  0  0  0  0
  -27.8733  -23.5974   19.7882 C   0  0  2  0  0  0
  -27.4786  -20.3499   22.9311 C   0  0  0  0  0  0
  -30.5164  -18.8746   19.0575 C   0  0  0  0  0  0
  -29.2799  -21.3480   20.7595 C   0  0  0  0  0  0
  -28.4711  -24.9298   20.5278 C   0  0  0  0  0  0
  -28.8094  -16.9814   21.8656 N   0  0  0  0  0  0
  -29.9734  -15.9891   20.0186 N   0  0  0  0  0  0
  -28.5739  -22.1923   19.6782 N   0  3  1  0  0  0
  -31.4715  -12.6245   19.1534 H   0  0  0  0  0  0
  -30.4066  -11.5567   20.0142 H   0  0  0  0  0  0
  -29.7961  -11.6696   17.5674 H   0  0  0  0  0  0
  -29.6132  -13.4037   17.6795 H   0  0  0  0  0  0
  -27.9138  -11.2642   18.9829 H   0  0  0  0  0  0
  -27.3731  -12.4469   17.8222 H   0  0  0  0  0  0
  -27.6048  -14.2447   19.4076 H   0  0  0  0  0  0
  -28.7443  -12.3209   21.4927 H   0  0  0  0  0  0
  -28.4312  -14.0317   21.7062 H   0  0  0  0  0  0
  -25.2747   -9.5728   22.4820 H   0  0  0  0  0  0
  -24.0002   -7.4654   22.7513 H   0  0  0  0  0  0
  -21.0858   -8.8779   19.8944 H   0  0  0  0  0  0
  -22.3710  -10.9700   19.6205 H   0  0  0  0  0  0
  -21.1965   -7.6131   23.9704 H   0  0  0  0  0  0
  -21.1529   -6.0528   25.9094 H   0  0  0  0  0  0
  -22.0571   -2.7593   23.2858 H   0  0  0  0  0  0
  -22.3945  -11.9905   22.4841 H   0  0  0  0  0  0
  -21.1003  -13.1312   22.2580 H   0  0  0  0  0  0
  -24.6388  -15.8438   20.5406 H   0  0  0  0  0  0
  -26.2766  -15.6498   20.1507 H   0  0  0  0  0  0
  -26.7235  -32.5392   23.1053 H   0  0  0  0  0  0
  -25.0113  -33.9673   25.0374 H   0  0  0  0  0  0
  -22.7286  -31.3017   21.3881 H   0  0  0  0  0  0
  -23.3745  -35.9627   23.3289 H   0  0  0  0  0  0
  -24.3570  -36.8942   22.2058 H   0  0  0  0  0  0
  -23.7235  -37.6485   23.6689 H   0  0  0  0  0  0
  -26.1134  -31.5175   20.5952 H   0  0  0  0  0  0
  -26.8556  -30.8185   22.0034 H   0  0  0  0  0  0
  -28.1384  -28.9309   21.1438 H   0  0  0  0  0  0
  -25.9012  -25.8282   19.1382 H   0  0  0  0  0  0
  -23.9452  -27.2549   19.0920 H   0  0  0  0  0  0
  -23.7895  -30.5730   19.3993 H   0  0  0  0  0  0
  -22.7627  -29.2459   19.8536 H   0  0  0  0  0  0
  -25.1312  -36.1910   25.0807 H   0  0  0  0  0  0
  -21.0005  -28.3345   24.1366 H   0  0  0  0  0  0
  -20.5729  -26.2366   23.3620 H   0  0  0  0  0  0
  -21.6669  -26.7501   22.1183 H   0  0  0  0  0  0
  -19.6944  -25.6289   21.1277 H   0  0  0  0  0  0
  -19.6692  -27.3163   20.6724 H   0  0  0  0  0  0
  -17.4219  -26.6680   21.4016 H   0  0  0  0  0  0
  -18.0362  -26.0081   22.9030 H   0  0  0  0  0  0
  -19.7951  -30.7307   24.2228 H   0  0  0  0  0  0
  -17.5029  -31.6272   24.5185 H   0  0  0  0  0  0
  -15.5366  -30.2988   23.7671 H   0  0  0  0  0  0
  -15.8695  -28.0829   22.7064 H   0  0  0  0  0  0
  -24.5816  -30.7248   25.7739 H   0  0  0  0  0  0
  -24.8951  -32.3037   26.4825 H   0  0  0  0  0  0
  -25.7954  -30.8987   27.0218 H   0  0  0  0  0  0
  -26.2995  -29.6725   24.1320 H   0  0  0  0  0  0
  -27.4081  -29.7381   25.4833 H   0  0  0  0  0  0
  -27.8858  -30.4299   23.9514 H   0  0  0  0  0  0
  -27.2550  -33.3695   26.2090 H   0  0  0  0  0  0
  -28.3840  -32.7020   25.0387 H   0  0  0  0  0  0
  -28.0673  -31.8567   26.5468 H   0  0  0  0  0  0
  -28.2596  -38.0107   24.7502 H   0  0  0  0  0  0
  -28.1063  -36.2636   24.6285 H   0  0  0  0  0  0
  -27.2289  -37.1476   25.8858 H   0  0  0  0  0  0
  -20.9419  -29.8780   21.6795 H   0  0  0  0  0  0
  -26.0163  -38.2854   24.1363 H   0  0  0  0  0  0
  -27.6129  -17.7123   23.3502 H   0  0  0  0  0  0
  -28.5062  -22.9919   16.5495 H   0  0  0  0  0  0
  -29.5662  -24.0943   17.4205 H   0  0  0  0  0  0
  -27.4869  -24.9699   18.0706 H   0  0  0  0  0  0
  -26.6915  -23.4085   17.9896 H   0  0  0  0  0  0
  -30.3939  -22.3542   18.5776 H   0  0  0  0  0  0
  -29.2118  -21.2323   17.9008 H   0  0  0  0  0  0
  -26.9116  -23.4149   20.2713 H   0  0  0  0  0  0
  -28.1578  -20.9164   23.5702 H   0  0  0  0  0  0
  -26.7615  -19.8424   23.5815 H   0  0  0  0  0  0
  -26.9110  -21.0390   22.3037 H   0  0  0  0  0  0
  -29.8916  -18.9028   18.1648 H   0  0  0  0  0  0
  -31.2833  -18.1136   18.9082 H   0  0  0  0  0  0
  -31.0338  -19.8273   19.1416 H   0  0  0  0  0  0
  -30.3570  -21.4715   20.6386 H   0  0  0  0  0  0
  -29.0999  -21.8719   21.6963 H   0  0  0  0  0  0
  -29.5466  -24.7708   20.6114 H   0  0  0  0  0  0
  -28.1142  -24.9079   21.5587 H   0  0  0  0  0  0
  -30.2267  -16.2116   19.0684 H   0  0  0  0  0  0
  -27.7865  -21.5953   19.4738 H   0  0  0  0  0  0
  1 25  1  0  0  0
  1 30  2  0  0  0
  1 85  1  0  0  0
  2  3  1  0  0  0
  2 25  1  0  0  0
  2 87  1  0  0  0
  2 88  1  0  0  0
  3  4  1  0  0  0
  3 89  1  0  0  0
  3 90  1  0  0  0
  4  5  1  0  0  0
  4 91  1  0  0  0
  4 92  1  0  0  0
  5  6  1  0  0  0
  5 26  1  0  0  0
  5 93  1  0  0  0
  6 25  1  0  0  0
  6 94  1  0  0  0
  6 95  1  0  0  0
  7  8  2  0  0  0
  7 26  1  0  0  0
  7 29  1  0  0  0
  8  9  1  0  0  0
  8 22  1  0  0  0
  9 10  1  0  0  0
  9 27  2  0  0  0
 10 11  2  0  0  0
 10 15  1  0  0  0
 11 12  1  0  0  0
 11 96  1  0  0  0
 12 13  2  0  0  0
 12 97  1  0  0  0
 13 14  1  0  0  0
 13 31  1  0  0  0
 14 15  2  0  0  0
 14 98  1  0  0  0
 15 99  1  0  0  0
 16 17  2  0  0  0
 16 21  1  0  0  0
 16 31  1  0  0  0
 17 18  1  0  0  0
 17100  1  0  0  0
 18 19  2  0  0  0
 18101  1  0  0  0
 19 20  1  0  0  0
 19 24  1  0  0  0
 20 21  2  0  0  0
 20102  1  0  0  0
 21 23  1  0  0  0
 22 28  1  0  0  0
 22 32  2  0  0  0
 26 27  1  0  0  0
 28103  1  0  0  0
 28104  1  0  0  0
 29105  1  0  0  0
 29106  1  0  0  0
 33 34  1  0  0  0
 33 66  1  0  0  0
 33 70  2  0  0  0
 34 36  1  0  0  0
 34 59  1  0  0  0
 34107  1  0  0  0
 35 44  2  0  0  0
 35 45  1  0  0  0
 35 68  1  0  0  0
 36 56  1  0  0  0
 36108  1  0  0  0
 37 39  1  0  0  0
 37 47  1  0  0  0
 37 66  1  0  0  0
 37109  1  0  0  0
 38 43  2  0  0  0
 38 46  1  0  0  0
 38 47  1  0  0  0
 39 64  1  0  0  0
 39 67  2  0  0  0
 40 52  1  0  0  0
 40 53  2  0  0  0
 40 58  1  0  0  0
 41110  1  0  0  0
 41111  1  0  0  0
 41112  1  0  0  0
 41 48  1  0  0  0
 42 43  1  0  0  0
 42 66  1  0  0  0
 42113  1  0  0  0
 42114  1  0  0  0
 43 44  1  0  0  0
 44115  1  0  0  0
 45 46  2  0  0  0
 45116  1  0  0  0
 46117  1  0  0  0
 47118  1  0  0  0
 47119  1  0  0  0
 48 56  1  0  0  0
 48 65  1  0  0  0
 48120  1  0  0  0
 49 50  1  0  0  0
 49 53  1  0  0  0
 49 64  1  0  0  0
 49121  1  0  0  0
 50 51  1  0  0  0
 50122  1  0  0  0
 50123  1  0  0  0
 51 52  1  0  0  0
 51124  1  0  0  0
 51125  1  0  0  0
 52126  1  0  0  0
 52127  1  0  0  0
 53 54  1  0  0  0
 54 55  2  0  0  0
 54128  1  0  0  0
 55 57  1  0  0  0
 55129  1  0  0  0
 56 69  2  0  0  0
 57 58  2  0  0  0
 57130  1  0  0  0
 58131  1  0  0  0
 59 60  1  0  0  0
 59 61  1  0  0  0
 59 62  1  0  0  0
 60132  1  0  0  0
 60133  1  0  0  0
 60134  1  0  0  0
 61135  1  0  0  0
 61136  1  0  0  0
 61137  1  0  0  0
 62138  1  0  0  0
 62139  1  0  0  0
 62140  1  0  0  0
 63 65  1  0  0  0
 63141  1  0  0  0
 63142  1  0  0  0
 63143  1  0  0  0
 64144  1  0  0  0
 65145  1  0  0  0
 68 83  1  0  0  0
 71 72  2  0  0  0
 71 84  1  0  0  0
 71146  1  0  0  0
 72 73  1  0  0  0
 72 80  1  0  0  0
 73 74  2  0  0  0
 73 82  1  0  0  0
 74 75  1  0  0  0
 74 81  1  0  0  0
 75 84  2  0  0  0
 75 85  1  0  0  0
 76 77  1  0  0  0
 76 78  1  0  0  0
 76147  1  0  0  0
 76148  1  0  0  0
 77 79  1  0  0  0
 77149  1  0  0  0
 77150  1  0  0  0
 78 86  1  0  0  0
 78151  1  0  0  0
 78152  1  0  0  0
 79 83  1  0  0  0
 79 86  1  0  0  0
 79153  1  0  0  0
 80154  1  0  0  0
 80155  1  0  0  0
 80156  1  0  0  0
 81157  1  0  0  0
 81158  1  0  0  0
 81159  1  0  0  0
 82160  1  0  0  0
 82161  1  0  0  0
 82 86  1  0  0  0
 83162  1  0  0  0
 83163  1  0  0  0
 85164  1  0  0  0
 86165  1  0  0  0
M  CHG  1  86   1
M  ISO  4   1 100  68 101  83 101  85 100
M  END
> <chiral flag>
0

> <version>
0

> <s_m_source_file>
/data/baiqing/PycharmProjects/Reinvent-master-3.2/result/LINK_invent/BTK/process_docking_weight1_custom_sum_contain_oxygen_bond_distance_aromatic_linkinvent_7_9_3/rearranged_h_0156.sdf

> <i_m_source_file_index>
63

> <r_mmod_Potential_Energy-OPLS-2005>
242.765518188477

> <r_mmod_Stretch_Energy-OPLS-2005>
165.942184448242

> <r_mmod_Bend_Energy-OPLS-2005>
305.465393066406

> <r_mmod_Torsional_Energy-OPLS-2005>
365.734313964844

> <r_mmod_Improper_Torsional_Energy-OPLS-2005>
25.9987373352051

> <r_mmod_Van_der_Waal_Energy-OPLS-2005>
124.289825439453

> <r_mmod_Electrostatic_Energy-OPLS-2005>
-411.008483886719

> <r_mmod_Solvation_Energy-OPLS-2005>
-450.055053710938

> <b_mmod_Minimization_Converged-OPLS-2005>
0

> <r_mmod_RMS_Derivative-OPLS-2005>
4.36607360839844

$$$$
63
                    3D
 Structure written by MMmdl.
164173  0  0  1  0            999 V2000
  -30.5698  -14.7878   20.4191 C   0  0  0  0  0  0
  -30.4382  -12.4728   19.4840 C   0  0  0  0  0  0
  -29.5145  -12.5202   18.2435 C   0  0  0  0  0  0
  -28.0365  -12.3480   18.6519 C   0  0  0  0  0  0
  -27.6434  -13.2331   19.8612 C   0  0  2  0  0  0
  -28.6900  -13.1635   20.9970 C   0  0  0  0  0  0
  -25.2486  -13.8169   20.5675 C   0  0  0  0  0  0
  -24.1792  -13.0421   20.9238 C   0  0  0  0  0  0
  -24.6393  -11.6910   20.8765 C   0  0  0  0  0  0
  -23.9058  -10.4290   21.0410 C   0  0  0  0  0  0
  -24.3607   -9.4190   21.9181 C   0  0  0  0  0  0
  -23.6283   -8.2223   22.0742 C   0  0  0  0  0  0
  -22.4262   -8.0269   21.3545 C   0  0  0  0  0  0
  -21.9898   -9.0241   20.4635 C   0  0  0  0  0  0
  -22.7236  -10.2119   20.3049 C   0  0  0  0  0  0
  -21.6839   -6.0719   22.5278 C   0  0  0  0  0  0
  -21.4003   -6.5624   23.8208 C   0  0  0  0  0  0
  -21.3679   -5.6789   24.9171 C   0  0  0  0  0  0
  -21.6047   -4.3049   24.7226 C   0  0  0  0  0  0
  -21.8827   -3.8140   23.4349 C   0  0  0  0  0  0
  -21.9185   -4.6949   22.3409 C   0  0  0  0  0  0
  -22.7816  -13.5196   21.1897 C   0  0  0  0  0  0
  -22.1653   -4.2132   21.0988 F   0  0  0  0  0  0
  -21.5655   -3.4542   25.7742 F   0  0  0  0  0  0
  -29.9885  -13.5349   20.4177 N   0  0  0  0  0  0
  -26.2938  -12.9392   20.3321 N   0  0  0  0  0  0
  -25.9327  -11.6542   20.5793 N   0  0  0  0  0  0
  -22.0449  -12.8195   22.0449 N   0  0  0  0  0  0
  -25.4158  -15.1864   20.4013 N   0  0  0  0  0  0
  -31.7405  -14.9095   20.0454 O   0  0  0  0  0  0
  -21.6635   -6.8860   21.4243 O   0  0  0  0  0  0
  -22.3492  -14.5485   20.6705 O   0  0  0  0  0  0
  -24.6367  -31.8519   23.1931 C   0  0  0  0  0  0
  -25.9161  -32.4744   23.8312 C   0  0  1  0  0  0
  -27.2285  -27.2202   20.1420 C   0  0  0  0  0  0
  -25.5936  -33.8548   24.2240 N   0  0  0  0  0  0
  -23.4384  -30.4701   21.5372 C   0  0  2  0  0  0
  -24.8904  -28.9127   20.1077 C   0  0  0  0  0  0
  -22.7543  -29.4584   22.4906 C   0  0  0  0  0  0
  -18.0301  -28.1395   22.8504 C   0  0  0  0  0  0
  -24.1477  -36.7276   23.2645 C   0  0  0  0  0  0
  -25.9864  -30.7509   21.3819 C   0  0  0  0  0  0
  -26.0619  -29.3699   20.7248 C   0  0  0  0  0  0
  -27.2311  -28.5367   20.7310 C   0  0  0  0  0  0
  -26.0327  -26.8450   19.4865 C   0  0  0  0  0  0
  -24.8849  -27.6617   19.4741 C   0  0  0  0  0  0
  -23.6617  -29.8012   20.1558 C   0  0  0  0  0  0
  -25.4100  -36.3069   24.0345 C   0  0  1  0  0  0
  -20.5901  -28.3720   23.1286 C   0  0  2  0  0  0
  -20.6788  -26.9434   22.5423 C   0  0  0  0  0  0
  -19.5756  -26.6386   21.5243 C   0  0  0  0  0  0
  -18.1936  -26.7945   22.1638 C   0  0  0  0  0  0
  -19.1550  -28.8884   23.2883 C   0  0  0  0  0  0
  -18.9460  -30.1476   23.8900 C   0  0  0  0  0  0
  -17.6455  -30.6603   24.0563 C   0  0  0  0  0  0
  -25.9057  -34.9447   23.5097 C   0  0  0  0  0  0
  -16.5349  -29.9094   23.6337 C   0  0  0  0  0  0
  -16.7277  -28.6507   23.0378 C   0  0  0  0  0  0
  -26.4490  -31.6595   25.0735 C   0  0  0  0  0  0
  -25.3690  -31.3767   26.1449 C   0  0  0  0  0  0
  -27.0349  -30.3011   24.6253 C   0  0  0  0  0  0
  -27.6046  -32.4347   25.7497 C   0  0  0  0  0  0
  -27.5582  -37.1778   24.8452 C   0  0  0  0  0  0
  -21.4243  -29.3054   22.3669 N   0  0  0  0  0  0
  -26.4265  -37.3783   23.9433 N   0  0  0  0  0  0
  -24.7062  -31.0435   22.0941 N   0  0  0  0  0  0
  -23.4229  -28.8144   23.3048 O   0  0  0  0  0  0
  -28.3067  -26.2914   20.2241 O   0  0  0  0  0  0
  -26.5633  -34.8935   22.4673 O   0  0  0  0  0  0
  -23.5503  -32.1380   23.7186 O   0  0  0  0  0  0
  -28.9101  -22.2062   20.1305 C   0  0  0  0  0  0
  -31.1346  -22.8970   21.6076 C   0  0  0  0  0  0
  -29.8315  -21.1225   20.4976 C   0  0  0  0  0  0
  -29.0781  -23.6263   20.4763 C   0  0  0  0  0  0
  -30.2065  -23.9133   21.2827 C   0  0  0  0  0  0
  -30.9875  -21.5439   21.2089 C   0  0  0  0  0  0
  -30.7902  -18.4035   20.3238 C   0  0  0  0  0  0
  -29.7274  -19.5630   20.0421 C   0  0  1  0  0  0
  -28.7394  -18.4125   20.5095 C   0  0  2  0  0  0
  -29.7461  -17.3067   19.9631 C   0  0  2  0  0  0
  -30.4672  -25.3063   21.8324 C   0  0  0  0  0  0
  -27.3127  -18.4253   19.9820 C   0  0  0  0  0  0
  -33.2827  -21.0368   21.7926 C   0  0  0  0  0  0
  -28.0550  -24.7999   20.0326 C   0  0  0  0  0  0
  -29.7560  -15.9042   20.6134 N   0  0  0  0  0  0
  -31.9592  -20.6064   21.4900 O   0  0  0  0  0  0
  -31.4785  -12.6047   19.1807 H   0  0  0  0  0  0
  -30.3904  -11.4958   19.9675 H   0  0  0  0  0  0
  -29.7974  -11.7426   17.5332 H   0  0  0  0  0  0
  -29.6444  -13.4721   17.7265 H   0  0  0  0  0  0
  -27.8883  -11.2972   18.9023 H   0  0  0  0  0  0
  -27.3770  -12.5520   17.8067 H   0  0  0  0  0  0
  -27.6373  -14.2581   19.4910 H   0  0  0  0  0  0
  -28.7356  -12.1592   21.4253 H   0  0  0  0  0  0
  -28.4194  -13.8345   21.8135 H   0  0  0  0  0  0
  -25.2730   -9.5654   22.4776 H   0  0  0  0  0  0
  -23.9993   -7.4603   22.7448 H   0  0  0  0  0  0
  -21.0826   -8.8753   19.8940 H   0  0  0  0  0  0
  -22.3681  -10.9664   19.6175 H   0  0  0  0  0  0
  -21.1984   -7.6126   23.9711 H   0  0  0  0  0  0
  -21.1504   -6.0511   25.9079 H   0  0  0  0  0  0
  -22.0587   -2.7598   23.2850 H   0  0  0  0  0  0
  -22.4028  -11.9852   22.4853 H   0  0  0  0  0  0
  -21.1076  -13.1239   22.2666 H   0  0  0  0  0  0
  -24.6405  -15.8353   20.4842 H   0  0  0  0  0  0
  -26.2478  -15.6092   20.0127 H   0  0  0  0  0  0
  -26.7248  -32.5382   23.1073 H   0  0  0  0  0  0
  -25.0068  -33.9658   25.0375 H   0  0  0  0  0  0
  -22.7366  -31.2933   21.3846 H   0  0  0  0  0  0
  -23.3772  -35.9571   23.3246 H   0  0  0  0  0  0
  -24.3599  -36.8961   22.2076 H   0  0  0  0  0  0
  -23.7183  -37.6443   23.6699 H   0  0  0  0  0  0
  -26.1263  -31.5093   20.6111 H   0  0  0  0  0  0
  -26.8654  -30.8048   22.0136 H   0  0  0  0  0  0
  -28.1207  -28.8764   21.2431 H   0  0  0  0  0  0
  -25.9528  -25.8867   18.9950 H   0  0  0  0  0  0
  -23.9915  -27.3075   18.9771 H   0  0  0  0  0  0
  -23.7865  -30.5751   19.3977 H   0  0  0  0  0  0
  -22.7819  -29.2318   19.8502 H   0  0  0  0  0  0
  -25.1275  -36.1907   25.0838 H   0  0  0  0  0  0
  -20.9973  -28.3286   24.1415 H   0  0  0  0  0  0
  -20.5728  -26.2317   23.3630 H   0  0  0  0  0  0
  -21.6650  -26.7485   22.1183 H   0  0  0  0  0  0
  -19.6907  -25.6292   21.1297 H   0  0  0  0  0  0
  -19.6695  -27.3189   20.6771 H   0  0  0  0  0  0
  -17.4215  -26.6740   21.4023 H   0  0  0  0  0  0
  -18.0283  -26.0077   22.9017 H   0  0  0  0  0  0
  -19.7931  -30.7298   24.2273 H   0  0  0  0  0  0
  -17.5006  -31.6293   24.5143 H   0  0  0  0  0  0
  -15.5345  -30.2996   23.7655 H   0  0  0  0  0  0
  -15.8679  -28.0814   22.7104 H   0  0  0  0  0  0
  -24.5823  -30.7172   25.7758 H   0  0  0  0  0  0
  -24.8922  -32.2949   26.4898 H   0  0  0  0  0  0
  -25.7981  -30.8901   27.0218 H   0  0  0  0  0  0
  -26.2954  -29.6756   24.1240 H   0  0  0  0  0  0
  -27.3981  -29.7285   25.4794 H   0  0  0  0  0  0
  -27.8849  -30.4292   23.9549 H   0  0  0  0  0  0
  -27.2644  -33.3630   26.2102 H   0  0  0  0  0  0
  -28.3826  -32.6954   25.0308 H   0  0  0  0  0  0
  -28.0754  -31.8470   26.5387 H   0  0  0  0  0  0
  -28.2553  -38.0120   24.7587 H   0  0  0  0  0  0
  -28.1123  -36.2669   24.6145 H   0  0  0  0  0  0
  -27.2335  -37.1273   25.8859 H   0  0  0  0  0  0
  -20.9438  -29.8761   21.6848 H   0  0  0  0  0  0
  -26.0146  -38.2850   24.1472 H   0  0  0  0  0  0
  -28.0458  -21.9397   19.5401 H   0  0  0  0  0  0
  -31.9961  -23.1838   22.1931 H   0  0  0  0  0  0
  -31.0938  -18.3379   21.3704 H   0  0  0  0  0  0
  -31.6634  -18.4235   19.6704 H   0  0  0  0  0  0
  -29.6354  -19.6440   18.9576 H   0  0  0  0  0  0
  -28.7225  -18.3845   21.6029 H   0  0  0  0  0  0
  -29.6587  -17.2268   18.8768 H   0  0  0  0  0  0
  -31.2985  -25.3079   22.5378 H   0  0  0  0  0  0
  -29.5961  -25.6815   22.3717 H   0  0  0  0  0  0
  -30.7129  -26.0026   21.0307 H   0  0  0  0  0  0
  -27.2927  -18.4100   18.8913 H   0  0  0  0  0  0
  -26.7782  -19.3209   20.3052 H   0  0  0  0  0  0
  -26.7526  -17.5616   20.3385 H   0  0  0  0  0  0
  -33.9625  -20.1885   21.7000 H   0  0  0  0  0  0
  -33.3568  -21.4008   22.8172 H   0  0  0  0  0  0
  -33.6340  -21.8047   21.1027 H   0  0  0  0  0  0
  -27.1106  -24.5562   20.5220 H   0  0  0  0  0  0
  -27.8898  -24.6517   18.9639 H   0  0  0  0  0  0
  -28.8611  -15.6519   21.0072 H   0  0  0  0  0  0
  1 25  1  0  0  0
  1 30  2  0  0  0
  1 85  1  0  0  0
  2  3  1  0  0  0
  2 25  1  0  0  0
  2 87  1  0  0  0
  2 88  1  0  0  0
  3  4  1  0  0  0
  3 89  1  0  0  0
  3 90  1  0  0  0
  4  5  1  0  0  0
  4 91  1  0  0  0
  4 92  1  0  0  0
  5  6  1  0  0  0
  5 26  1  0  0  0
  5 93  1  0  0  0
  6 25  1  0  0  0
  6 94  1  0  0  0
  6 95  1  0  0  0
  7  8  2  0  0  0
  7 26  1  0  0  0
  7 29  1  0  0  0
  8  9  1  0  0  0
  8 22  1  0  0  0
  9 10  1  0  0  0
  9 27  2  0  0  0
 10 11  2  0  0  0
 10 15  1  0  0  0
 11 12  1  0  0  0
 11 96  1  0  0  0
 12 13  2  0  0  0
 12 97  1  0  0  0
 13 14  1  0  0  0
 13 31  1  0  0  0
 14 15  2  0  0  0
 14 98  1  0  0  0
 15 99  1  0  0  0
 16 17  2  0  0  0
 16 21  1  0  0  0
 16 31  1  0  0  0
 17 18  1  0  0  0
 17100  1  0  0  0
 18 19  2  0  0  0
 18101  1  0  0  0
 19 20  1  0  0  0
 19 24  1  0  0  0
 20 21  2  0  0  0
 20102  1  0  0  0
 21 23  1  0  0  0
 22 28  1  0  0  0
 22 32  2  0  0  0
 26 27  1  0  0  0
 28103  1  0  0  0
 28104  1  0  0  0
 29105  1  0  0  0
 29106  1  0  0  0
 33 34  1  0  0  0
 33 66  1  0  0  0
 33 70  2  0  0  0
 34 36  1  0  0  0
 34 59  1  0  0  0
 34107  1  0  0  0
 35 44  2  0  0  0
 35 45  1  0  0  0
 35 68  1  0  0  0
 36 56  1  0  0  0
 36108  1  0  0  0
 37 39  1  0  0  0
 37 47  1  0  0  0
 37 66  1  0  0  0
 37109  1  0  0  0
 38 43  2  0  0  0
 38 46  1  0  0  0
 38 47  1  0  0  0
 39 64  1  0  0  0
 39 67  2  0  0  0
 40 52  1  0  0  0
 40 53  2  0  0  0
 40 58  1  0  0  0
 41110  1  0  0  0
 41111  1  0  0  0
 41112  1  0  0  0
 41 48  1  0  0  0
 42 43  1  0  0  0
 42 66  1  0  0  0
 42113  1  0  0  0
 42114  1  0  0  0
 43 44  1  0  0  0
 44115  1  0  0  0
 45 46  2  0  0  0
 45116  1  0  0  0
 46117  1  0  0  0
 47118  1  0  0  0
 47119  1  0  0  0
 48 56  1  0  0  0
 48 65  1  0  0  0
 48120  1  0  0  0
 49 50  1  0  0  0
 49 53  1  0  0  0
 49 64  1  0  0  0
 49121  1  0  0  0
 50 51  1  0  0  0
 50122  1  0  0  0
 50123  1  0  0  0
 51 52  1  0  0  0
 51124  1  0  0  0
 51125  1  0  0  0
 52126  1  0  0  0
 52127  1  0  0  0
 53 54  1  0  0  0
 54 55  2  0  0  0
 54128  1  0  0  0
 55 57  1  0  0  0
 55129  1  0  0  0
 56 69  2  0  0  0
 57 58  2  0  0  0
 57130  1  0  0  0
 58131  1  0  0  0
 59 60  1  0  0  0
 59 61  1  0  0  0
 59 62  1  0  0  0
 60132  1  0  0  0
 60133  1  0  0  0
 60134  1  0  0  0
 61135  1  0  0  0
 61136  1  0  0  0
 61137  1  0  0  0
 62138  1  0  0  0
 62139  1  0  0  0
 62140  1  0  0  0
 63 65  1  0  0  0
 63141  1  0  0  0
 63142  1  0  0  0
 63143  1  0  0  0
 64144  1  0  0  0
 65145  1  0  0  0
 68 84  1  0  0  0
 71 73  2  0  0  0
 71 74  1  0  0  0
 71146  1  0  0  0
 72 75  1  0  0  0
 72 76  2  0  0  0
 72147  1  0  0  0
 73 76  1  0  0  0
 73 78  1  0  0  0
 74 75  2  0  0  0
 74 84  1  0  0  0
 75 81  1  0  0  0
 76 86  1  0  0  0
 77 78  1  0  0  0
 77 80  1  0  0  0
 77148  1  0  0  0
 77149  1  0  0  0
 78 79  1  0  0  0
 78150  1  0  0  0
 79 80  1  0  0  0
 79 82  1  0  0  0
 79151  1  0  0  0
 80 85  1  0  0  0
 80152  1  0  0  0
 81153  1  0  0  0
 81154  1  0  0  0
 81155  1  0  0  0
 82156  1  0  0  0
 82157  1  0  0  0
 82158  1  0  0  0
 83 86  1  0  0  0
 83159  1  0  0  0
 83160  1  0  0  0
 83161  1  0  0  0
 84162  1  0  0  0
 84163  1  0  0  0
 85164  1  0  0  0
M  ISO  4   1 100  68 101  84 101  85 100
M  END
> <chiral flag>
0

> <version>
0

> <s_m_source_file>
/data/baiqing/PycharmProjects/Reinvent-master-3.2/result/LINK_invent/BTK/process_docking_weight1_custom_sum_contain_oxygen_bond_distance_aromatic_linkinvent_7_9_3/rearranged_h_0156.sdf

> <i_m_source_file_index>
64

> <r_mmod_Potential_Energy-OPLS-2005>
312.072174072266

> <r_mmod_Stretch_Energy-OPLS-2005>
157.675750732422

> <r_mmod_Bend_Energy-OPLS-2005>
217.803573608398

> <r_mmod_Torsional_Energy-OPLS-2005>
243.491180419922

> <r_mmod_Improper_Torsional_Energy-OPLS-2005>
7.64772653579712

> <r_mmod_Van_der_Waal_Energy-OPLS-2005>
147.224060058594

> <r_mmod_Electrostatic_Energy-OPLS-2005>
-360.163482666016

> <r_mmod_Solvation_Energy-OPLS-2005>
-211.967727661133

> <b_mmod_Minimization_Converged-OPLS-2005>
0

> <r_mmod_RMS_Derivative-OPLS-2005>
3.26987934112549

$$$$
64
                    3D
 Structure written by MMmdl.
164173  0  0  1  0            999 V2000
  -30.5281  -14.9707   20.4079 C   0  0  0  0  0  0
  -30.4312  -12.6022   19.4744 C   0  0  0  0  0  0
  -29.5126  -12.5304   18.2356 C   0  0  0  0  0  0
  -28.0353  -12.3465   18.6391 C   0  0  0  0  0  0
  -27.6157  -13.2659   19.8166 C   0  0  2  0  0  0
  -28.6677  -13.2979   20.9443 C   0  0  0  0  0  0
  -25.2369  -13.8251   20.5724 C   0  0  0  0  0  0
  -24.1788  -13.0442   20.9296 C   0  0  0  0  0  0
  -24.6438  -11.6932   20.8762 C   0  0  0  0  0  0
  -23.9123  -10.4306   21.0399 C   0  0  0  0  0  0
  -24.3652   -9.4178   21.9144 C   0  0  0  0  0  0
  -23.6289   -8.2242   22.0742 C   0  0  0  0  0  0
  -22.4246   -8.0297   21.3562 C   0  0  0  0  0  0
  -21.9910   -9.0265   20.4649 C   0  0  0  0  0  0
  -22.7298  -10.2114   20.3028 C   0  0  0  0  0  0
  -21.6834   -6.0745   22.5279 C   0  0  0  0  0  0
  -21.4028   -6.5631   23.8229 C   0  0  0  0  0  0
  -21.3697   -5.6775   24.9172 C   0  0  0  0  0  0
  -21.6057   -4.3043   24.7205 C   0  0  0  0  0  0
  -21.8816   -3.8149   23.4320 C   0  0  0  0  0  0
  -21.9176   -4.6978   22.3379 C   0  0  0  0  0  0
  -22.7790  -13.5152   21.1946 C   0  0  0  0  0  0
  -22.1615   -4.2182   21.0946 F   0  0  0  0  0  0
  -21.5633   -3.4524   25.7712 F   0  0  0  0  0  0
  -29.9300  -13.7136   20.3261 N   0  0  0  0  0  0
  -26.2807  -12.9545   20.3125 N   0  0  0  0  0  0
  -25.9354  -11.6657   20.5663 N   0  0  0  0  0  0
  -22.0465  -12.8137   22.0520 N   0  0  0  0  0  0
  -25.3876  -15.1986   20.4026 N   0  0  0  0  0  0
  -31.7539  -15.0192   20.2746 O   0  0  0  0  0  0
  -21.6609   -6.8890   21.4241 O   0  0  0  0  0  0
  -22.3463  -14.5455   20.6764 O   0  0  0  0  0  0
  -24.6428  -31.8415   23.1895 C   0  0  0  0  0  0
  -25.9155  -32.4721   23.8329 C   0  0  1  0  0  0
  -27.2150  -27.1069   20.1442 C   0  0  0  0  0  0
  -25.5905  -33.8531   24.2248 N   0  0  0  0  0  0
  -23.4534  -30.4548   21.5416 C   0  0  2  0  0  0
  -24.8987  -28.8803   20.1217 C   0  0  0  0  0  0
  -22.7610  -29.4470   22.4938 C   0  0  0  0  0  0
  -18.0334  -28.1416   22.8469 C   0  0  0  0  0  0
  -24.1499  -36.7246   23.2672 C   0  0  0  0  0  0
  -26.0117  -30.7044   21.3942 C   0  0  0  0  0  0
  -26.0820  -29.3103   20.7389 C   0  0  0  0  0  0
  -27.2401  -28.4385   20.7362 C   0  0  0  0  0  0
  -25.9962  -26.7811   19.5062 C   0  0  0  0  0  0
  -24.8704  -27.6308   19.4886 C   0  0  0  0  0  0
  -23.6812  -29.7887   20.1616 C   0  0  0  0  0  0
  -25.4135  -36.3067   24.0346 C   0  0  1  0  0  0
  -20.5923  -28.3692   23.1312 C   0  0  2  0  0  0
  -20.6799  -26.9395   22.5445 C   0  0  0  0  0  0
  -19.5753  -26.6305   21.5252 C   0  0  0  0  0  0
  -18.1922  -26.7972   22.1587 C   0  0  0  0  0  0
  -19.1580  -28.8882   23.2897 C   0  0  0  0  0  0
  -18.9457  -30.1482   23.8921 C   0  0  0  0  0  0
  -17.6474  -30.6631   24.0528 C   0  0  0  0  0  0
  -25.9072  -34.9432   23.5140 C   0  0  0  0  0  0
  -16.5381  -29.9121   23.6284 C   0  0  0  0  0  0
  -16.7317  -28.6524   23.0339 C   0  0  0  0  0  0
  -26.4491  -31.6584   25.0760 C   0  0  0  0  0  0
  -25.3672  -31.3666   26.1426 C   0  0  0  0  0  0
  -27.0365  -30.3034   24.6246 C   0  0  0  0  0  0
  -27.6109  -32.4294   25.7505 C   0  0  0  0  0  0
  -27.5589  -37.1776   24.8484 C   0  0  0  0  0  0
  -21.4299  -29.3002   22.3699 N   0  0  0  0  0  0
  -26.4308  -37.3756   23.9430 N   0  0  0  0  0  0
  -24.7247  -31.0199   22.0979 N   0  0  0  0  0  0
  -23.4224  -28.7998   23.3070 O   0  0  0  0  0  0
  -28.2676  -26.1071   20.1768 O   0  0  0  0  0  0
  -26.5656  -34.8909   22.4714 O   0  0  0  0  0  0
  -23.5508  -32.1309   23.7040 O   0  0  0  0  0  0
  -27.8362  -18.9659   21.2559 C   0  0  0  0  0  0
  -29.0900  -19.0140   20.6446 C   0  0  0  0  0  0
  -26.8487  -19.9670   21.0920 C   0  0  0  0  0  0
  -29.4697  -20.3962   20.2224 C   0  0  0  0  0  0
  -27.1836  -21.2129   20.4784 C   0  0  0  0  0  0
  -28.5466  -21.5797   20.2454 C   0  0  0  0  0  0
  -27.7753  -17.8243   22.2479 C   0  0  0  0  0  0
  -29.9131  -17.6130   21.0059 C   0  0  1  0  0  0
  -29.2533  -17.3753   22.4001 C   0  0  1  0  0  0
  -25.4262  -19.6874   21.5822 C   0  0  0  0  0  0
  -30.8999  -20.6192   19.7624 C   0  0  0  0  0  0
  -26.0460  -22.1230   20.0367 C   0  0  0  0  0  0
  -28.9633  -23.1987   20.0915 C   0  0  0  0  0  0
  -27.9508  -24.5714   20.1016 C   0  0  0  0  0  0
  -29.7351  -16.1547   20.4095 N   0  0  0  0  0  0
  -29.9071  -18.1516   23.3937 O   0  0  0  0  0  0
  -31.4662  -12.7590   19.1661 H   0  0  0  0  0  0
  -30.4080  -11.6564   20.0192 H   0  0  0  0  0  0
  -29.8258  -11.7165   17.5819 H   0  0  0  0  0  0
  -29.6212  -13.4473   17.6552 H   0  0  0  0  0  0
  -27.8834  -11.2990   18.9048 H   0  0  0  0  0  0
  -27.3833  -12.5277   17.7840 H   0  0  0  0  0  0
  -27.5642  -14.2692   19.3892 H   0  0  0  0  0  0
  -28.7701  -12.3170   21.4083 H   0  0  0  0  0  0
  -28.3755  -14.0037   21.7279 H   0  0  0  0  0  0
  -25.2845   -9.5599   22.4652 H   0  0  0  0  0  0
  -24.0044   -7.4611   22.7412 H   0  0  0  0  0  0
  -21.0871   -8.8734   19.8933 H   0  0  0  0  0  0
  -22.3821  -10.9597   19.6063 H   0  0  0  0  0  0
  -21.2039   -7.6142   23.9724 H   0  0  0  0  0  0
  -21.1510   -6.0491   25.9078 H   0  0  0  0  0  0
  -22.0583   -2.7627   23.2785 H   0  0  0  0  0  0
  -22.4102  -11.9849   22.5012 H   0  0  0  0  0  0
  -21.1039  -13.1043   22.2623 H   0  0  0  0  0  0
  -24.5905  -15.8215   20.4846 H   0  0  0  0  0  0
  -26.1726  -15.6272   19.9344 H   0  0  0  0  0  0
  -26.7231  -32.5350   23.1071 H   0  0  0  0  0  0
  -25.0044  -33.9682   25.0384 H   0  0  0  0  0  0
  -22.7586  -31.2825   21.3900 H   0  0  0  0  0  0
  -23.3817  -35.9519   23.3314 H   0  0  0  0  0  0
  -24.3618  -36.8870   22.2099 H   0  0  0  0  0  0
  -23.7134  -37.6399   23.6683 H   0  0  0  0  0  0
  -26.1780  -31.4548   20.6179 H   0  0  0  0  0  0
  -26.8807  -30.7674   22.0360 H   0  0  0  0  0  0
  -28.1410  -28.7607   21.2402 H   0  0  0  0  0  0
  -25.8627  -25.8254   19.0244 H   0  0  0  0  0  0
  -23.9690  -27.3038   18.9868 H   0  0  0  0  0  0
  -23.8252  -30.5690   19.4143 H   0  0  0  0  0  0
  -22.7951  -29.2351   19.8456 H   0  0  0  0  0  0
  -25.1295  -36.1960   25.0821 H   0  0  0  0  0  0
  -21.0033  -28.3304   24.1421 H   0  0  0  0  0  0
  -20.5796  -26.2308   23.3679 H   0  0  0  0  0  0
  -21.6673  -26.7433   22.1206 H   0  0  0  0  0  0
  -19.6885  -25.6182   21.1398 H   0  0  0  0  0  0
  -19.6707  -27.3003   20.6722 H   0  0  0  0  0  0
  -17.4210  -26.6840   21.3928 H   0  0  0  0  0  0
  -18.0166  -26.0111   22.8925 H   0  0  0  0  0  0
  -19.7913  -30.7271   24.2397 H   0  0  0  0  0  0
  -17.5021  -31.6311   24.5135 H   0  0  0  0  0  0
  -15.5374  -30.3009   23.7649 H   0  0  0  0  0  0
  -15.8730  -28.0813   22.7125 H   0  0  0  0  0  0
  -24.5963  -30.6902   25.7684 H   0  0  0  0  0  0
  -24.8702  -32.2780   26.4786 H   0  0  0  0  0  0
  -25.7951  -30.8893   27.0255 H   0  0  0  0  0  0
  -26.2956  -29.6782   24.1232 H   0  0  0  0  0  0
  -27.4089  -29.7269   25.4720 H   0  0  0  0  0  0
  -27.8819  -30.4422   23.9503 H   0  0  0  0  0  0
  -27.2865  -33.3708   26.1971 H   0  0  0  0  0  0
  -28.3953  -32.6631   25.0286 H   0  0  0  0  0  0
  -28.0721  -31.8424   26.5465 H   0  0  0  0  0  0
  -28.2589  -38.0090   24.7572 H   0  0  0  0  0  0
  -28.1103  -36.2624   24.6283 H   0  0  0  0  0  0
  -27.2329  -37.1372   25.8888 H   0  0  0  0  0  0
  -20.9493  -29.8774   21.6953 H   0  0  0  0  0  0
  -26.0219  -38.2851   24.1391 H   0  0  0  0  0  0
  -27.1522  -17.0235   21.8495 H   0  0  0  0  0  0
  -27.3443  -18.1232   23.2037 H   0  0  0  0  0  0
  -30.9794  -17.8153   21.1082 H   0  0  0  0  0  0
  -29.3072  -16.3458   22.7633 H   0  0  0  0  0  0
  -25.4152  -19.1766   22.5457 H   0  0  0  0  0  0
  -24.9080  -19.0529   20.8628 H   0  0  0  0  0  0
  -24.8292  -20.5884   21.7218 H   0  0  0  0  0  0
  -31.3293  -19.6913   19.3816 H   0  0  0  0  0  0
  -31.5274  -20.9860   20.5748 H   0  0  0  0  0  0
  -30.9374  -21.3400   18.9443 H   0  0  0  0  0  0
  -25.1614  -21.5594   19.7432 H   0  0  0  0  0  0
  -26.3043  -22.6570   19.1265 H   0  0  0  0  0  0
  -25.7468  -22.8127   20.8237 H   0  0  0  0  0  0
  -29.5598  -23.2825   19.1843 H   0  0  0  0  0  0
  -29.6788  -23.3487   20.9010 H   0  0  0  0  0  0
  -27.2500  -24.4191   20.9226 H   0  0  0  0  0  0
  -27.3977  -24.4641   19.1746 H   0  0  0  0  0  0
  -28.7716  -15.9511   20.2065 H   0  0  0  0  0  0
  -29.7369  -19.0659   23.1857 H   0  0  0  0  0  0
  1 25  1  0  0  0
  1 30  2  0  0  0
  1 85  1  0  0  0
  2  3  1  0  0  0
  2 25  1  0  0  0
  2 87  1  0  0  0
  2 88  1  0  0  0
  3  4  1  0  0  0
  3 89  1  0  0  0
  3 90  1  0  0  0
  4  5  1  0  0  0
  4 91  1  0  0  0
  4 92  1  0  0  0
  5  6  1  0  0  0
  5 26  1  0  0  0
  5 93  1  0  0  0
  6 25  1  0  0  0
  6 94  1  0  0  0
  6 95  1  0  0  0
  7  8  2  0  0  0
  7 26  1  0  0  0
  7 29  1  0  0  0
  8  9  1  0  0  0
  8 22  1  0  0  0
  9 10  1  0  0  0
  9 27  2  0  0  0
 10 11  2  0  0  0
 10 15  1  0  0  0
 11 12  1  0  0  0
 11 96  1  0  0  0
 12 13  2  0  0  0
 12 97  1  0  0  0
 13 14  1  0  0  0
 13 31  1  0  0  0
 14 15  2  0  0  0
 14 98  1  0  0  0
 15 99  1  0  0  0
 16 17  2  0  0  0
 16 21  1  0  0  0
 16 31  1  0  0  0
 17 18  1  0  0  0
 17100  1  0  0  0
 18 19  2  0  0  0
 18101  1  0  0  0
 19 20  1  0  0  0
 19 24  1  0  0  0
 20 21  2  0  0  0
 20102  1  0  0  0
 21 23  1  0  0  0
 22 28  1  0  0  0
 22 32  2  0  0  0
 26 27  1  0  0  0
 28103  1  0  0  0
 28104  1  0  0  0
 29105  1  0  0  0
 29106  1  0  0  0
 33 34  1  0  0  0
 33 66  1  0  0  0
 33 70  2  0  0  0
 34 36  1  0  0  0
 34 59  1  0  0  0
 34107  1  0  0  0
 35 44  2  0  0  0
 35 45  1  0  0  0
 35 68  1  0  0  0
 36 56  1  0  0  0
 36108  1  0  0  0
 37 39  1  0  0  0
 37 47  1  0  0  0
 37 66  1  0  0  0
 37109  1  0  0  0
 38 43  2  0  0  0
 38 46  1  0  0  0
 38 47  1  0  0  0
 39 64  1  0  0  0
 39 67  2  0  0  0
 40 52  1  0  0  0
 40 53  2  0  0  0
 40 58  1  0  0  0
 41110  1  0  0  0
 41111  1  0  0  0
 41112  1  0  0  0
 41 48  1  0  0  0
 42 43  1  0  0  0
 42 66  1  0  0  0
 42113  1  0  0  0
 42114  1  0  0  0
 43 44  1  0  0  0
 44115  1  0  0  0
 45 46  2  0  0  0
 45116  1  0  0  0
 46117  1  0  0  0
 47118  1  0  0  0
 47119  1  0  0  0
 48 56  1  0  0  0
 48 65  1  0  0  0
 48120  1  0  0  0
 49 50  1  0  0  0
 49 53  1  0  0  0
 49 64  1  0  0  0
 49121  1  0  0  0
 50 51  1  0  0  0
 50122  1  0  0  0
 50123  1  0  0  0
 51 52  1  0  0  0
 51124  1  0  0  0
 51125  1  0  0  0
 52126  1  0  0  0
 52127  1  0  0  0
 53 54  1  0  0  0
 54 55  2  0  0  0
 54128  1  0  0  0
 55 57  1  0  0  0
 55129  1  0  0  0
 56 69  2  0  0  0
 57 58  2  0  0  0
 57130  1  0  0  0
 58131  1  0  0  0
 59 60  1  0  0  0
 59 61  1  0  0  0
 59 62  1  0  0  0
 60132  1  0  0  0
 60133  1  0  0  0
 60134  1  0  0  0
 61135  1  0  0  0
 61136  1  0  0  0
 61137  1  0  0  0
 62138  1  0  0  0
 62139  1  0  0  0
 62140  1  0  0  0
 63 65  1  0  0  0
 63141  1  0  0  0
 63142  1  0  0  0
 63143  1  0  0  0
 64144  1  0  0  0
 65145  1  0  0  0
 68 84  1  0  0  0
 71 72  1  0  0  0
 71 73  2  0  0  0
 71 77  1  0  0  0
 72 74  2  0  0  0
 72 78  1  0  0  0
 73 75  1  0  0  0
 73 80  1  0  0  0
 74 76  1  0  0  0
 74 81  1  0  0  0
 75 76  2  0  0  0
 75 82  1  0  0  0
 76 83  1  0  0  0
 77 79  1  0  0  0
 77146  1  0  0  0
 77147  1  0  0  0
 78 79  1  0  0  0
 78 85  1  0  0  0
 78148  1  0  0  0
 79 86  1  0  0  0
 79149  1  0  0  0
 80150  1  0  0  0
 80151  1  0  0  0
 80152  1  0  0  0
 81153  1  0  0  0
 81154  1  0  0  0
 81155  1  0  0  0
 82156  1  0  0  0
 82157  1  0  0  0
 82158  1  0  0  0
 83 84  1  0  0  0
 83159  1  0  0  0
 83160  1  0  0  0
 84161  1  0  0  0
 84162  1  0  0  0
 85163  1  0  0  0
 86164  1  0  0  0
M  ISO  4   1 100  68 101  84 101  85 100
M  END
> <chiral flag>
0

> <version>
0

> <s_m_source_file>
/data/baiqing/PycharmProjects/Reinvent-master-3.2/result/LINK_invent/BTK/process_docking_weight1_custom_sum_contain_oxygen_bond_distance_aromatic_linkinvent_7_9_3/rearranged_h_0156.sdf

> <i_m_source_file_index>
65

> <r_mmod_Potential_Energy-OPLS-2005>
572.090087890625

> <r_mmod_Stretch_Energy-OPLS-2005>
292.121307373047

> <r_mmod_Bend_Energy-OPLS-2005>
342.272583007812

> <r_mmod_Torsional_Energy-OPLS-2005>
274.99658203125

> <r_mmod_Improper_Torsional_Energy-OPLS-2005>
12.2393779754639

> <r_mmod_Van_der_Waal_Energy-OPLS-2005>
136.569000244141

> <r_mmod_Electrostatic_Energy-OPLS-2005>
-481.297882080078

> <r_mmod_Solvation_Energy-OPLS-2005>
-222.535522460938

> <b_mmod_Minimization_Converged-OPLS-2005>
0

> <r_mmod_RMS_Derivative-OPLS-2005>
6.40384197235107

$$$$
65
                    3D
 Structure written by MMmdl.
165174  0  0  1  0            999 V2000
  -30.7184  -14.4231   20.4707 C   0  0  0  0  0  0
  -30.4102  -12.2533   19.4046 C   0  0  0  0  0  0
  -29.4844  -12.4722   18.1885 C   0  0  0  0  0  0
  -28.0043  -12.3622   18.5996 C   0  0  0  0  0  0
  -27.6589  -13.2034   19.8579 C   0  0  2  0  0  0
  -28.7056  -13.0010   20.9802 C   0  0  0  0  0  0
  -25.2632  -13.8187   20.5644 C   0  0  0  0  0  0
  -24.1870  -13.0467   20.9170 C   0  0  0  0  0  0
  -24.6414  -11.6924   20.8732 C   0  0  0  0  0  0
  -23.9068  -10.4312   21.0440 C   0  0  0  0  0  0
  -24.3632   -9.4228   21.9222 C   0  0  0  0  0  0
  -23.6295   -8.2265   22.0786 C   0  0  0  0  0  0
  -22.4285   -8.0295   21.3560 C   0  0  0  0  0  0
  -21.9925   -9.0263   20.4650 C   0  0  0  0  0  0
  -22.7256  -10.2145   20.3073 C   0  0  0  0  0  0
  -21.6855   -6.0744   22.5268 C   0  0  0  0  0  0
  -21.4025   -6.5661   23.8201 C   0  0  0  0  0  0
  -21.3650   -5.6816   24.9170 C   0  0  0  0  0  0
  -21.6034   -4.3075   24.7222 C   0  0  0  0  0  0
  -21.8827   -3.8163   23.4349 C   0  0  0  0  0  0
  -21.9210   -4.6972   22.3404 C   0  0  0  0  0  0
  -22.7910  -13.5273   21.1837 C   0  0  0  0  0  0
  -22.1689   -4.2159   21.0981 F   0  0  0  0  0  0
  -21.5611   -3.4558   25.7730 F   0  0  0  0  0  0
  -30.0409  -13.2519   20.4158 N   0  0  0  0  0  0
  -26.3024  -12.9328   20.3269 N   0  0  0  0  0  0
  -25.9329  -11.6495   20.5732 N   0  0  0  0  0  0
  -22.0557  -12.8210   22.0350 N   0  0  0  0  0  0
  -25.4428  -15.1875   20.4027 N   0  0  0  0  0  0
  -31.9163  -14.5391   20.2073 O   0  0  0  0  0  0
  -21.6637   -6.8901   21.4243 O   0  0  0  0  0  0
  -22.3567  -14.5573   20.6702 O   0  0  0  0  0  0
  -24.6111  -31.8610   23.2165 C   0  0  0  0  0  0
  -25.9003  -32.4777   23.8470 C   0  0  1  0  0  0
  -27.2503  -27.4414   20.1070 C   0  0  0  0  0  0
  -25.5852  -33.8588   24.2358 N   0  0  0  0  0  0
  -23.4032  -30.4867   21.5466 C   0  0  2  0  0  0
  -24.8543  -28.9432   20.1204 C   0  0  0  0  0  0
  -22.7383  -29.4613   22.4941 C   0  0  0  0  0  0
  -18.0262  -28.1314   22.8500 C   0  0  0  0  0  0
  -24.1445  -36.7306   23.2662 C   0  0  0  0  0  0
  -25.9305  -30.8245   21.3790 C   0  0  0  0  0  0
  -26.0061  -29.4627   20.7205 C   0  0  0  0  0  0
  -27.1999  -28.7127   20.7164 C   0  0  0  0  0  0
  -26.0791  -26.9249   19.5054 C   0  0  0  0  0  0
  -24.8839  -27.6730   19.5147 C   0  0  0  0  0  0
  -23.6179  -29.8132   20.1628 C   0  0  0  0  0  0
  -25.4070  -36.3094   24.0359 C   0  0  1  0  0  0
  -20.5847  -28.3607   23.1288 C   0  0  2  0  0  0
  -20.6681  -26.9321   22.5405 C   0  0  0  0  0  0
  -19.5680  -26.6323   21.5163 C   0  0  0  0  0  0
  -18.1876  -26.7878   22.1596 C   0  0  0  0  0  0
  -19.1513  -28.8778   23.2909 C   0  0  0  0  0  0
  -18.9448  -30.1382   23.8933 C   0  0  0  0  0  0
  -17.6455  -30.6547   24.0539 C   0  0  0  0  0  0
  -25.8999  -34.9450   23.5161 C   0  0  0  0  0  0
  -16.5345  -29.9044   23.6305 C   0  0  0  0  0  0
  -16.7256  -28.6427   23.0392 C   0  0  0  0  0  0
  -26.4459  -31.6593   25.0821 C   0  0  0  0  0  0
  -25.3786  -31.3649   26.1616 C   0  0  0  0  0  0
  -27.0327  -30.3055   24.6232 C   0  0  0  0  0  0
  -27.5997  -32.4376   25.7569 C   0  0  0  0  0  0
  -27.5563  -37.1801   24.8470 C   0  0  0  0  0  0
  -21.4104  -29.3016   22.3705 N   0  0  0  0  0  0
  -26.4266  -37.3779   23.9415 N   0  0  0  0  0  0
  -24.6639  -31.0736   22.1046 N   0  0  0  0  0  0
  -23.4141  -28.8126   23.2966 O   0  0  0  0  0  0
  -28.4605  -26.7845   20.1466 O   0  0  0  0  0  0
  -26.5581  -34.8897   22.4739 O   0  0  0  0  0  0
  -23.5298  -32.1348   23.7578 O   0  0  0  0  0  0
  -29.6661  -17.8770   19.7783 C   0  0  0  0  0  0
  -30.7128  -16.3303   18.2500 C   0  0  0  0  0  0
  -29.8034  -18.8898   18.7937 C   0  0  0  0  0  0
  -30.1212  -16.5706   19.5115 C   0  0  0  0  0  0
  -30.4275  -18.5235   17.5679 C   0  0  0  0  0  0
  -28.3569  -20.4825   20.2779 C   0  0  0  0  0  0
  -30.3058  -21.4076   19.0641 C   0  0  0  0  0  0
  -27.7233  -21.8902   20.3180 C   0  0  0  0  0  0
  -29.6749  -22.8140   19.1336 C   0  0  0  0  0  0
  -29.2310  -20.3049   19.0167 C   0  0  1  0  0  0
  -30.6459  -19.4717   16.3999 C   0  0  0  0  0  0
  -28.1645  -24.3352   20.5278 C   0  0  0  0  0  0
  -28.6439  -25.4837   19.5916 C   0  0  0  0  0  0
  -30.8754  -17.2790   17.3166 N   0  0  0  0  0  0
  -29.9390  -15.5147   20.4616 N   0  0  0  0  0  0
  -28.7522  -22.9689   20.2966 N   0  3  1  0  0  0
  -31.4547  -12.3304   19.0937 H   0  0  0  0  0  0
  -30.2886  -11.2438   19.8027 H   0  0  0  0  0  0
  -29.7074  -11.7456   17.4045 H   0  0  0  0  0  0
  -29.6594  -13.4538   17.7459 H   0  0  0  0  0  0
  -27.7832  -11.3101   18.7785 H   0  0  0  0  0  0
  -27.3657  -12.6661   17.7686 H   0  0  0  0  0  0
  -27.6932  -14.2459   19.5411 H   0  0  0  0  0  0
  -28.6610  -11.9820   21.3667 H   0  0  0  0  0  0
  -28.5004  -13.6549   21.8302 H   0  0  0  0  0  0
  -25.2813   -9.5694   22.4763 H   0  0  0  0  0  0
  -24.0010   -7.4680   22.7516 H   0  0  0  0  0  0
  -21.0876   -8.8780   19.8936 H   0  0  0  0  0  0
  -22.3757  -10.9678   19.6150 H   0  0  0  0  0  0
  -21.2009   -7.6170   23.9711 H   0  0  0  0  0  0
  -21.1461   -6.0546   25.9071 H   0  0  0  0  0  0
  -22.0606   -2.7627   23.2828 H   0  0  0  0  0  0
  -22.4212  -11.9828   22.4611 H   0  0  0  0  0  0
  -21.1200  -13.1225   22.2650 H   0  0  0  0  0  0
  -24.6834  -15.8518   20.5058 H   0  0  0  0  0  0
  -26.2916  -15.6075   20.0440 H   0  0  0  0  0  0
  -26.7068  -32.5464   23.1219 H   0  0  0  0  0  0
  -24.9990  -33.9727   25.0497 H   0  0  0  0  0  0
  -22.6959  -31.3069   21.4012 H   0  0  0  0  0  0
  -23.3701  -35.9652   23.3338 H   0  0  0  0  0  0
  -24.3523  -36.8919   22.2076 H   0  0  0  0  0  0
  -23.7211  -37.6518   23.6671 H   0  0  0  0  0  0
  -26.0712  -31.5998   20.6250 H   0  0  0  0  0  0
  -26.8047  -30.8555   22.0170 H   0  0  0  0  0  0
  -28.0907  -29.1050   21.1899 H   0  0  0  0  0  0
  -26.0687  -25.9558   19.0296 H   0  0  0  0  0  0
  -23.9936  -27.2607   19.0577 H   0  0  0  0  0  0
  -23.7382  -30.5838   19.4015 H   0  0  0  0  0  0
  -22.7419  -29.2370   19.8585 H   0  0  0  0  0  0
  -25.1242  -36.1974   25.0861 H   0  0  0  0  0  0
  -20.9979  -28.3141   24.1385 H   0  0  0  0  0  0
  -20.5372  -26.2237   23.3601 H   0  0  0  0  0  0
  -21.6563  -26.7180   22.1324 H   0  0  0  0  0  0
  -19.6794  -25.6213   21.1209 H   0  0  0  0  0  0
  -19.6631  -27.3101   20.6665 H   0  0  0  0  0  0
  -17.4117  -26.6676   21.4015 H   0  0  0  0  0  0
  -18.0290  -25.9973   22.8940 H   0  0  0  0  0  0
  -19.7924  -30.7170   24.2334 H   0  0  0  0  0  0
  -17.5008  -31.6232   24.5121 H   0  0  0  0  0  0
  -15.5343  -30.2960   23.7569 H   0  0  0  0  0  0
  -15.8659  -28.0709   22.7167 H   0  0  0  0  0  0
  -24.5925  -30.7016   25.7994 H   0  0  0  0  0  0
  -24.9023  -32.2775   26.5217 H   0  0  0  0  0  0
  -25.8241  -30.8740   27.0288 H   0  0  0  0  0  0
  -26.2892  -29.6812   24.1269 H   0  0  0  0  0  0
  -27.4054  -29.7314   25.4725 H   0  0  0  0  0  0
  -27.8745  -30.4389   23.9439 H   0  0  0  0  0  0
  -27.2526  -33.3580   26.2295 H   0  0  0  0  0  0
  -28.3715  -32.7140   25.0368 H   0  0  0  0  0  0
  -28.0798  -31.8469   26.5383 H   0  0  0  0  0  0
  -28.2590  -38.0085   24.7487 H   0  0  0  0  0  0
  -28.1043  -36.2616   24.6309 H   0  0  0  0  0  0
  -27.2286  -37.1481   25.8878 H   0  0  0  0  0  0
  -20.9233  -29.8846   21.7033 H   0  0  0  0  0  0
  -26.0158  -38.2859   24.1437 H   0  0  0  0  0  0
  -29.1969  -18.0801   20.7301 H   0  0  0  0  0  0
  -31.0368  -15.3467   17.9442 H   0  0  0  0  0  0
  -27.5558  -19.7422   20.2989 H   0  0  0  0  0  0
  -28.9463  -20.3229   21.1842 H   0  0  0  0  0  0
  -30.9646  -21.2493   19.9187 H   0  0  0  0  0  0
  -30.9518  -21.3771   18.1901 H   0  0  0  0  0  0
  -27.1043  -21.9821   21.2107 H   0  0  0  0  0  0
  -27.0561  -22.0046   19.4622 H   0  0  0  0  0  0
  -29.1360  -23.0249   18.2077 H   0  0  0  0  0  0
  -30.5019  -23.5186   19.2032 H   0  0  0  0  0  0
  -28.5803  -20.4846   18.1600 H   0  0  0  0  0  0
  -29.9541  -20.3110   16.3798 H   0  0  0  0  0  0
  -30.5257  -18.9351   15.4593 H   0  0  0  0  0  0
  -31.6633  -19.8608   16.4184 H   0  0  0  0  0  0
  -27.0732  -24.2904   20.5025 H   0  0  0  0  0  0
  -28.4098  -24.5947   21.5598 H   0  0  0  0  0  0
  -28.2283  -25.4004   18.5874 H   0  0  0  0  0  0
  -29.7255  -25.4470   19.4742 H   0  0  0  0  0  0
  -29.0099  -15.4070   20.8394 H   0  0  0  0  0  0
  -29.3316  -22.8043   21.1093 H   0  0  0  0  0  0
  1 25  1  0  0  0
  1 30  2  0  0  0
  1 85  1  0  0  0
  2  3  1  0  0  0
  2 25  1  0  0  0
  2 87  1  0  0  0
  2 88  1  0  0  0
  3  4  1  0  0  0
  3 89  1  0  0  0
  3 90  1  0  0  0
  4  5  1  0  0  0
  4 91  1  0  0  0
  4 92  1  0  0  0
  5  6  1  0  0  0
  5 26  1  0  0  0
  5 93  1  0  0  0
  6 25  1  0  0  0
  6 94  1  0  0  0
  6 95  1  0  0  0
  7  8  2  0  0  0
  7 26  1  0  0  0
  7 29  1  0  0  0
  8  9  1  0  0  0
  8 22  1  0  0  0
  9 10  1  0  0  0
  9 27  2  0  0  0
 10 11  2  0  0  0
 10 15  1  0  0  0
 11 12  1  0  0  0
 11 96  1  0  0  0
 12 13  2  0  0  0
 12 97  1  0  0  0
 13 14  1  0  0  0
 13 31  1  0  0  0
 14 15  2  0  0  0
 14 98  1  0  0  0
 15 99  1  0  0  0
 16 17  2  0  0  0
 16 21  1  0  0  0
 16 31  1  0  0  0
 17 18  1  0  0  0
 17100  1  0  0  0
 18 19  2  0  0  0
 18101  1  0  0  0
 19 20  1  0  0  0
 19 24  1  0  0  0
 20 21  2  0  0  0
 20102  1  0  0  0
 21 23  1  0  0  0
 22 28  1  0  0  0
 22 32  2  0  0  0
 26 27  1  0  0  0
 28103  1  0  0  0
 28104  1  0  0  0
 29105  1  0  0  0
 29106  1  0  0  0
 33 34  1  0  0  0
 33 66  1  0  0  0
 33 70  2  0  0  0
 34 36  1  0  0  0
 34 59  1  0  0  0
 34107  1  0  0  0
 35 44  2  0  0  0
 35 45  1  0  0  0
 35 68  1  0  0  0
 36 56  1  0  0  0
 36108  1  0  0  0
 37 39  1  0  0  0
 37 47  1  0  0  0
 37 66  1  0  0  0
 37109  1  0  0  0
 38 43  2  0  0  0
 38 46  1  0  0  0
 38 47  1  0  0  0
 39 64  1  0  0  0
 39 67  2  0  0  0
 40 52  1  0  0  0
 40 53  2  0  0  0
 40 58  1  0  0  0
 41110  1  0  0  0
 41111  1  0  0  0
 41112  1  0  0  0
 41 48  1  0  0  0
 42 43  1  0  0  0
 42 66  1  0  0  0
 42113  1  0  0  0
 42114  1  0  0  0
 43 44  1  0  0  0
 44115  1  0  0  0
 45 46  2  0  0  0
 45116  1  0  0  0
 46117  1  0  0  0
 47118  1  0  0  0
 47119  1  0  0  0
 48 56  1  0  0  0
 48 65  1  0  0  0
 48120  1  0  0  0
 49 50  1  0  0  0
 49 53  1  0  0  0
 49 64  1  0  0  0
 49121  1  0  0  0
 50 51  1  0  0  0
 50122  1  0  0  0
 50123  1  0  0  0
 51 52  1  0  0  0
 51124  1  0  0  0
 51125  1  0  0  0
 52126  1  0  0  0
 52127  1  0  0  0
 53 54  1  0  0  0
 54 55  2  0  0  0
 54128  1  0  0  0
 55 57  1  0  0  0
 55129  1  0  0  0
 56 69  2  0  0  0
 57 58  2  0  0  0
 57130  1  0  0  0
 58131  1  0  0  0
 59 60  1  0  0  0
 59 61  1  0  0  0
 59 62  1  0  0  0
 60132  1  0  0  0
 60133  1  0  0  0
 60134  1  0  0  0
 61135  1  0  0  0
 61136  1  0  0  0
 61137  1  0  0  0
 62138  1  0  0  0
 62139  1  0  0  0
 62140  1  0  0  0
 63 65  1  0  0  0
 63141  1  0  0  0
 63142  1  0  0  0
 63143  1  0  0  0
 64144  1  0  0  0
 65145  1  0  0  0
 68 83  1  0  0  0
 71 73  2  0  0  0
 71 74  1  0  0  0
 71146  1  0  0  0
 72 74  2  0  0  0
 72 84  1  0  0  0
 72147  1  0  0  0
 73 75  1  0  0  0
 73 80  1  0  0  0
 74 85  1  0  0  0
 75 81  1  0  0  0
 75 84  2  0  0  0
 76 78  1  0  0  0
 76 80  1  0  0  0
 76148  1  0  0  0
 76149  1  0  0  0
 77 79  1  0  0  0
 77 80  1  0  0  0
 77150  1  0  0  0
 77151  1  0  0  0
 78 86  1  0  0  0
 78152  1  0  0  0
 78153  1  0  0  0
 79 86  1  0  0  0
 79154  1  0  0  0
 79155  1  0  0  0
 80156  1  0  0  0
 81157  1  0  0  0
 81158  1  0  0  0
 81159  1  0  0  0
 82 83  1  0  0  0
 82160  1  0  0  0
 82161  1  0  0  0
 82 86  1  0  0  0
 83162  1  0  0  0
 83163  1  0  0  0
 85164  1  0  0  0
 86165  1  0  0  0
M  CHG  1  86   1
M  ISO  4   1 100  68 101  83 101  85 100
M  END
> <chiral flag>
0

> <version>
0

> <s_m_source_file>
/data/baiqing/PycharmProjects/Reinvent-master-3.2/result/LINK_invent/BTK/process_docking_weight1_custom_sum_contain_oxygen_bond_distance_aromatic_linkinvent_7_9_3/rearranged_h_0156.sdf

> <i_m_source_file_index>
66

> <r_mmod_Potential_Energy-OPLS-2005>
-212.556365966797

> <r_mmod_Stretch_Energy-OPLS-2005>
39.545295715332

> <r_mmod_Bend_Energy-OPLS-2005>
122.912956237793

> <r_mmod_Torsional_Energy-OPLS-2005>
275.706390380859

> <r_mmod_Improper_Torsional_Energy-OPLS-2005>
11.6840238571167

> <r_mmod_Van_der_Waal_Energy-OPLS-2005>
175.215148925781

> <r_mmod_Electrostatic_Energy-OPLS-2005>
-393.399505615234

> <r_mmod_Solvation_Energy-OPLS-2005>
-464.827026367188

> <b_mmod_Minimization_Converged-OPLS-2005>
0

> <r_mmod_RMS_Derivative-OPLS-2005>
4.27669143676758

$$$$
66
                    3D
 Structure written by MMmdl.
171180  0  0  1  0            999 V2000
  -30.6638  -14.6970   20.4725 C   0  0  0  0  0  0
  -30.4217  -12.4189   19.4764 C   0  0  0  0  0  0
  -29.5043  -12.5005   18.2364 C   0  0  0  0  0  0
  -28.0289  -12.3375   18.6492 C   0  0  0  0  0  0
  -27.6444  -13.2358   19.8560 C   0  0  2  0  0  0
  -28.6936  -13.1657   20.9895 C   0  0  0  0  0  0
  -25.2504  -13.8192   20.5707 C   0  0  0  0  0  0
  -24.1817  -13.0437   20.9245 C   0  0  0  0  0  0
  -24.6425  -11.6919   20.8797 C   0  0  0  0  0  0
  -23.9110  -10.4281   21.0421 C   0  0  0  0  0  0
  -24.3636   -9.4189   21.9206 C   0  0  0  0  0  0
  -23.6304   -8.2218   22.0741 C   0  0  0  0  0  0
  -22.4292   -8.0277   21.3550 C   0  0  0  0  0  0
  -21.9947   -9.0253   20.4639 C   0  0  0  0  0  0
  -22.7282  -10.2121   20.3057 C   0  0  0  0  0  0
  -21.6823   -6.0765   22.5294 C   0  0  0  0  0  0
  -21.3989   -6.5658   23.8243 C   0  0  0  0  0  0
  -21.3643   -5.6801   24.9185 C   0  0  0  0  0  0
  -21.6032   -4.3065   24.7213 C   0  0  0  0  0  0
  -21.8817   -3.8179   23.4334 C   0  0  0  0  0  0
  -21.9176   -4.7008   22.3401 C   0  0  0  0  0  0
  -22.7823  -13.5204   21.1852 C   0  0  0  0  0  0
  -22.1650   -4.2209   21.0979 F   0  0  0  0  0  0
  -21.5630   -3.4529   25.7713 F   0  0  0  0  0  0
  -30.0022  -13.4911   20.4077 N   0  0  0  0  0  0
  -26.2964  -12.9439   20.3352 N   0  0  0  0  0  0
  -25.9367  -11.6573   20.5840 N   0  0  0  0  0  0
  -22.0486  -12.8212   22.0438 N   0  0  0  0  0  0
  -25.4102  -15.1907   20.3968 N   0  0  0  0  0  0
  -31.8453  -14.7726   20.1303 O   0  0  0  0  0  0
  -21.6628   -6.8909   21.4257 O   0  0  0  0  0  0
  -22.3500  -14.5488   20.6647 O   0  0  0  0  0  0
  -24.6271  -31.8585   23.1970 C   0  0  0  0  0  0
  -25.9103  -32.4771   23.8331 C   0  0  1  0  0  0
  -27.2489  -27.3218   20.1240 C   0  0  0  0  0  0
  -25.5914  -33.8576   24.2276 N   0  0  0  0  0  0
  -23.4202  -30.4772   21.5402 C   0  0  2  0  0  0
  -24.8694  -28.9101   20.1276 C   0  0  0  0  0  0
  -22.7457  -29.4638   22.4938 C   0  0  0  0  0  0
  -18.0276  -28.1383   22.8481 C   0  0  0  0  0  0
  -24.1474  -36.7290   23.2647 C   0  0  0  0  0  0
  -25.9586  -30.7888   21.3625 C   0  0  0  0  0  0
  -26.0361  -29.4060   20.7233 C   0  0  0  0  0  0
  -27.2289  -28.6249   20.7080 C   0  0  0  0  0  0
  -26.0558  -26.8583   19.5312 C   0  0  0  0  0  0
  -24.8783  -27.6364   19.5294 C   0  0  0  0  0  0
  -23.6360  -29.7935   20.1630 C   0  0  0  0  0  0
  -25.4096  -36.3096   24.0344 C   0  0  1  0  0  0
  -20.5882  -28.3694   23.1279 C   0  0  2  0  0  0
  -20.6773  -26.9422   22.5404 C   0  0  0  0  0  0
  -19.5753  -26.6399   21.5193 C   0  0  0  0  0  0
  -18.1925  -26.7936   22.1600 C   0  0  0  0  0  0
  -19.1532  -28.8840   23.2882 C   0  0  0  0  0  0
  -18.9466  -30.1446   23.8903 C   0  0  0  0  0  0
  -17.6475  -30.6591   24.0566 C   0  0  0  0  0  0
  -25.9032  -34.9462   23.5108 C   0  0  0  0  0  0
  -16.5359  -29.9095   23.6337 C   0  0  0  0  0  0
  -16.7266  -28.6511   23.0361 C   0  0  0  0  0  0
  -26.4490  -31.6593   25.0708 C   0  0  0  0  0  0
  -25.3743  -31.3716   26.1449 C   0  0  0  0  0  0
  -27.0349  -30.3049   24.6119 C   0  0  0  0  0  0
  -27.6058  -32.4316   25.7473 C   0  0  0  0  0  0
  -27.5561  -37.1805   24.8468 C   0  0  0  0  0  0
  -21.4172  -29.3064   22.3688 N   0  0  0  0  0  0
  -26.4275  -37.3800   23.9418 N   0  0  0  0  0  0
  -24.6876  -31.0604   22.0906 N   0  0  0  0  0  0
  -23.4198  -28.8214   23.3039 O   0  0  0  0  0  0
  -28.4035  -26.5314   20.0476 O   0  0  0  0  0  0
  -26.5615  -34.8942   22.4685 O   0  0  0  0  0  0
  -23.5436  -32.1363   23.7313 O   0  0  0  0  0  0
  -28.1550  -18.2971   20.8049 C   0  0  0  0  0  0
  -27.5760  -20.6687   21.0137 C   0  0  0  0  0  0
  -28.9167  -21.0623   20.8202 C   0  0  0  0  0  0
  -29.5298  -18.5718   20.6759 C   0  0  0  0  0  0
  -27.1924  -19.3100   20.9524 C   0  0  0  0  0  0
  -29.9049  -20.0028   20.6504 C   0  0  0  0  0  0
  -26.6036  -21.7450   21.4693 C   0  0  0  0  0  0
  -27.2145  -22.5569   22.6394 C   0  0  0  0  0  0
  -29.2251  -22.6124   21.1160 C   0  0  1  0  0  0
  -29.8385  -24.0359   19.0189 C   0  0  0  0  0  0
  -25.0741  -19.1667   19.9785 C   0  0  0  0  0  0
  -32.3184  -19.6865   20.3656 C   0  0  0  0  0  0
  -30.4747  -17.2841   20.5979 C   0  0  0  0  0  0
  -28.4919  -25.2701   20.8141 C   0  0  0  0  0  0
  -28.7872  -23.8366   20.1237 C   0  0  2  0  0  0
  -29.9492  -15.8524   20.7133 N   0  0  0  0  0  0
  -28.6629  -22.8673   22.4647 N   0  3  0  0  0  0
  -25.8919  -18.9235   21.1167 O   0  0  0  0  0  0
  -31.1804  -20.5158   20.5174 O   0  0  0  0  0  0
  -31.4668  -12.5093   19.1752 H   0  0  0  0  0  0
  -30.3348  -11.4413   19.9573 H   0  0  0  0  0  0
  -29.7794  -11.7321   17.5112 H   0  0  0  0  0  0
  -29.6397  -13.4596   17.7354 H   0  0  0  0  0  0
  -27.8761  -11.2902   18.9103 H   0  0  0  0  0  0
  -27.3720  -12.5393   17.8011 H   0  0  0  0  0  0
  -27.6452  -14.2587   19.4795 H   0  0  0  0  0  0
  -28.7156  -12.1737   21.4413 H   0  0  0  0  0  0
  -28.4403  -13.8603   21.7921 H   0  0  0  0  0  0
  -25.2744   -9.5661   22.4830 H   0  0  0  0  0  0
  -24.0001   -7.4580   22.7418 H   0  0  0  0  0  0
  -21.0897   -8.8749   19.8914 H   0  0  0  0  0  0
  -22.3730  -10.9660   19.6169 H   0  0  0  0  0  0
  -21.1964   -7.6168   23.9766 H   0  0  0  0  0  0
  -21.1474   -6.0517   25.9106 H   0  0  0  0  0  0
  -22.0605   -2.7650   23.2785 H   0  0  0  0  0  0
  -22.4136  -11.9850   22.4774 H   0  0  0  0  0  0
  -21.1095  -13.1191   22.2667 H   0  0  0  0  0  0
  -24.6167  -15.8201   20.4510 H   0  0  0  0  0  0
  -26.2378  -15.6239   20.0102 H   0  0  0  0  0  0
  -26.7178  -32.5453   23.1092 H   0  0  0  0  0  0
  -25.0112  -33.9704   25.0451 H   0  0  0  0  0  0
  -22.7167  -31.2984   21.3860 H   0  0  0  0  0  0
  -23.3752  -35.9606   23.3312 H   0  0  0  0  0  0
  -24.3589  -36.8897   22.2063 H   0  0  0  0  0  0
  -23.7206  -37.6487   23.6658 H   0  0  0  0  0  0
  -26.0774  -31.5363   20.5768 H   0  0  0  0  0  0
  -26.8478  -30.8568   21.9778 H   0  0  0  0  0  0
  -28.1331  -29.0139   21.1561 H   0  0  0  0  0  0
  -26.0376  -25.8871   19.0565 H   0  0  0  0  0  0
  -23.9800  -27.2442   19.0718 H   0  0  0  0  0  0
  -23.7623  -30.5586   19.3959 H   0  0  0  0  0  0
  -22.7556  -29.2222   19.8614 H   0  0  0  0  0  0
  -25.1279  -36.1954   25.0843 H   0  0  0  0  0  0
  -20.9968  -28.3258   24.1396 H   0  0  0  0  0  0
  -20.5645  -26.2307   23.3601 H   0  0  0  0  0  0
  -21.6646  -26.7437   22.1213 H   0  0  0  0  0  0
  -19.6926  -25.6310   21.1211 H   0  0  0  0  0  0
  -19.6693  -27.3216   20.6726 H   0  0  0  0  0  0
  -17.4206  -26.6679   21.3997 H   0  0  0  0  0  0
  -18.0332  -26.0064   22.8977 H   0  0  0  0  0  0
  -19.7948  -30.7243   24.2291 H   0  0  0  0  0  0
  -17.5041  -31.6269   24.5168 H   0  0  0  0  0  0
  -15.5374  -30.3017   23.7649 H   0  0  0  0  0  0
  -15.8660  -28.0829   22.7099 H   0  0  0  0  0  0
  -24.5925  -30.7037   25.7813 H   0  0  0  0  0  0
  -24.8916  -32.2869   26.4884 H   0  0  0  0  0  0
  -25.8096  -30.8921   27.0225 H   0  0  0  0  0  0
  -26.2918  -29.6788   24.1168 H   0  0  0  0  0  0
  -27.4133  -29.7304   25.4581 H   0  0  0  0  0  0
  -27.8737  -30.4402   23.9290 H   0  0  0  0  0  0
  -27.2691  -33.3636   26.2026 H   0  0  0  0  0  0
  -28.3886  -32.6828   25.0306 H   0  0  0  0  0  0
  -28.0704  -31.8447   26.5404 H   0  0  0  0  0  0
  -28.2605  -38.0084   24.7532 H   0  0  0  0  0  0
  -28.1030  -36.2621   24.6269 H   0  0  0  0  0  0
  -27.2291  -37.1431   25.8879 H   0  0  0  0  0  0
  -20.9346  -29.8792   21.6891 H   0  0  0  0  0  0
  -26.0148  -38.2871   24.1445 H   0  0  0  0  0  0
  -27.8080  -17.2761   20.8236 H   0  0  0  0  0  0
  -25.6562  -21.3170   21.7959 H   0  0  0  0  0  0
  -26.3539  -22.3853   20.6248 H   0  0  0  0  0  0
  -27.1262  -21.9917   23.5697 H   0  0  0  0  0  0
  -26.6459  -23.4754   22.7924 H   0  0  0  0  0  0
  -30.3025  -22.7063   21.2561 H   0  0  0  0  0  0
  -30.0281  -23.1139   18.4710 H   0  0  0  0  0  0
  -30.7847  -24.3880   19.4301 H   0  0  0  0  0  0
  -29.5059  -24.7815   18.2941 H   0  0  0  0  0  0
  -25.6292  -19.5257   19.1088 H   0  0  0  0  0  0
  -24.3151  -19.9088   20.2235 H   0  0  0  0  0  0
  -24.5629  -18.2488   19.6916 H   0  0  0  0  0  0
  -33.1931  -20.3223   20.2310 H   0  0  0  0  0  0
  -32.2579  -19.0619   19.4758 H   0  0  0  0  0  0
  -32.5010  -19.0943   21.2608 H   0  0  0  0  0  0
  -30.9969  -17.3287   19.6434 H   0  0  0  0  0  0
  -31.2301  -17.3680   21.3786 H   0  0  0  0  0  0
  -29.3049  -25.4535   21.5178 H   0  0  0  0  0  0
  -27.5947  -25.1918   21.4272 H   0  0  0  0  0  0
  -27.8653  -23.5658   19.6153 H   0  0  0  0  0  0
  -28.9752  -15.7311   20.9431 H   0  0  0  0  0  0
  -29.1679  -22.2741   23.1026 H   0  0  0  0  0  0
  -28.8532  -23.8124   22.7547 H   0  0  0  0  0  0
  1 25  1  0  0  0
  1 30  2  0  0  0
  1 86  1  0  0  0
  2  3  1  0  0  0
  2 25  1  0  0  0
  2 90  1  0  0  0
  2 91  1  0  0  0
  3  4  1  0  0  0
  3 92  1  0  0  0
  3 93  1  0  0  0
  4  5  1  0  0  0
  4 94  1  0  0  0
  4 95  1  0  0  0
  5  6  1  0  0  0
  5 26  1  0  0  0
  5 96  1  0  0  0
  6 25  1  0  0  0
  6 97  1  0  0  0
  6 98  1  0  0  0
  7  8  2  0  0  0
  7 26  1  0  0  0
  7 29  1  0  0  0
  8  9  1  0  0  0
  8 22  1  0  0  0
  9 10  1  0  0  0
  9 27  2  0  0  0
 10 11  2  0  0  0
 10 15  1  0  0  0
 11 12  1  0  0  0
 11 99  1  0  0  0
 12 13  2  0  0  0
 12100  1  0  0  0
 13 14  1  0  0  0
 13 31  1  0  0  0
 14 15  2  0  0  0
 14101  1  0  0  0
 15102  1  0  0  0
 16 17  2  0  0  0
 16 21  1  0  0  0
 16 31  1  0  0  0
 17 18  1  0  0  0
 17103  1  0  0  0
 18 19  2  0  0  0
 18104  1  0  0  0
 19 20  1  0  0  0
 19 24  1  0  0  0
 20 21  2  0  0  0
 20105  1  0  0  0
 21 23  1  0  0  0
 22 28  1  0  0  0
 22 32  2  0  0  0
 26 27  1  0  0  0
 28106  1  0  0  0
 28107  1  0  0  0
 29108  1  0  0  0
 29109  1  0  0  0
 33 34  1  0  0  0
 33 66  1  0  0  0
 33 70  2  0  0  0
 34 36  1  0  0  0
 34 59  1  0  0  0
 34110  1  0  0  0
 35 44  2  0  0  0
 35 45  1  0  0  0
 35 68  1  0  0  0
 36 56  1  0  0  0
 36111  1  0  0  0
 37 39  1  0  0  0
 37 47  1  0  0  0
 37 66  1  0  0  0
 37112  1  0  0  0
 38 43  2  0  0  0
 38 46  1  0  0  0
 38 47  1  0  0  0
 39 64  1  0  0  0
 39 67  2  0  0  0
 40 52  1  0  0  0
 40 53  2  0  0  0
 40 58  1  0  0  0
 41113  1  0  0  0
 41114  1  0  0  0
 41115  1  0  0  0
 41 48  1  0  0  0
 42 43  1  0  0  0
 42 66  1  0  0  0
 42116  1  0  0  0
 42117  1  0  0  0
 43 44  1  0  0  0
 44118  1  0  0  0
 45 46  2  0  0  0
 45119  1  0  0  0
 46120  1  0  0  0
 47121  1  0  0  0
 47122  1  0  0  0
 48 56  1  0  0  0
 48 65  1  0  0  0
 48123  1  0  0  0
 49 50  1  0  0  0
 49 53  1  0  0  0
 49 64  1  0  0  0
 49124  1  0  0  0
 50 51  1  0  0  0
 50125  1  0  0  0
 50126  1  0  0  0
 51 52  1  0  0  0
 51127  1  0  0  0
 51128  1  0  0  0
 52129  1  0  0  0
 52130  1  0  0  0
 53 54  1  0  0  0
 54 55  2  0  0  0
 54131  1  0  0  0
 55 57  1  0  0  0
 55132  1  0  0  0
 56 69  2  0  0  0
 57 58  2  0  0  0
 57133  1  0  0  0
 58134  1  0  0  0
 59 60  1  0  0  0
 59 61  1  0  0  0
 59 62  1  0  0  0
 60135  1  0  0  0
 60136  1  0  0  0
 60137  1  0  0  0
 61138  1  0  0  0
 61139  1  0  0  0
 61140  1  0  0  0
 62141  1  0  0  0
 62142  1  0  0  0
 62143  1  0  0  0
 63 65  1  0  0  0
 63144  1  0  0  0
 63145  1  0  0  0
 63146  1  0  0  0
 64147  1  0  0  0
 65148  1  0  0  0
 68 84  1  0  0  0
 71 74  2  0  0  0
 71 75  1  0  0  0
 71149  1  0  0  0
 72 73  1  0  0  0
 72 75  2  0  0  0
 72 77  1  0  0  0
 73 76  2  0  0  0
 73 79  1  0  0  0
 74 76  1  0  0  0
 74 83  1  0  0  0
 75 88  1  0  0  0
 76 89  1  0  0  0
 77 78  1  0  0  0
 77150  1  0  0  0
 77151  1  0  0  0
 78 87  1  0  0  0
 78152  1  0  0  0
 78153  1  0  0  0
 79 85  1  0  0  0
 79 87  1  0  0  0
 79154  1  0  0  0
 80155  1  0  0  0
 80156  1  0  0  0
 80157  1  0  0  0
 80 85  1  0  0  0
 81 88  1  0  0  0
 81158  1  0  0  0
 81159  1  0  0  0
 81160  1  0  0  0
 82 89  1  0  0  0
 82161  1  0  0  0
 82162  1  0  0  0
 82163  1  0  0  0
 83 86  1  0  0  0
 83164  1  0  0  0
 83165  1  0  0  0
 84 85  1  0  0  0
 84166  1  0  0  0
 84167  1  0  0  0
 85168  1  0  0  0
 86169  1  0  0  0
 87170  1  0  0  0
 87171  1  0  0  0
M  CHG  1  87   1
M  ISO  4   1 100  68 101  84 101  86 100
M  END
> <chiral flag>
0

> <version>
0

> <s_m_source_file>
/data/baiqing/PycharmProjects/Reinvent-master-3.2/result/LINK_invent/BTK/process_docking_weight1_custom_sum_contain_oxygen_bond_distance_aromatic_linkinvent_7_9_3/rearranged_h_0156.sdf

> <i_m_source_file_index>
67

> <r_mmod_Potential_Energy-OPLS-2005>
-12.874493598938

> <r_mmod_Stretch_Energy-OPLS-2005>
125.243194580078

> <r_mmod_Bend_Energy-OPLS-2005>
199.665252685547

> <r_mmod_Torsional_Energy-OPLS-2005>
309.536590576172

> <r_mmod_Improper_Torsional_Energy-OPLS-2005>
7.76940870285034

> <r_mmod_Van_der_Waal_Energy-OPLS-2005>
147.666244506836

> <r_mmod_Electrostatic_Energy-OPLS-2005>
-402.714080810547

> <r_mmod_Solvation_Energy-OPLS-2005>
-456.060089111328

> <b_mmod_Minimization_Converged-OPLS-2005>
0

> <r_mmod_RMS_Derivative-OPLS-2005>
4.15707445144653

$$$$
67
                    3D
 Structure written by MMmdl.
158167  0  0  1  0            999 V2000
  -30.6176  -14.6843   20.4938 C   0  0  0  0  0  0
  -30.4357  -12.4230   19.4572 C   0  0  0  0  0  0
  -29.5050  -12.4948   18.2271 C   0  0  0  0  0  0
  -28.0312  -12.3245   18.6461 C   0  0  0  0  0  0
  -27.6449  -13.2195   19.8531 C   0  0  2  0  0  0
  -28.6890  -13.1187   20.9856 C   0  0  0  0  0  0
  -25.2533  -13.8175   20.5689 C   0  0  0  0  0  0
  -24.1810  -13.0437   20.9206 C   0  0  0  0  0  0
  -24.6383  -11.6905   20.8756 C   0  0  0  0  0  0
  -23.9057  -10.4288   21.0417 C   0  0  0  0  0  0
  -24.3607   -9.4203   21.9195 C   0  0  0  0  0  0
  -23.6286   -8.2239   22.0759 C   0  0  0  0  0  0
  -22.4274   -8.0276   21.3541 C   0  0  0  0  0  0
  -21.9911   -9.0249   20.4645 C   0  0  0  0  0  0
  -22.7236  -10.2130   20.3059 C   0  0  0  0  0  0
  -21.6849   -6.0733   22.5275 C   0  0  0  0  0  0
  -21.4009   -6.5637   23.8210 C   0  0  0  0  0  0
  -21.3657   -5.6794   24.9176 C   0  0  0  0  0  0
  -21.6045   -4.3056   24.7228 C   0  0  0  0  0  0
  -21.8819   -3.8147   23.4350 C   0  0  0  0  0  0
  -21.9190   -4.6962   22.3402 C   0  0  0  0  0  0
  -22.7835  -13.5229   21.1864 C   0  0  0  0  0  0
  -22.1662   -4.2149   21.0981 F   0  0  0  0  0  0
  -21.5628   -3.4540   25.7742 F   0  0  0  0  0  0
  -29.9940  -13.4652   20.4072 N   0  0  0  0  0  0
  -26.2944  -12.9356   20.3285 N   0  0  0  0  0  0
  -25.9305  -11.6508   20.5761 N   0  0  0  0  0  0
  -22.0475  -12.8212   22.0414 N   0  0  0  0  0  0
  -25.4242  -15.1898   20.4092 N   0  0  0  0  0  0
  -31.8026  -14.8120   20.1738 O   0  0  0  0  0  0
  -21.6634   -6.8876   21.4237 O   0  0  0  0  0  0
  -22.3523  -14.5536   20.6716 O   0  0  0  0  0  0
  -24.6279  -31.8560   23.2005 C   0  0  0  0  0  0
  -25.9116  -32.4753   23.8343 C   0  0  1  0  0  0
  -27.2380  -27.3054   20.1140 C   0  0  0  0  0  0
  -25.5919  -33.8558   24.2260 N   0  0  0  0  0  0
  -23.4217  -30.4779   21.5435 C   0  0  2  0  0  0
  -24.8684  -28.9252   20.1116 C   0  0  0  0  0  0
  -22.7485  -29.4599   22.4943 C   0  0  0  0  0  0
  -18.0285  -28.1376   22.8487 C   0  0  0  0  0  0
  -24.1478  -36.7281   23.2637 C   0  0  0  0  0  0
  -25.9622  -30.7845   21.3696 C   0  0  0  0  0  0
  -26.0363  -29.4098   20.7111 C   0  0  0  0  0  0
  -27.2174  -28.6112   20.7015 C   0  0  0  0  0  0
  -26.0312  -26.8537   19.5386 C   0  0  0  0  0  0
  -24.8678  -27.6506   19.5197 C   0  0  0  0  0  0
  -23.6363  -29.8072   20.1597 C   0  0  0  0  0  0
  -25.4101  -36.3063   24.0320 C   0  0  1  0  0  0
  -20.5888  -28.3683   23.1283 C   0  0  2  0  0  0
  -20.6772  -26.9403   22.5408 C   0  0  0  0  0  0
  -19.5742  -26.6380   21.5209 C   0  0  0  0  0  0
  -18.1924  -26.7923   22.1621 C   0  0  0  0  0  0
  -19.1540  -28.8850   23.2872 C   0  0  0  0  0  0
  -18.9466  -30.1456   23.8880 C   0  0  0  0  0  0
  -17.6466  -30.6578   24.0564 C   0  0  0  0  0  0
  -25.9048  -34.9438   23.5090 C   0  0  0  0  0  0
  -16.5355  -29.9076   23.6338 C   0  0  0  0  0  0
  -16.7276  -28.6493   23.0356 C   0  0  0  0  0  0
  -26.4495  -31.6574   25.0725 C   0  0  0  0  0  0
  -25.3731  -31.3698   26.1458 C   0  0  0  0  0  0
  -27.0369  -30.3008   24.6177 C   0  0  0  0  0  0
  -27.6046  -32.4344   25.7487 C   0  0  0  0  0  0
  -27.5577  -37.1771   24.8455 C   0  0  0  0  0  0
  -21.4201  -29.3029   22.3683 N   0  0  0  0  0  0
  -26.4266  -37.3776   23.9432 N   0  0  0  0  0  0
  -24.6897  -31.0564   22.0950 N   0  0  0  0  0  0
  -23.4200  -28.8145   23.3034 O   0  0  0  0  0  0
  -28.3978  -26.5116   20.1950 O   0  0  0  0  0  0
  -26.5638  -34.8909   22.4671 O   0  0  0  0  0  0
  -23.5439  -32.1366   23.7327 O   0  0  0  0  0  0
  -27.5985  -23.0924   20.4792 C   0  0  0  0  0  0
  -27.7608  -21.7028   20.8079 C   0  0  0  0  0  0
  -30.0638  -21.7406   20.0914 C   0  0  0  0  0  0
  -29.8961  -23.1318   19.8103 C   0  0  0  0  0  0
  -28.6911  -23.8400   19.9753 C   0  0  0  0  0  0
  -28.9838  -20.9820   20.6180 C   0  0  0  0  0  0
  -30.9109  -24.0599   19.3175 C   0  0  0  0  0  0
  -30.3093  -25.4695   19.3104 C   0  0  0  0  0  0
  -28.7628  -25.3081   19.3945 C   0  0  2  0  0  0
  -28.2377  -25.3344   17.9396 C   0  0  0  0  0  0
  -29.4785  -18.4160   20.2483 C   0  0  0  0  0  0
  -30.2243  -17.2221   21.0235 C   0  0  0  0  0  0
  -29.1185  -19.6207   21.0698 N   0  0  0  0  0  0
  -29.8323  -15.7813   20.7699 N   0  0  0  0  0  0
  -32.0739  -23.8021   18.9926 O   0  0  0  0  0  0
  -31.4744  -12.5564   19.1506 H   0  0  0  0  0  0
  -30.3849  -11.4386   19.9256 H   0  0  0  0  0  0
  -29.7770  -11.7250   17.5039 H   0  0  0  0  0  0
  -29.6352  -13.4522   17.7199 H   0  0  0  0  0  0
  -27.8861  -11.2759   18.9083 H   0  0  0  0  0  0
  -27.3694  -12.5189   17.8015 H   0  0  0  0  0  0
  -27.6512  -14.2457   19.4845 H   0  0  0  0  0  0
  -28.7145  -12.1103   21.4015 H   0  0  0  0  0  0
  -28.4305  -13.7800   21.8142 H   0  0  0  0  0  0
  -25.2749   -9.5683   22.4779 H   0  0  0  0  0  0
  -23.9993   -7.4635   22.7482 H   0  0  0  0  0  0
  -21.0845   -8.8766   19.8953 H   0  0  0  0  0  0
  -22.3693  -10.9669   19.6171 H   0  0  0  0  0  0
  -21.1998   -7.6146   23.9712 H   0  0  0  0  0  0
  -21.1479   -6.0526   25.9078 H   0  0  0  0  0  0
  -22.0600   -2.7610   23.2850 H   0  0  0  0  0  0
  -22.4081  -11.9866   22.4789 H   0  0  0  0  0  0
  -21.1096  -13.1236   22.2625 H   0  0  0  0  0  0
  -24.6561  -15.8434   20.5163 H   0  0  0  0  0  0
  -26.2664  -15.6259   20.0568 H   0  0  0  0  0  0
  -26.7182  -32.5409   23.1095 H   0  0  0  0  0  0
  -25.0054  -33.9702   25.0398 H   0  0  0  0  0  0
  -22.7155  -31.2979   21.3996 H   0  0  0  0  0  0
  -23.3751  -35.9599   23.3268 H   0  0  0  0  0  0
  -24.3564  -36.8951   22.2054 H   0  0  0  0  0  0
  -23.7216  -37.6461   23.6700 H   0  0  0  0  0  0
  -26.0939  -31.5480   20.6017 H   0  0  0  0  0  0
  -26.8427  -30.8338   21.9988 H   0  0  0  0  0  0
  -28.1155  -28.9830   21.1753 H   0  0  0  0  0  0
  -25.9427  -25.8536   19.1518 H   0  0  0  0  0  0
  -23.9641  -27.2561   19.0767 H   0  0  0  0  0  0
  -23.7541  -30.5822   19.4013 H   0  0  0  0  0  0
  -22.7554  -29.2360   19.8615 H   0  0  0  0  0  0
  -25.1271  -36.1889   25.0812 H   0  0  0  0  0  0
  -20.9970  -28.3253   24.1407 H   0  0  0  0  0  0
  -20.5671  -26.2291   23.3608 H   0  0  0  0  0  0
  -21.6639  -26.7426   22.1202 H   0  0  0  0  0  0
  -19.6903  -25.6290   21.1235 H   0  0  0  0  0  0
  -19.6670  -27.3191   20.6734 H   0  0  0  0  0  0
  -17.4193  -26.6685   21.4018 H   0  0  0  0  0  0
  -18.0307  -26.0050   22.9006 H   0  0  0  0  0  0
  -19.7943  -30.7279   24.2234 H   0  0  0  0  0  0
  -17.5019  -31.6249   24.5179 H   0  0  0  0  0  0
  -15.5356  -30.2971   23.7662 H   0  0  0  0  0  0
  -15.8679  -28.0809   22.7083 H   0  0  0  0  0  0
  -24.5907  -30.7044   25.7790 H   0  0  0  0  0  0
  -24.8915  -32.2854   26.4897 H   0  0  0  0  0  0
  -25.8053  -30.8869   27.0228 H   0  0  0  0  0  0
  -26.2952  -29.6722   24.1231 H   0  0  0  0  0  0
  -27.4131  -29.7284   25.4665 H   0  0  0  0  0  0
  -27.8781  -30.4328   23.9369 H   0  0  0  0  0  0
  -27.2653  -33.3662   26.2024 H   0  0  0  0  0  0
  -28.3850  -32.6879   25.0304 H   0  0  0  0  0  0
  -28.0718  -31.8507   26.5427 H   0  0  0  0  0  0
  -28.2532  -38.0131   24.7597 H   0  0  0  0  0  0
  -28.1136  -36.2668   24.6161 H   0  0  0  0  0  0
  -27.2314  -37.1272   25.8860 H   0  0  0  0  0  0
  -20.9395  -29.8761   21.6891 H   0  0  0  0  0  0
  -26.0132  -38.2828   24.1512 H   0  0  0  0  0  0
  -26.6372  -23.5690   20.6100 H   0  0  0  0  0  0
  -26.9048  -21.1828   21.2150 H   0  0  0  0  0  0
  -31.0322  -21.2823   19.9478 H   0  0  0  0  0  0
  -30.6330  -26.0547   18.4497 H   0  0  0  0  0  0
  -30.6858  -25.9659   20.2050 H   0  0  0  0  0  0
  -28.8461  -24.7034   17.2902 H   0  0  0  0  0  0
  -28.2630  -26.3413   17.5217 H   0  0  0  0  0  0
  -27.2286  -24.9436   17.8430 H   0  0  0  0  0  0
  -28.5436  -18.0306   19.8386 H   0  0  0  0  0  0
  -30.0724  -18.7227   19.3858 H   0  0  0  0  0  0
  -30.0726  -17.3684   22.0942 H   0  0  0  0  0  0
  -31.3003  -17.3336   20.8810 H   0  0  0  0  0  0
  -28.4192  -19.3822   21.7698 H   0  0  0  0  0  0
  -28.8631  -15.5655   20.9469 H   0  0  0  0  0  0
  1 25  1  0  0  0
  1 30  2  0  0  0
  1 84  1  0  0  0
  2  3  1  0  0  0
  2 25  1  0  0  0
  2 86  1  0  0  0
  2 87  1  0  0  0
  3  4  1  0  0  0
  3 88  1  0  0  0
  3 89  1  0  0  0
  4  5  1  0  0  0
  4 90  1  0  0  0
  4 91  1  0  0  0
  5  6  1  0  0  0
  5 26  1  0  0  0
  5 92  1  0  0  0
  6 25  1  0  0  0
  6 93  1  0  0  0
  6 94  1  0  0  0
  7  8  2  0  0  0
  7 26  1  0  0  0
  7 29  1  0  0  0
  8  9  1  0  0  0
  8 22  1  0  0  0
  9 10  1  0  0  0
  9 27  2  0  0  0
 10 11  2  0  0  0
 10 15  1  0  0  0
 11 12  1  0  0  0
 11 95  1  0  0  0
 12 13  2  0  0  0
 12 96  1  0  0  0
 13 14  1  0  0  0
 13 31  1  0  0  0
 14 15  2  0  0  0
 14 97  1  0  0  0
 15 98  1  0  0  0
 16 17  2  0  0  0
 16 21  1  0  0  0
 16 31  1  0  0  0
 17 18  1  0  0  0
 17 99  1  0  0  0
 18 19  2  0  0  0
 18100  1  0  0  0
 19 20  1  0  0  0
 19 24  1  0  0  0
 20 21  2  0  0  0
 20101  1  0  0  0
 21 23  1  0  0  0
 22 28  1  0  0  0
 22 32  2  0  0  0
 26 27  1  0  0  0
 28102  1  0  0  0
 28103  1  0  0  0
 29104  1  0  0  0
 29105  1  0  0  0
 33 34  1  0  0  0
 33 66  1  0  0  0
 33 70  2  0  0  0
 34 36  1  0  0  0
 34 59  1  0  0  0
 34106  1  0  0  0
 35 44  2  0  0  0
 35 45  1  0  0  0
 35 68  1  0  0  0
 36 56  1  0  0  0
 36107  1  0  0  0
 37 39  1  0  0  0
 37 47  1  0  0  0
 37 66  1  0  0  0
 37108  1  0  0  0
 38 43  2  0  0  0
 38 46  1  0  0  0
 38 47  1  0  0  0
 39 64  1  0  0  0
 39 67  2  0  0  0
 40 52  1  0  0  0
 40 53  2  0  0  0
 40 58  1  0  0  0
 41109  1  0  0  0
 41110  1  0  0  0
 41111  1  0  0  0
 41 48  1  0  0  0
 42 43  1  0  0  0
 42 66  1  0  0  0
 42112  1  0  0  0
 42113  1  0  0  0
 43 44  1  0  0  0
 44114  1  0  0  0
 45 46  2  0  0  0
 45115  1  0  0  0
 46116  1  0  0  0
 47117  1  0  0  0
 47118  1  0  0  0
 48 56  1  0  0  0
 48 65  1  0  0  0
 48119  1  0  0  0
 49 50  1  0  0  0
 49 53  1  0  0  0
 49 64  1  0  0  0
 49120  1  0  0  0
 50 51  1  0  0  0
 50121  1  0  0  0
 50122  1  0  0  0
 51 52  1  0  0  0
 51123  1  0  0  0
 51124  1  0  0  0
 52125  1  0  0  0
 52126  1  0  0  0
 53 54  1  0  0  0
 54 55  2  0  0  0
 54127  1  0  0  0
 55 57  1  0  0  0
 55128  1  0  0  0
 56 69  2  0  0  0
 57 58  2  0  0  0
 57129  1  0  0  0
 58130  1  0  0  0
 59 60  1  0  0  0
 59 61  1  0  0  0
 59 62  1  0  0  0
 60131  1  0  0  0
 60132  1  0  0  0
 60133  1  0  0  0
 61134  1  0  0  0
 61135  1  0  0  0
 61136  1  0  0  0
 62137  1  0  0  0
 62138  1  0  0  0
 62139  1  0  0  0
 63 65  1  0  0  0
 63140  1  0  0  0
 63141  1  0  0  0
 63142  1  0  0  0
 64143  1  0  0  0
 65144  1  0  0  0
 68 79  1  0  0  0
 71 72  2  0  0  0
 71 75  1  0  0  0
 71145  1  0  0  0
 72 76  1  0  0  0
 72146  1  0  0  0
 73 74  1  0  0  0
 73 76  2  0  0  0
 73147  1  0  0  0
 74 75  2  0  0  0
 74 77  1  0  0  0
 75 79  1  0  0  0
 76 83  1  0  0  0
 77 78  1  0  0  0
 77 85  2  0  0  0
 78 79  1  0  0  0
 78148  1  0  0  0
 78149  1  0  0  0
 79 80  1  0  0  0
 80150  1  0  0  0
 80151  1  0  0  0
 80152  1  0  0  0
 81 82  1  0  0  0
 81 83  1  0  0  0
 81153  1  0  0  0
 81154  1  0  0  0
 82 84  1  0  0  0
 82155  1  0  0  0
 82156  1  0  0  0
 83157  1  0  0  0
 84158  1  0  0  0
M  ISO  4   1 100  68 101  79 101  84 100
M  END
> <chiral flag>
0

> <version>
0

> <s_m_source_file>
/data/baiqing/PycharmProjects/Reinvent-master-3.2/result/LINK_invent/BTK/process_docking_weight1_custom_sum_contain_oxygen_bond_distance_aromatic_linkinvent_7_9_3/rearranged_h_0156.sdf

> <i_m_source_file_index>
68

> <r_mmod_Potential_Energy-OPLS-2005>
98.0666351318359

> <r_mmod_Stretch_Energy-OPLS-2005>
89.2759246826172

> <r_mmod_Bend_Energy-OPLS-2005>
236.054748535156

> <r_mmod_Torsional_Energy-OPLS-2005>
259.909210205078

> <r_mmod_Improper_Torsional_Energy-OPLS-2005>
8.66576194763184

> <r_mmod_Van_der_Waal_Energy-OPLS-2005>
134.486663818359

> <r_mmod_Electrostatic_Energy-OPLS-2005>
-455.047241210938

> <r_mmod_Solvation_Energy-OPLS-2005>
-234.615417480469

> <b_mmod_Minimization_Converged-OPLS-2005>
0

> <r_mmod_RMS_Derivative-OPLS-2005>
1.32586431503296

$$$$
68
                    3D
 Structure written by MMmdl.
177186  0  0  1  0            999 V2000
  -30.7280  -14.3433   20.7358 C   0  0  0  0  0  0
  -30.4299  -12.3008   19.3681 C   0  0  0  0  0  0
  -29.4825  -12.5462   18.1782 C   0  0  0  0  0  0
  -28.0069  -12.3885   18.5961 C   0  0  0  0  0  0
  -27.6681  -13.1913   19.8780 C   0  0  2  0  0  0
  -28.7000  -12.8786   20.9801 C   0  0  0  0  0  0
  -25.2623  -13.8142   20.5639 C   0  0  0  0  0  0
  -24.1857  -13.0428   20.9141 C   0  0  0  0  0  0
  -24.6387  -11.6893   20.8701 C   0  0  0  0  0  0
  -23.9052  -10.4285   21.0395 C   0  0  0  0  0  0
  -24.3607   -9.4203   21.9174 C   0  0  0  0  0  0
  -23.6284   -8.2244   22.0752 C   0  0  0  0  0  0
  -22.4266   -8.0277   21.3547 C   0  0  0  0  0  0
  -21.9901   -9.0247   20.4645 C   0  0  0  0  0  0
  -22.7224  -10.2126   20.3046 C   0  0  0  0  0  0
  -21.6850   -6.0738   22.5279 C   0  0  0  0  0  0
  -21.4009   -6.5644   23.8213 C   0  0  0  0  0  0
  -21.3656   -5.6799   24.9174 C   0  0  0  0  0  0
  -21.6049   -4.3059   24.7229 C   0  0  0  0  0  0
  -21.8818   -3.8154   23.4348 C   0  0  0  0  0  0
  -21.9189   -4.6965   22.3401 C   0  0  0  0  0  0
  -22.7884  -13.5235   21.1825 C   0  0  0  0  0  0
  -22.1658   -4.2153   21.0979 F   0  0  0  0  0  0
  -21.5630   -3.4542   25.7741 F   0  0  0  0  0  0
  -30.0465  -13.2012   20.4640 N   0  0  0  0  0  0
  -26.3047  -12.9277   20.3335 N   0  0  0  0  0  0
  -25.9296  -11.6450   20.5697 N   0  0  0  0  0  0
  -22.0522  -12.8227   22.0389 N   0  0  0  0  0  0
  -25.4383  -15.1859   20.4083 N   0  0  0  0  0  0
  -31.7271  -14.7126   20.1052 O   0  0  0  0  0  0
  -21.6635   -6.8877   21.4243 O   0  0  0  0  0  0
  -22.3566  -14.5536   20.6676 O   0  0  0  0  0  0
  -24.6057  -31.8679   23.2097 C   0  0  0  0  0  0
  -25.8977  -32.4818   23.8377 C   0  0  1  0  0  0
  -27.2753  -27.4990   20.1123 C   0  0  0  0  0  0
  -25.5876  -33.8610   24.2318 N   0  0  0  0  0  0
  -23.3893  -30.4841   21.5463 C   0  0  2  0  0  0
  -24.8442  -28.9514   20.1138 C   0  0  0  0  0  0
  -22.7361  -29.4613   22.5013 C   0  0  0  0  0  0
  -18.0238  -28.1365   22.8497 C   0  0  0  0  0  0
  -24.1502  -36.7322   23.2629 C   0  0  0  0  0  0
  -25.9019  -30.8634   21.3421 C   0  0  0  0  0  0
  -25.9898  -29.4965   20.7026 C   0  0  0  0  0  0
  -27.1972  -28.7843   20.7008 C   0  0  0  0  0  0
  -26.1116  -26.9540   19.5251 C   0  0  0  0  0  0
  -24.8964  -27.6746   19.5216 C   0  0  0  0  0  0
  -23.5966  -29.8025   20.1625 C   0  0  0  0  0  0
  -25.4109  -36.3095   24.0324 C   0  0  1  0  0  0
  -20.5811  -28.3622   23.1358 C   0  0  2  0  0  0
  -20.6732  -26.9369   22.5447 C   0  0  0  0  0  0
  -19.5725  -26.6371   21.5220 C   0  0  0  0  0  0
  -18.1891  -26.7914   22.1610 C   0  0  0  0  0  0
  -19.1484  -28.8813   23.2921 C   0  0  0  0  0  0
  -18.9416  -30.1420   23.8938 C   0  0  0  0  0  0
  -17.6434  -30.6603   24.0546 C   0  0  0  0  0  0
  -25.9032  -34.9462   23.5112 C   0  0  0  0  0  0
  -16.5327  -29.9103   23.6309 C   0  0  0  0  0  0
  -16.7230  -28.6500   23.0356 C   0  0  0  0  0  0
  -26.4451  -31.6558   25.0672 C   0  0  0  0  0  0
  -25.3772  -31.3620   26.1459 C   0  0  0  0  0  0
  -27.0235  -30.3011   24.5918 C   0  0  0  0  0  0
  -27.6024  -32.4264   25.7465 C   0  0  0  0  0  0
  -27.5586  -37.1812   24.8451 C   0  0  0  0  0  0
  -21.4097  -29.2993   22.3795 N   0  0  0  0  0  0
  -26.4282  -37.3783   23.9418 N   0  0  0  0  0  0
  -24.6496  -31.0851   22.0940 N   0  0  0  0  0  0
  -23.4193  -28.8144   23.3005 O   0  0  0  0  0  0
  -28.4384  -26.7535   20.0816 O   0  0  0  0  0  0
  -26.5588  -34.8910   22.4667 O   0  0  0  0  0  0
  -23.5287  -32.1365   23.7577 O   0  0  0  0  0  0
  -30.4963  -18.6892   21.8569 C   0  0  0  0  0  0
  -30.8937  -18.9334   23.1849 C   0  0  0  0  0  0
  -31.0143  -17.8538   24.0968 C   0  0  0  0  0  0
  -30.8641  -16.5222   23.6239 C   0  0  0  0  0  0
  -30.5092  -16.2927   22.2674 C   0  0  0  0  0  0
  -30.2507  -17.3781   21.3939 C   0  0  0  0  0  0
  -29.6451  -23.6520   23.2123 C   0  0  0  0  0  0
  -31.0196  -22.6121   21.4014 C   0  0  0  0  0  0
  -30.1230  -25.0418   22.7446 C   0  0  0  0  0  0
  -31.4501  -24.0117   20.9421 C   0  0  0  0  0  0
  -30.7054  -22.5840   22.9067 C   0  0  2  0  0  0
  -31.2859  -18.1412   25.5726 C   0  0  0  0  0  0
  -31.0786  -15.3429   24.5734 C   0  0  0  0  0  0
  -29.2623  -18.1816   19.3522 C   0  0  0  0  0  0
  -31.2553  -20.3677   23.5533 C   0  0  0  0  0  0
  -30.7713  -26.3547   20.7085 C   0  0  0  0  0  0
  -29.5889  -27.3276   20.7158 C   0  0  0  0  0  0
  -30.2728  -14.9669   21.8326 N   0  0  0  0  0  0
  -30.4241  -25.0317   21.2832 N   0  3  2  0  0  0
  -29.7484  -17.1005   20.1379 O   0  0  0  0  0  0
  -30.2147  -21.2921   23.2473 O   0  0  0  0  0  0
  -31.4661  -12.4470   19.0584 H   0  0  0  0  0  0
  -30.3626  -11.2636   19.6995 H   0  0  0  0  0  0
  -29.7138  -11.8587   17.3634 H   0  0  0  0  0  0
  -29.6435  -13.5510   17.7837 H   0  0  0  0  0  0
  -27.8156  -11.3276   18.7623 H   0  0  0  0  0  0
  -27.3506  -12.6919   17.7788 H   0  0  0  0  0  0
  -27.7422  -14.2509   19.6317 H   0  0  0  0  0  0
  -28.6654  -11.8178   21.2339 H   0  0  0  0  0  0
  -28.4239  -13.3924   21.9011 H   0  0  0  0  0  0
  -25.2749   -9.5691   22.4748 H   0  0  0  0  0  0
  -23.9995   -7.4646   22.7477 H   0  0  0  0  0  0
  -21.0830   -8.8762   19.8952 H   0  0  0  0  0  0
  -22.3677  -10.9666   19.6157 H   0  0  0  0  0  0
  -21.2000   -7.6152   23.9718 H   0  0  0  0  0  0
  -21.1485   -6.0528   25.9082 H   0  0  0  0  0  0
  -22.0602   -2.7614   23.2848 H   0  0  0  0  0  0
  -22.4131  -11.9882   22.4771 H   0  0  0  0  0  0
  -21.1140  -13.1271   22.2588 H   0  0  0  0  0  0
  -24.6762  -15.8452   20.5226 H   0  0  0  0  0  0
  -26.3045  -15.6262   20.1255 H   0  0  0  0  0  0
  -26.7069  -32.5553   23.1182 H   0  0  0  0  0  0
  -25.0118  -33.9784   25.0520 H   0  0  0  0  0  0
  -22.6707  -31.2933   21.4038 H   0  0  0  0  0  0
  -23.3757  -35.9665   23.3261 H   0  0  0  0  0  0
  -24.3650  -36.8974   22.2062 H   0  0  0  0  0  0
  -23.7256  -37.6509   23.6680 H   0  0  0  0  0  0
  -25.9935  -31.6262   20.5650 H   0  0  0  0  0  0
  -26.7963  -30.9355   21.9491 H   0  0  0  0  0  0
  -28.0525  -29.2607   21.1576 H   0  0  0  0  0  0
  -26.1521  -25.9716   19.0721 H   0  0  0  0  0  0
  -24.0157  -27.2458   19.0621 H   0  0  0  0  0  0
  -23.6823  -30.5698   19.3917 H   0  0  0  0  0  0
  -22.7306  -29.2001   19.8811 H   0  0  0  0  0  0
  -25.1279  -36.1955   25.0815 H   0  0  0  0  0  0
  -20.9891  -28.3196   24.1472 H   0  0  0  0  0  0
  -20.5659  -26.2231   23.3624 H   0  0  0  0  0  0
  -21.6601  -26.7452   22.1219 H   0  0  0  0  0  0
  -19.6914  -25.6285   21.1243 H   0  0  0  0  0  0
  -19.6677  -27.3188   20.6757 H   0  0  0  0  0  0
  -17.4157  -26.6642   21.4009 H   0  0  0  0  0  0
  -18.0275  -26.0062   22.9007 H   0  0  0  0  0  0
  -19.7891  -30.7171   24.2383 H   0  0  0  0  0  0
  -17.4989  -31.6290   24.5121 H   0  0  0  0  0  0
  -15.5324  -30.3018   23.7614 H   0  0  0  0  0  0
  -15.8614  -28.0840   22.7091 H   0  0  0  0  0  0
  -24.5944  -30.6955   25.7825 H   0  0  0  0  0  0
  -24.8987  -32.2767   26.4966 H   0  0  0  0  0  0
  -25.8197  -30.8771   27.0171 H   0  0  0  0  0  0
  -26.2698  -29.6847   24.1006 H   0  0  0  0  0  0
  -27.4067  -29.7159   25.4287 H   0  0  0  0  0  0
  -27.8520  -30.4344   23.8960 H   0  0  0  0  0  0
  -27.2603  -33.3530   26.2088 H   0  0  0  0  0  0
  -28.3843  -32.6875   25.0327 H   0  0  0  0  0  0
  -28.0669  -31.8352   26.5363 H   0  0  0  0  0  0
  -28.2541  -38.0174   24.7570 H   0  0  0  0  0  0
  -28.1138  -36.2699   24.6168 H   0  0  0  0  0  0
  -27.2324  -37.1339   25.8857 H   0  0  0  0  0  0
  -20.9274  -29.8745   21.7040 H   0  0  0  0  0  0
  -26.0155  -38.2843   24.1476 H   0  0  0  0  0  0
  -30.3809  -19.5431   21.2063 H   0  0  0  0  0  0
  -28.7078  -23.4057   22.7123 H   0  0  0  0  0  0
  -29.4247  -23.6676   24.2810 H   0  0  0  0  0  0
  -31.8029  -21.8963   21.1503 H   0  0  0  0  0  0
  -30.1371  -22.3069   20.8384 H   0  0  0  0  0  0
  -31.0093  -25.3449   23.3053 H   0  0  0  0  0  0
  -29.3513  -25.7729   22.9845 H   0  0  0  0  0  0
  -31.6154  -23.9957   19.8641 H   0  0  0  0  0  0
  -32.4032  -24.2833   21.3990 H   0  0  0  0  0  0
  -31.5978  -22.8166   23.4919 H   0  0  0  0  0  0
  -30.6055  -18.9163   25.9291 H   0  0  0  0  0  0
  -32.3103  -18.4857   25.7200 H   0  0  0  0  0  0
  -31.1191  -17.2875   26.2264 H   0  0  0  0  0  0
  -31.9761  -15.4891   25.1750 H   0  0  0  0  0  0
  -31.2171  -14.3895   24.0662 H   0  0  0  0  0  0
  -30.2249  -15.2442   25.2440 H   0  0  0  0  0  0
  -28.7127  -17.7880   18.4969 H   0  0  0  0  0  0
  -30.0837  -18.7871   18.9685 H   0  0  0  0  0  0
  -28.5741  -18.8178   19.9117 H   0  0  0  0  0  0
  -32.1523  -20.5883   22.9760 H   0  0  0  0  0  0
  -31.5458  -20.4947   24.5955 H   0  0  0  0  0  0
  -31.6130  -26.7933   21.2507 H   0  0  0  0  0  0
  -31.1003  -26.2297   19.6758 H   0  0  0  0  0  0
  -29.8810  -28.2395   20.1928 H   0  0  0  0  0  0
  -29.3670  -27.6083   21.7463 H   0  0  0  0  0  0
  -29.5901  -14.4487   22.3626 H   0  0  0  0  0  0
  -29.5704  -24.7596   20.8130 H   0  0  0  0  0  0
  1 25  1  0  0  0
  1 30  2  0  0  0
  1 88  1  0  0  0
  2  3  1  0  0  0
  2 25  1  0  0  0
  2 92  1  0  0  0
  2 93  1  0  0  0
  3  4  1  0  0  0
  3 94  1  0  0  0
  3 95  1  0  0  0
  4  5  1  0  0  0
  4 96  1  0  0  0
  4 97  1  0  0  0
  5  6  1  0  0  0
  5 26  1  0  0  0
  5 98  1  0  0  0
  6 25  1  0  0  0
  6 99  1  0  0  0
  6100  1  0  0  0
  7  8  2  0  0  0
  7 26  1  0  0  0
  7 29  1  0  0  0
  8  9  1  0  0  0
  8 22  1  0  0  0
  9 10  1  0  0  0
  9 27  2  0  0  0
 10 11  2  0  0  0
 10 15  1  0  0  0
 11 12  1  0  0  0
 11101  1  0  0  0
 12 13  2  0  0  0
 12102  1  0  0  0
 13 14  1  0  0  0
 13 31  1  0  0  0
 14 15  2  0  0  0
 14103  1  0  0  0
 15104  1  0  0  0
 16 17  2  0  0  0
 16 21  1  0  0  0
 16 31  1  0  0  0
 17 18  1  0  0  0
 17105  1  0  0  0
 18 19  2  0  0  0
 18106  1  0  0  0
 19 20  1  0  0  0
 19 24  1  0  0  0
 20 21  2  0  0  0
 20107  1  0  0  0
 21 23  1  0  0  0
 22 28  1  0  0  0
 22 32  2  0  0  0
 26 27  1  0  0  0
 28108  1  0  0  0
 28109  1  0  0  0
 29110  1  0  0  0
 29111  1  0  0  0
 33 34  1  0  0  0
 33 66  1  0  0  0
 33 70  2  0  0  0
 34 36  1  0  0  0
 34 59  1  0  0  0
 34112  1  0  0  0
 35 44  2  0  0  0
 35 45  1  0  0  0
 35 68  1  0  0  0
 36 56  1  0  0  0
 36113  1  0  0  0
 37 39  1  0  0  0
 37 47  1  0  0  0
 37 66  1  0  0  0
 37114  1  0  0  0
 38 43  2  0  0  0
 38 46  1  0  0  0
 38 47  1  0  0  0
 39 64  1  0  0  0
 39 67  2  0  0  0
 40 52  1  0  0  0
 40 53  2  0  0  0
 40 58  1  0  0  0
 41115  1  0  0  0
 41116  1  0  0  0
 41117  1  0  0  0
 41 48  1  0  0  0
 42 43  1  0  0  0
 42 66  1  0  0  0
 42118  1  0  0  0
 42119  1  0  0  0
 43 44  1  0  0  0
 44120  1  0  0  0
 45 46  2  0  0  0
 45121  1  0  0  0
 46122  1  0  0  0
 47123  1  0  0  0
 47124  1  0  0  0
 48 56  1  0  0  0
 48 65  1  0  0  0
 48125  1  0  0  0
 49 50  1  0  0  0
 49 53  1  0  0  0
 49 64  1  0  0  0
 49126  1  0  0  0
 50 51  1  0  0  0
 50127  1  0  0  0
 50128  1  0  0  0
 51 52  1  0  0  0
 51129  1  0  0  0
 51130  1  0  0  0
 52131  1  0  0  0
 52132  1  0  0  0
 53 54  1  0  0  0
 54 55  2  0  0  0
 54133  1  0  0  0
 55 57  1  0  0  0
 55134  1  0  0  0
 56 69  2  0  0  0
 57 58  2  0  0  0
 57135  1  0  0  0
 58136  1  0  0  0
 59 60  1  0  0  0
 59 61  1  0  0  0
 59 62  1  0  0  0
 60137  1  0  0  0
 60138  1  0  0  0
 60139  1  0  0  0
 61140  1  0  0  0
 61141  1  0  0  0
 61142  1  0  0  0
 62143  1  0  0  0
 62144  1  0  0  0
 62145  1  0  0  0
 63 65  1  0  0  0
 63146  1  0  0  0
 63147  1  0  0  0
 63148  1  0  0  0
 64149  1  0  0  0
 65150  1  0  0  0
 68 87  1  0  0  0
 71 72  2  0  0  0
 71 76  1  0  0  0
 71151  1  0  0  0
 72 73  1  0  0  0
 72 85  1  0  0  0
 73 74  2  0  0  0
 73 82  1  0  0  0
 74 75  1  0  0  0
 74 83  1  0  0  0
 75 76  2  0  0  0
 75 88  1  0  0  0
 76 90  1  0  0  0
 77 79  1  0  0  0
 77 81  1  0  0  0
 77152  1  0  0  0
 77153  1  0  0  0
 78 80  1  0  0  0
 78 81  1  0  0  0
 78154  1  0  0  0
 78155  1  0  0  0
 79 89  1  0  0  0
 79156  1  0  0  0
 79157  1  0  0  0
 80 89  1  0  0  0
 80158  1  0  0  0
 80159  1  0  0  0
 81 91  1  0  0  0
 81160  1  0  0  0
 82161  1  0  0  0
 82162  1  0  0  0
 82163  1  0  0  0
 83164  1  0  0  0
 83165  1  0  0  0
 83166  1  0  0  0
 84 90  1  0  0  0
 84167  1  0  0  0
 84168  1  0  0  0
 84169  1  0  0  0
 85 91  1  0  0  0
 85170  1  0  0  0
 85171  1  0  0  0
 86 87  1  0  0  0
 86172  1  0  0  0
 86173  1  0  0  0
 86 89  1  0  0  0
 87174  1  0  0  0
 87175  1  0  0  0
 88176  1  0  0  0
 89177  1  0  0  0
M  CHG  1  89   1
M  ISO  4   1 100  68 101  87 101  88 100
M  END
> <chiral flag>
0

> <version>
0

> <s_m_source_file>
/data/baiqing/PycharmProjects/Reinvent-master-3.2/result/LINK_invent/BTK/process_docking_weight1_custom_sum_contain_oxygen_bond_distance_aromatic_linkinvent_7_9_3/rearranged_h_0156.sdf

> <i_m_source_file_index>
69

> <r_mmod_Potential_Energy-OPLS-2005>
-144.221862792969

> <r_mmod_Stretch_Energy-OPLS-2005>
37.8169250488281

> <r_mmod_Bend_Energy-OPLS-2005>
107.229499816895

> <r_mmod_Torsional_Energy-OPLS-2005>
277.949493408203

> <r_mmod_Improper_Torsional_Energy-OPLS-2005>
3.21300959587097

> <r_mmod_Van_der_Waal_Energy-OPLS-2005>
185.776092529297

> <r_mmod_Electrostatic_Energy-OPLS-2005>
-336.971801757812

> <r_mmod_Solvation_Energy-OPLS-2005>
-427.279907226562

> <b_mmod_Minimization_Converged-OPLS-2005>
0

> <r_mmod_RMS_Derivative-OPLS-2005>
3.11988997459412

$$$$
69
                    3D
 Structure written by MMmdl.
161170  0  0  1  0            999 V2000
  -30.5459  -14.7298   20.4486 C   0  0  0  0  0  0
  -30.4272  -12.4336   19.4667 C   0  0  0  0  0  0
  -29.5047  -12.4984   18.2283 C   0  0  0  0  0  0
  -28.0256  -12.3247   18.6376 C   0  0  0  0  0  0
  -27.6343  -13.2128   19.8487 C   0  0  2  0  0  0
  -28.6690  -13.1106   20.9858 C   0  0  0  0  0  0
  -25.2479  -13.8163   20.5685 C   0  0  0  0  0  0
  -24.1756  -13.0413   20.9225 C   0  0  0  0  0  0
  -24.6338  -11.6901   20.8753 C   0  0  0  0  0  0
  -23.9024  -10.4279   21.0419 C   0  0  0  0  0  0
  -24.3595   -9.4195   21.9187 C   0  0  0  0  0  0
  -23.6290   -8.2222   22.0752 C   0  0  0  0  0  0
  -22.4267   -8.0267   21.3548 C   0  0  0  0  0  0
  -21.9884   -9.0236   20.4653 C   0  0  0  0  0  0
  -22.7210  -10.2124   20.3065 C   0  0  0  0  0  0
  -21.6844   -6.0720   22.5276 C   0  0  0  0  0  0
  -21.4015   -6.5638   23.8203 C   0  0  0  0  0  0
  -21.3666   -5.6805   24.9175 C   0  0  0  0  0  0
  -21.6043   -4.3059   24.7236 C   0  0  0  0  0  0
  -21.8825   -3.8145   23.4357 C   0  0  0  0  0  0
  -21.9190   -4.6953   22.3402 C   0  0  0  0  0  0
  -22.7795  -13.5230   21.1888 C   0  0  0  0  0  0
  -22.1660   -4.2144   21.0978 F   0  0  0  0  0  0
  -21.5627   -3.4531   25.7734 F   0  0  0  0  0  0
  -29.9691  -13.4818   20.4084 N   0  0  0  0  0  0
  -26.2862  -12.9320   20.3251 N   0  0  0  0  0  0
  -25.9242  -11.6475   20.5712 N   0  0  0  0  0  0
  -22.0443  -12.8203   22.0442 N   0  0  0  0  0  0
  -25.4172  -15.1878   20.4108 N   0  0  0  0  0  0
  -31.7372  -14.8674   20.1618 O   0  0  0  0  0  0
  -21.6635   -6.8861   21.4239 O   0  0  0  0  0  0
  -22.3467  -14.5518   20.6736 O   0  0  0  0  0  0
  -24.6306  -31.8548   23.1970 C   0  0  0  0  0  0
  -25.9140  -32.4745   23.8320 C   0  0  1  0  0  0
  -27.2260  -27.2633   20.1283 C   0  0  0  0  0  0
  -25.5948  -33.8546   24.2252 N   0  0  0  0  0  0
  -23.4276  -30.4759   21.5391 C   0  0  2  0  0  0
  -24.8729  -28.9155   20.1107 C   0  0  0  0  0  0
  -22.7504  -29.4599   22.4897 C   0  0  0  0  0  0
  -18.0294  -28.1395   22.8482 C   0  0  0  0  0  0
  -24.1498  -36.7277   23.2639 C   0  0  0  0  0  0
  -25.9714  -30.7669   21.3767 C   0  0  0  0  0  0
  -26.0428  -29.3899   20.7169 C   0  0  0  0  0  0
  -27.2168  -28.5753   20.7129 C   0  0  0  0  0  0
  -26.0308  -26.8437   19.5031 C   0  0  0  0  0  0
  -24.8722  -27.6519   19.4952 C   0  0  0  0  0  0
  -23.6459  -29.8071   20.1558 C   0  0  0  0  0  0
  -25.4125  -36.3064   24.0324 C   0  0  1  0  0  0
  -20.5901  -28.3709   23.1268 C   0  0  2  0  0  0
  -20.6789  -26.9426   22.5418 C   0  0  0  0  0  0
  -19.5769  -26.6386   21.5216 C   0  0  0  0  0  0
  -18.1940  -26.7942   22.1618 C   0  0  0  0  0  0
  -19.1552  -28.8862   23.2872 C   0  0  0  0  0  0
  -18.9470  -30.1459   23.8893 C   0  0  0  0  0  0
  -17.6471  -30.6590   24.0563 C   0  0  0  0  0  0
  -25.9049  -34.9437   23.5081 C   0  0  0  0  0  0
  -16.5361  -29.9087   23.6337 C   0  0  0  0  0  0
  -16.7277  -28.6511   23.0348 C   0  0  0  0  0  0
  -26.4516  -31.6578   25.0716 C   0  0  0  0  0  0
  -25.3738  -31.3740   26.1438 C   0  0  0  0  0  0
  -27.0372  -30.2995   24.6220 C   0  0  0  0  0  0
  -27.6065  -32.4338   25.7488 C   0  0  0  0  0  0
  -27.5590  -37.1792   24.8461 C   0  0  0  0  0  0
  -21.4216  -29.3051   22.3651 N   0  0  0  0  0  0
  -26.4297  -37.3773   23.9407 N   0  0  0  0  0  0
  -24.6953  -31.0514   22.0937 N   0  0  0  0  0  0
  -23.4198  -28.8156   23.3009 O   0  0  0  0  0  0
  -28.3610  -26.4262   20.2042 O   0  0  0  0  0  0
  -26.5633  -34.8919   22.4654 O   0  0  0  0  0  0
  -23.5461  -32.1373   23.7266 O   0  0  0  0  0  0
  -28.2975  -21.0962   20.2271 C   0  0  0  0  0  0
  -30.2626  -20.7103   21.1674 C   0  0  0  0  0  0
  -29.1489  -20.0289   20.5616 C   0  0  0  0  0  0
  -30.0598  -22.0759   21.1162 C   0  0  0  0  0  0
  -31.4950  -20.1316   21.8477 C   0  0  0  0  0  0
  -30.9931  -23.0955   21.6940 C   0  0  0  0  0  0
  -32.3339  -22.4428   22.1085 C   0  0  0  0  0  0
  -28.8886  -18.4506   20.3860 C   0  0  0  0  0  0
  -28.0835  -23.7367   20.6733 C   0  0  0  0  0  0
  -30.0340  -17.3242   20.6534 C   0  0  0  0  0  0
  -28.4419  -24.9980   19.7288 C   0  0  0  0  0  0
  -28.8043  -22.3744   20.6011 N   0  0  0  0  0  0
  -29.7117  -15.8274   20.6130 N   0  0  0  0  0  0
  -32.1115  -21.1268   22.7546 N   0  3  0  0  0  0
  -31.4679  -12.5768   19.1696 H   0  0  0  0  0  0
  -30.3757  -11.4446   19.9265 H   0  0  0  0  0  0
  -29.7825  -11.7346   17.5016 H   0  0  0  0  0  0
  -29.6323  -13.4577   17.7232 H   0  0  0  0  0  0
  -27.8701  -11.2729   18.8852 H   0  0  0  0  0  0
  -27.3707  -12.5320   17.7904 H   0  0  0  0  0  0
  -27.6387  -14.2399   19.4839 H   0  0  0  0  0  0
  -28.6948  -12.0986   21.3914 H   0  0  0  0  0  0
  -28.4009  -13.7578   21.8202 H   0  0  0  0  0  0
  -25.2746   -9.5672   22.4746 H   0  0  0  0  0  0
  -24.0007   -7.4608   22.7466 H   0  0  0  0  0  0
  -21.0810   -8.8760   19.8957 H   0  0  0  0  0  0
  -22.3658  -10.9668   19.6180 H   0  0  0  0  0  0
  -21.2010   -7.6145   23.9716 H   0  0  0  0  0  0
  -21.1486   -6.0521   25.9081 H   0  0  0  0  0  0
  -22.0592   -2.7610   23.2849 H   0  0  0  0  0  0
  -22.4089  -11.9892   22.4843 H   0  0  0  0  0  0
  -21.1069  -13.1237   22.2679 H   0  0  0  0  0  0
  -24.6436  -15.8332   20.5285 H   0  0  0  0  0  0
  -26.2511  -15.6342   20.0519 H   0  0  0  0  0  0
  -26.7202  -32.5392   23.1053 H   0  0  0  0  0  0
  -25.0122  -33.9692   25.0421 H   0  0  0  0  0  0
  -22.7244  -31.2976   21.3918 H   0  0  0  0  0  0
  -23.3766  -35.9602   23.3293 H   0  0  0  0  0  0
  -24.3589  -36.8909   22.2054 H   0  0  0  0  0  0
  -23.7241  -37.6471   23.6670 H   0  0  0  0  0  0
  -26.1163  -31.5304   20.6113 H   0  0  0  0  0  0
  -26.8465  -30.8099   22.0139 H   0  0  0  0  0  0
  -28.1152  -28.9342   21.1966 H   0  0  0  0  0  0
  -25.9643  -25.8700   19.0408 H   0  0  0  0  0  0
  -23.9735  -27.2812   19.0225 H   0  0  0  0  0  0
  -23.7776  -30.5838   19.4010 H   0  0  0  0  0  0
  -22.7630  -29.2451   19.8460 H   0  0  0  0  0  0
  -25.1306  -36.1910   25.0819 H   0  0  0  0  0  0
  -20.9988  -28.3296   24.1387 H   0  0  0  0  0  0
  -20.5692  -26.2319   23.3624 H   0  0  0  0  0  0
  -21.6655  -26.7452   22.1212 H   0  0  0  0  0  0
  -19.6933  -25.6289   21.1257 H   0  0  0  0  0  0
  -19.6714  -27.3188   20.6738 H   0  0  0  0  0  0
  -17.4221  -26.6694   21.4004 H   0  0  0  0  0  0
  -18.0328  -26.0075   22.9006 H   0  0  0  0  0  0
  -19.7938  -30.7278   24.2266 H   0  0  0  0  0  0
  -17.5017  -31.6268   24.5176 H   0  0  0  0  0  0
  -15.5359  -30.2985   23.7655 H   0  0  0  0  0  0
  -15.8683  -28.0822   22.7062 H   0  0  0  0  0  0
  -24.5902  -30.7104   25.7771 H   0  0  0  0  0  0
  -24.8937  -32.2906   26.4865 H   0  0  0  0  0  0
  -25.8045  -30.8915   27.0216 H   0  0  0  0  0  0
  -26.2957  -29.6728   24.1250 H   0  0  0  0  0  0
  -27.4053  -29.7287   25.4753 H   0  0  0  0  0  0
  -27.8837  -30.4276   23.9470 H   0  0  0  0  0  0
  -27.2668  -33.3646   26.2052 H   0  0  0  0  0  0
  -28.3872  -32.6895   25.0310 H   0  0  0  0  0  0
  -28.0741  -31.8477   26.5411 H   0  0  0  0  0  0
  -28.2587  -38.0113   24.7529 H   0  0  0  0  0  0
  -28.1106  -36.2636   24.6256 H   0  0  0  0  0  0
  -27.2310  -37.1406   25.8867 H   0  0  0  0  0  0
  -20.9400  -29.8756   21.6849 H   0  0  0  0  0  0
  -26.0170  -38.2842   24.1421 H   0  0  0  0  0  0
  -27.3035  -21.0522   19.7935 H   0  0  0  0  0  0
  -32.2127  -19.8061   21.0955 H   0  0  0  0  0  0
  -31.2328  -19.2694   22.4527 H   0  0  0  0  0  0
  -30.5323  -23.5679   22.5617 H   0  0  0  0  0  0
  -31.1914  -23.8903   20.9750 H   0  0  0  0  0  0
  -32.8843  -23.1035   22.7805 H   0  0  0  0  0  0
  -32.9701  -22.2905   21.2350 H   0  0  0  0  0  0
  -28.5278  -18.3143   19.3650 H   0  0  0  0  0  0
  -28.0264  -18.2172   21.0123 H   0  0  0  0  0  0
  -27.0119  -23.5475   20.5922 H   0  0  0  0  0  0
  -28.2205  -24.0787   21.6989 H   0  0  0  0  0  0
  -30.8542  -17.5111   19.9560 H   0  0  0  0  0  0
  -30.4362  -17.4848   21.6502 H   0  0  0  0  0  0
  -27.9124  -24.8929   18.7810 H   0  0  0  0  0  0
  -29.4885  -24.8758   19.4462 H   0  0  0  0  0  0
  -28.7399  -15.5953   20.7547 H   0  0  0  0  0  0
  -32.9812  -20.7600   23.1014 H   0  0  0  0  0  0
  -31.5001  -21.2559   23.5442 H   0  0  0  0  0  0
  1 25  1  0  0  0
  1 30  2  0  0  0
  1 83  1  0  0  0
  2  3  1  0  0  0
  2 25  1  0  0  0
  2 85  1  0  0  0
  2 86  1  0  0  0
  3  4  1  0  0  0
  3 87  1  0  0  0
  3 88  1  0  0  0
  4  5  1  0  0  0
  4 89  1  0  0  0
  4 90  1  0  0  0
  5  6  1  0  0  0
  5 26  1  0  0  0
  5 91  1  0  0  0
  6 25  1  0  0  0
  6 92  1  0  0  0
  6 93  1  0  0  0
  7  8  2  0  0  0
  7 26  1  0  0  0
  7 29  1  0  0  0
  8  9  1  0  0  0
  8 22  1  0  0  0
  9 10  1  0  0  0
  9 27  2  0  0  0
 10 11  2  0  0  0
 10 15  1  0  0  0
 11 12  1  0  0  0
 11 94  1  0  0  0
 12 13  2  0  0  0
 12 95  1  0  0  0
 13 14  1  0  0  0
 13 31  1  0  0  0
 14 15  2  0  0  0
 14 96  1  0  0  0
 15 97  1  0  0  0
 16 17  2  0  0  0
 16 21  1  0  0  0
 16 31  1  0  0  0
 17 18  1  0  0  0
 17 98  1  0  0  0
 18 19  2  0  0  0
 18 99  1  0  0  0
 19 20  1  0  0  0
 19 24  1  0  0  0
 20 21  2  0  0  0
 20100  1  0  0  0
 21 23  1  0  0  0
 22 28  1  0  0  0
 22 32  2  0  0  0
 26 27  1  0  0  0
 28101  1  0  0  0
 28102  1  0  0  0
 29103  1  0  0  0
 29104  1  0  0  0
 33 34  1  0  0  0
 33 66  1  0  0  0
 33 70  2  0  0  0
 34 36  1  0  0  0
 34 59  1  0  0  0
 34105  1  0  0  0
 35 44  2  0  0  0
 35 45  1  0  0  0
 35 68  1  0  0  0
 36 56  1  0  0  0
 36106  1  0  0  0
 37 39  1  0  0  0
 37 47  1  0  0  0
 37 66  1  0  0  0
 37107  1  0  0  0
 38 43  2  0  0  0
 38 46  1  0  0  0
 38 47  1  0  0  0
 39 64  1  0  0  0
 39 67  2  0  0  0
 40 52  1  0  0  0
 40 53  2  0  0  0
 40 58  1  0  0  0
 41108  1  0  0  0
 41109  1  0  0  0
 41110  1  0  0  0
 41 48  1  0  0  0
 42 43  1  0  0  0
 42 66  1  0  0  0
 42111  1  0  0  0
 42112  1  0  0  0
 43 44  1  0  0  0
 44113  1  0  0  0
 45 46  2  0  0  0
 45114  1  0  0  0
 46115  1  0  0  0
 47116  1  0  0  0
 47117  1  0  0  0
 48 56  1  0  0  0
 48 65  1  0  0  0
 48118  1  0  0  0
 49 50  1  0  0  0
 49 53  1  0  0  0
 49 64  1  0  0  0
 49119  1  0  0  0
 50 51  1  0  0  0
 50120  1  0  0  0
 50121  1  0  0  0
 51 52  1  0  0  0
 51122  1  0  0  0
 51123  1  0  0  0
 52124  1  0  0  0
 52125  1  0  0  0
 53 54  1  0  0  0
 54 55  2  0  0  0
 54126  1  0  0  0
 55 57  1  0  0  0
 55127  1  0  0  0
 56 69  2  0  0  0
 57 58  2  0  0  0
 57128  1  0  0  0
 58129  1  0  0  0
 59 60  1  0  0  0
 59 61  1  0  0  0
 59 62  1  0  0  0
 60130  1  0  0  0
 60131  1  0  0  0
 60132  1  0  0  0
 61133  1  0  0  0
 61134  1  0  0  0
 61135  1  0  0  0
 62136  1  0  0  0
 62137  1  0  0  0
 62138  1  0  0  0
 63 65  1  0  0  0
 63139  1  0  0  0
 63140  1  0  0  0
 63141  1  0  0  0
 64142  1  0  0  0
 65143  1  0  0  0
 68 81  1  0  0  0
 71 73  2  0  0  0
 71 82  1  0  0  0
 71144  1  0  0  0
 72 73  1  0  0  0
 72 74  2  0  0  0
 72 75  1  0  0  0
 73 78  1  0  0  0
 74 76  1  0  0  0
 74 82  1  0  0  0
 75 84  1  0  0  0
 75145  1  0  0  0
 75146  1  0  0  0
 76 77  1  0  0  0
 76147  1  0  0  0
 76148  1  0  0  0
 77 84  1  0  0  0
 77149  1  0  0  0
 77150  1  0  0  0
 78 80  1  0  0  0
 78151  1  0  0  0
 78152  1  0  0  0
 79 81  1  0  0  0
 79 82  1  0  0  0
 79153  1  0  0  0
 79154  1  0  0  0
 80 83  1  0  0  0
 80155  1  0  0  0
 80156  1  0  0  0
 81157  1  0  0  0
 81158  1  0  0  0
 83159  1  0  0  0
 84160  1  0  0  0
 84161  1  0  0  0
M  CHG  1  84   1
M  ISO  4   1 100  68 101  81 101  83 100
M  END
> <chiral flag>
0

> <version>
0

> <s_m_source_file>
/data/baiqing/PycharmProjects/Reinvent-master-3.2/result/LINK_invent/BTK/process_docking_weight1_custom_sum_contain_oxygen_bond_distance_aromatic_linkinvent_7_9_3/rearranged_h_0156.sdf

> <i_m_source_file_index>
70

> <r_mmod_Potential_Energy-OPLS-2005>
-41.8712882995605

> <r_mmod_Stretch_Energy-OPLS-2005>
125.881393432617

> <r_mmod_Bend_Energy-OPLS-2005>
198.227813720703

> <r_mmod_Torsional_Energy-OPLS-2005>
234.397445678711

> <r_mmod_Improper_Torsional_Energy-OPLS-2005>
6.9184193611145

> <r_mmod_Van_der_Waal_Energy-OPLS-2005>
119.316207885742

> <r_mmod_Electrostatic_Energy-OPLS-2005>
-332.770446777344

> <r_mmod_Solvation_Energy-OPLS-2005>
-474.093475341797

> <b_mmod_Minimization_Converged-OPLS-2005>
0

> <r_mmod_RMS_Derivative-OPLS-2005>
5.36046743392944

$$$$
70
                    3D
 Structure written by MMmdl.
160169  0  0  1  0            999 V2000
  -30.6891  -14.6267   20.5046 C   0  0  0  0  0  0
  -30.4155  -12.3923   19.4550 C   0  0  0  0  0  0
  -29.4962  -12.4994   18.2217 C   0  0  0  0  0  0
  -28.0217  -12.3431   18.6379 C   0  0  0  0  0  0
  -27.6444  -13.2300   19.8553 C   0  0  2  0  0  0
  -28.6905  -13.1325   20.9871 C   0  0  0  0  0  0
  -25.2517  -13.8199   20.5703 C   0  0  0  0  0  0
  -24.1804  -13.0444   20.9204 C   0  0  0  0  0  0
  -24.6394  -11.6920   20.8749 C   0  0  0  0  0  0
  -23.9073  -10.4295   21.0405 C   0  0  0  0  0  0
  -24.3625   -9.4210   21.9183 C   0  0  0  0  0  0
  -23.6298   -8.2245   22.0753 C   0  0  0  0  0  0
  -22.4279   -8.0282   21.3544 C   0  0  0  0  0  0
  -21.9916   -9.0255   20.4646 C   0  0  0  0  0  0
  -22.7245  -10.2135   20.3057 C   0  0  0  0  0  0
  -21.6857   -6.0736   22.5277 C   0  0  0  0  0  0
  -21.4016   -6.5641   23.8210 C   0  0  0  0  0  0
  -21.3661   -5.6793   24.9173 C   0  0  0  0  0  0
  -21.6043   -4.3057   24.7224 C   0  0  0  0  0  0
  -21.8819   -3.8149   23.4347 C   0  0  0  0  0  0
  -21.9193   -4.6963   22.3400 C   0  0  0  0  0  0
  -22.7827  -13.5226   21.1862 C   0  0  0  0  0  0
  -22.1661   -4.2150   21.0979 F   0  0  0  0  0  0
  -21.5628   -3.4540   25.7736 F   0  0  0  0  0  0
  -30.0008  -13.4464   20.4046 N   0  0  0  0  0  0
  -26.2951  -12.9409   20.3319 N   0  0  0  0  0  0
  -25.9327  -11.6547   20.5776 N   0  0  0  0  0  0
  -22.0473  -12.8211   22.0417 N   0  0  0  0  0  0
  -25.4200  -15.1920   20.4114 N   0  0  0  0  0  0
  -31.8674  -14.6909   20.1491 O   0  0  0  0  0  0
  -21.6642   -6.8878   21.4239 O   0  0  0  0  0  0
  -22.3510  -14.5535   20.6715 O   0  0  0  0  0  0
  -24.6276  -31.8610   23.2053 C   0  0  0  0  0  0
  -25.9126  -32.4781   23.8373 C   0  0  1  0  0  0
  -27.2097  -27.3113   20.1088 C   0  0  0  0  0  0
  -25.5944  -33.8582   24.2298 N   0  0  0  0  0  0
  -23.4195  -30.4885   21.5493 C   0  0  2  0  0  0
  -24.8621  -28.9521   20.1086 C   0  0  0  0  0  0
  -22.7478  -29.4634   22.4943 C   0  0  0  0  0  0
  -18.0284  -28.1381   22.8481 C   0  0  0  0  0  0
  -24.1493  -36.7292   23.2637 C   0  0  0  0  0  0
  -25.9637  -30.7890   21.3792 C   0  0  0  0  0  0
  -26.0346  -29.4192   20.7155 C   0  0  0  0  0  0
  -27.2119  -28.6107   20.7072 C   0  0  0  0  0  0
  -26.0122  -26.9126   19.4673 C   0  0  0  0  0  0
  -24.8534  -27.7039   19.4757 C   0  0  0  0  0  0
  -23.6323  -29.8326   20.1619 C   0  0  0  0  0  0
  -25.4115  -36.3082   24.0332 C   0  0  1  0  0  0
  -20.5886  -28.3687   23.1278 C   0  0  2  0  0  0
  -20.6777  -26.9412   22.5402 C   0  0  0  0  0  0
  -19.5752  -26.6381   21.5206 C   0  0  0  0  0  0
  -18.1932  -26.7926   22.1618 C   0  0  0  0  0  0
  -19.1537  -28.8851   23.2875 C   0  0  0  0  0  0
  -18.9461  -30.1454   23.8894 C   0  0  0  0  0  0
  -17.6460  -30.6586   24.0558 C   0  0  0  0  0  0
  -25.9055  -34.9452   23.5111 C   0  0  0  0  0  0
  -16.5350  -29.9081   23.6331 C   0  0  0  0  0  0
  -16.7271  -28.6497   23.0353 C   0  0  0  0  0  0
  -26.4502  -31.6584   25.0741 C   0  0  0  0  0  0
  -25.3734  -31.3720   26.1466 C   0  0  0  0  0  0
  -27.0343  -30.3006   24.6200 C   0  0  0  0  0  0
  -27.6065  -32.4314   25.7509 C   0  0  0  0  0  0
  -27.5584  -37.1800   24.8462 C   0  0  0  0  0  0
  -21.4190  -29.3049   22.3682 N   0  0  0  0  0  0
  -26.4292  -37.3778   23.9409 N   0  0  0  0  0  0
  -24.6892  -31.0623   22.1009 N   0  0  0  0  0  0
  -23.4202  -28.8162   23.3013 O   0  0  0  0  0  0
  -28.3102  -26.4345   20.1764 O   0  0  0  0  0  0
  -26.5612  -34.8916   22.4670 O   0  0  0  0  0  0
  -23.5439  -32.1413   23.7378 O   0  0  0  0  0  0
  -30.4187  -20.9169   20.4943 C   0  0  0  0  0  0
  -30.9381  -19.6116   20.6866 C   0  0  0  0  0  0
  -29.0244  -21.1111   20.3993 C   0  0  0  0  0  0
  -30.0853  -18.4859   20.7825 C   0  0  0  0  0  0
  -28.2373  -19.9223   20.5021 C   0  0  0  0  0  0
  -28.3293  -22.9191   18.6352 C   0  0  0  0  0  0
  -28.2001  -24.4654   18.5702 C   0  0  0  0  0  0
  -28.8758  -23.8664   20.7822 C   0  0  0  0  0  0
  -28.3771  -22.5239   20.1225 C   0  0  2  0  0  0
  -28.0591  -24.9754   20.0192 C   0  0  1  0  0  0
  -26.0656  -18.8722   20.5205 C   0  0  0  0  0  0
  -30.7076  -17.0844   21.1051 C   0  0  0  0  0  0
  -28.7451  -18.6592   20.6918 N   0  0  0  0  0  0
  -30.0222  -15.7720   20.8484 N   0  0  0  0  0  0
  -26.8674  -20.0429   20.3954 O   0  0  0  0  0  0
  -31.4599  -12.4827   19.1522 H   0  0  0  0  0  0
  -30.3263  -11.4089   19.9192 H   0  0  0  0  0  0
  -29.7592  -11.7381   17.4860 H   0  0  0  0  0  0
  -29.6414  -13.4638   17.7323 H   0  0  0  0  0  0
  -27.8606  -11.2924   18.8816 H   0  0  0  0  0  0
  -27.3654  -12.5620   17.7948 H   0  0  0  0  0  0
  -27.6504  -14.2590   19.4949 H   0  0  0  0  0  0
  -28.6999  -12.1319   21.4218 H   0  0  0  0  0  0
  -28.4436  -13.8162   21.8009 H   0  0  0  0  0  0
  -25.2767   -9.5688   22.4759 H   0  0  0  0  0  0
  -24.0008   -7.4637   22.7475 H   0  0  0  0  0  0
  -21.0847   -8.8775   19.8949 H   0  0  0  0  0  0
  -22.3703  -10.9675   19.6169 H   0  0  0  0  0  0
  -21.2010   -7.6146   23.9717 H   0  0  0  0  0  0
  -21.1483   -6.0521   25.9075 H   0  0  0  0  0  0
  -22.0598   -2.7610   23.2847 H   0  0  0  0  0  0
  -22.4095  -11.9873   22.4796 H   0  0  0  0  0  0
  -21.1092  -13.1229   22.2628 H   0  0  0  0  0  0
  -24.6477  -15.8407   20.5145 H   0  0  0  0  0  0
  -26.2698  -15.6305   20.0810 H   0  0  0  0  0  0
  -26.7189  -32.5442   23.1115 H   0  0  0  0  0  0
  -25.0106  -33.9729   25.0452 H   0  0  0  0  0  0
  -22.7130  -31.3096   21.4112 H   0  0  0  0  0  0
  -23.3760  -35.9618   23.3285 H   0  0  0  0  0  0
  -24.3589  -36.8920   22.2052 H   0  0  0  0  0  0
  -23.7237  -37.6488   23.6664 H   0  0  0  0  0  0
  -26.1007  -31.5552   20.6150 H   0  0  0  0  0  0
  -26.8425  -30.8306   22.0110 H   0  0  0  0  0  0
  -28.1084  -28.9624   21.1983 H   0  0  0  0  0  0
  -25.9228  -25.9657   18.9620 H   0  0  0  0  0  0
  -23.9559  -27.3413   18.9935 H   0  0  0  0  0  0
  -23.7520  -30.6137   19.4102 H   0  0  0  0  0  0
  -22.7512  -29.2648   19.8572 H   0  0  0  0  0  0
  -25.1295  -36.1934   25.0826 H   0  0  0  0  0  0
  -20.9971  -28.3259   24.1401 H   0  0  0  0  0  0
  -20.5677  -26.2299   23.3601 H   0  0  0  0  0  0
  -21.6645  -26.7444   22.1194 H   0  0  0  0  0  0
  -19.6914  -25.6290   21.1240 H   0  0  0  0  0  0
  -19.6692  -27.3186   20.6733 H   0  0  0  0  0  0
  -17.4201  -26.6669   21.4022 H   0  0  0  0  0  0
  -18.0334  -26.0067   22.9014 H   0  0  0  0  0  0
  -19.7938  -30.7268   24.2265 H   0  0  0  0  0  0
  -17.5016  -31.6270   24.5151 H   0  0  0  0  0  0
  -15.5352  -30.2980   23.7663 H   0  0  0  0  0  0
  -15.8670  -28.0814   22.7075 H   0  0  0  0  0  0
  -24.5917  -30.7058   25.7795 H   0  0  0  0  0  0
  -24.8921  -32.2884   26.4892 H   0  0  0  0  0  0
  -25.8062  -30.8899   27.0242 H   0  0  0  0  0  0
  -26.2919  -29.6757   24.1220 H   0  0  0  0  0  0
  -27.4030  -29.7259   25.4706 H   0  0  0  0  0  0
  -27.8796  -30.4285   23.9434 H   0  0  0  0  0  0
  -27.2684  -33.3618   26.2083 H   0  0  0  0  0  0
  -28.3880  -32.6862   25.0337 H   0  0  0  0  0  0
  -28.0729  -31.8439   26.5427 H   0  0  0  0  0  0
  -28.2589  -38.0110   24.7527 H   0  0  0  0  0  0
  -28.1096  -36.2644   24.6267 H   0  0  0  0  0  0
  -27.2306  -37.1415   25.8865 H   0  0  0  0  0  0
  -20.9367  -29.8787   21.6906 H   0  0  0  0  0  0
  -26.0175  -38.2853   24.1416 H   0  0  0  0  0  0
  -31.0912  -21.7589   20.4149 H   0  0  0  0  0  0
  -32.0086  -19.4812   20.7747 H   0  0  0  0  0  0
  -29.2504  -22.6215   18.1321 H   0  0  0  0  0  0
  -27.5084  -22.4161   18.1215 H   0  0  0  0  0  0
  -27.3736  -24.7657   17.9286 H   0  0  0  0  0  0
  -29.1045  -24.8845   18.1272 H   0  0  0  0  0  0
  -29.9451  -24.0079   20.6220 H   0  0  0  0  0  0
  -28.6914  -23.8891   21.8567 H   0  0  0  0  0  0
  -27.3410  -22.4332   20.4520 H   0  0  0  0  0  0
  -27.0419  -24.7792   20.3602 H   0  0  0  0  0  0
  -25.0147  -19.1420   20.4207 H   0  0  0  0  0  0
  -26.1931  -18.4019   21.4966 H   0  0  0  0  0  0
  -26.2951  -18.1457   19.7400 H   0  0  0  0  0  0
  -30.9514  -17.0978   22.1677 H   0  0  0  0  0  0
  -31.6741  -17.0840   20.5996 H   0  0  0  0  0  0
  -29.0337  -15.7273   21.0402 H   0  0  0  0  0  0
  1 25  1  0  0  0
  1 30  2  0  0  0
  1 84  1  0  0  0
  2  3  1  0  0  0
  2 25  1  0  0  0
  2 86  1  0  0  0
  2 87  1  0  0  0
  3  4  1  0  0  0
  3 88  1  0  0  0
  3 89  1  0  0  0
  4  5  1  0  0  0
  4 90  1  0  0  0
  4 91  1  0  0  0
  5  6  1  0  0  0
  5 26  1  0  0  0
  5 92  1  0  0  0
  6 25  1  0  0  0
  6 93  1  0  0  0
  6 94  1  0  0  0
  7  8  2  0  0  0
  7 26  1  0  0  0
  7 29  1  0  0  0
  8  9  1  0  0  0
  8 22  1  0  0  0
  9 10  1  0  0  0
  9 27  2  0  0  0
 10 11  2  0  0  0
 10 15  1  0  0  0
 11 12  1  0  0  0
 11 95  1  0  0  0
 12 13  2  0  0  0
 12 96  1  0  0  0
 13 14  1  0  0  0
 13 31  1  0  0  0
 14 15  2  0  0  0
 14 97  1  0  0  0
 15 98  1  0  0  0
 16 17  2  0  0  0
 16 21  1  0  0  0
 16 31  1  0  0  0
 17 18  1  0  0  0
 17 99  1  0  0  0
 18 19  2  0  0  0
 18100  1  0  0  0
 19 20  1  0  0  0
 19 24  1  0  0  0
 20 21  2  0  0  0
 20101  1  0  0  0
 21 23  1  0  0  0
 22 28  1  0  0  0
 22 32  2  0  0  0
 26 27  1  0  0  0
 28102  1  0  0  0
 28103  1  0  0  0
 29104  1  0  0  0
 29105  1  0  0  0
 33 34  1  0  0  0
 33 66  1  0  0  0
 33 70  2  0  0  0
 34 36  1  0  0  0
 34 59  1  0  0  0
 34106  1  0  0  0
 35 44  2  0  0  0
 35 45  1  0  0  0
 35 68  1  0  0  0
 36 56  1  0  0  0
 36107  1  0  0  0
 37 39  1  0  0  0
 37 47  1  0  0  0
 37 66  1  0  0  0
 37108  1  0  0  0
 38 43  2  0  0  0
 38 46  1  0  0  0
 38 47  1  0  0  0
 39 64  1  0  0  0
 39 67  2  0  0  0
 40 52  1  0  0  0
 40 53  2  0  0  0
 40 58  1  0  0  0
 41109  1  0  0  0
 41110  1  0  0  0
 41111  1  0  0  0
 41 48  1  0  0  0
 42 43  1  0  0  0
 42 66  1  0  0  0
 42112  1  0  0  0
 42113  1  0  0  0
 43 44  1  0  0  0
 44114  1  0  0  0
 45 46  2  0  0  0
 45115  1  0  0  0
 46116  1  0  0  0
 47117  1  0  0  0
 47118  1  0  0  0
 48 56  1  0  0  0
 48 65  1  0  0  0
 48119  1  0  0  0
 49 50  1  0  0  0
 49 53  1  0  0  0
 49 64  1  0  0  0
 49120  1  0  0  0
 50 51  1  0  0  0
 50121  1  0  0  0
 50122  1  0  0  0
 51 52  1  0  0  0
 51123  1  0  0  0
 51124  1  0  0  0
 52125  1  0  0  0
 52126  1  0  0  0
 53 54  1  0  0  0
 54 55  2  0  0  0
 54127  1  0  0  0
 55 57  1  0  0  0
 55128  1  0  0  0
 56 69  2  0  0  0
 57 58  2  0  0  0
 57129  1  0  0  0
 58130  1  0  0  0
 59 60  1  0  0  0
 59 61  1  0  0  0
 59 62  1  0  0  0
 60131  1  0  0  0
 60132  1  0  0  0
 60133  1  0  0  0
 61134  1  0  0  0
 61135  1  0  0  0
 61136  1  0  0  0
 62137  1  0  0  0
 62138  1  0  0  0
 62139  1  0  0  0
 63 65  1  0  0  0
 63140  1  0  0  0
 63141  1  0  0  0
 63142  1  0  0  0
 64143  1  0  0  0
 65144  1  0  0  0
 68 80  1  0  0  0
 71 72  2  0  0  0
 71 73  1  0  0  0
 71145  1  0  0  0
 72 74  1  0  0  0
 72146  1  0  0  0
 73 75  2  0  0  0
 73 79  1  0  0  0
 74 82  1  0  0  0
 74 83  2  0  0  0
 75 83  1  0  0  0
 75 85  1  0  0  0
 76 77  1  0  0  0
 76 79  1  0  0  0
 76147  1  0  0  0
 76148  1  0  0  0
 77 80  1  0  0  0
 77149  1  0  0  0
 77150  1  0  0  0
 78 79  1  0  0  0
 78 80  1  0  0  0
 78151  1  0  0  0
 78152  1  0  0  0
 79153  1  0  0  0
 80154  1  0  0  0
 81 85  1  0  0  0
 81155  1  0  0  0
 81156  1  0  0  0
 81157  1  0  0  0
 82 84  1  0  0  0
 82158  1  0  0  0
 82159  1  0  0  0
 84160  1  0  0  0
M  ISO  4   1 100  68 101  80 101  84 100
M  END
> <chiral flag>
0

> <version>
0

> <s_m_source_file>
/data/baiqing/PycharmProjects/Reinvent-master-3.2/result/LINK_invent/BTK/process_docking_weight1_custom_sum_contain_oxygen_bond_distance_aromatic_linkinvent_7_9_3/rearranged_h_0156.sdf

> <i_m_source_file_index>
71

> <r_mmod_Potential_Energy-OPLS-2005>
-168.600280761719

> <r_mmod_Stretch_Energy-OPLS-2005>
75.8603591918945

> <r_mmod_Bend_Energy-OPLS-2005>
193.726516723633

> <r_mmod_Torsional_Energy-OPLS-2005>
226.197662353516

> <r_mmod_Improper_Torsional_Energy-OPLS-2005>
3.72931742668152

> <r_mmod_Van_der_Waal_Energy-OPLS-2005>
159.321838378906

> <r_mmod_Electrostatic_Energy-OPLS-2005>
-671.784912109375

> <r_mmod_Solvation_Energy-OPLS-2005>
-209.069793701172

> <b_mmod_Minimization_Converged-OPLS-2005>
0

> <r_mmod_RMS_Derivative-OPLS-2005>
0.492899268865585

$$$$
71
                    3D
 Structure written by MMmdl.
166175  0  0  1  0            999 V2000
  -30.5310  -14.9234   20.4150 C   0  0  0  0  0  0
  -30.4408  -12.5662   19.4947 C   0  0  0  0  0  0
  -29.5216  -12.5255   18.2517 C   0  0  0  0  0  0
  -28.0516  -12.3218   18.6651 C   0  0  0  0  0  0
  -27.6315  -13.2444   19.8399 C   0  0  2  0  0  0
  -28.6751  -13.2504   20.9774 C   0  0  0  0  0  0
  -25.2476  -13.8218   20.5710 C   0  0  0  0  0  0
  -24.1787  -13.0445   20.9231 C   0  0  0  0  0  0
  -24.6393  -11.6923   20.8748 C   0  0  0  0  0  0
  -23.9076  -10.4293   21.0401 C   0  0  0  0  0  0
  -24.3630   -9.4210   21.9176 C   0  0  0  0  0  0
  -23.6306   -8.2243   22.0746 C   0  0  0  0  0  0
  -22.4283   -8.0279   21.3546 C   0  0  0  0  0  0
  -21.9919   -9.0250   20.4645 C   0  0  0  0  0  0
  -22.7246  -10.2131   20.3052 C   0  0  0  0  0  0
  -21.6859   -6.0732   22.5274 C   0  0  0  0  0  0
  -21.4017   -6.5635   23.8207 C   0  0  0  0  0  0
  -21.3666   -5.6788   24.9172 C   0  0  0  0  0  0
  -21.6047   -4.3049   24.7223 C   0  0  0  0  0  0
  -21.8822   -3.8143   23.4342 C   0  0  0  0  0  0
  -21.9197   -4.6959   22.3397 C   0  0  0  0  0  0
  -22.7808  -13.5217   21.1884 C   0  0  0  0  0  0
  -22.1662   -4.2144   21.0977 F   0  0  0  0  0  0
  -21.5637   -3.4534   25.7737 F   0  0  0  0  0  0
  -29.9527  -13.6583   20.3814 N   0  0  0  0  0  0
  -26.2893  -12.9436   20.3244 N   0  0  0  0  0  0
  -25.9330  -11.6570   20.5744 N   0  0  0  0  0  0
  -22.0452  -12.8205   22.0435 N   0  0  0  0  0  0
  -25.4146  -15.1949   20.4122 N   0  0  0  0  0  0
  -31.7330  -15.0100   20.1411 O   0  0  0  0  0  0
  -21.6649   -6.8875   21.4237 O   0  0  0  0  0  0
  -22.3478  -14.5510   20.6709 O   0  0  0  0  0  0
  -24.6414  -31.8449   23.1872 C   0  0  0  0  0  0
  -25.9194  -32.4697   23.8260 C   0  0  1  0  0  0
  -27.2221  -27.1489   20.1568 C   0  0  0  0  0  0
  -25.5946  -33.8504   24.2188 N   0  0  0  0  0  0
  -23.4438  -30.4622   21.5331 C   0  0  2  0  0  0
  -24.8921  -28.8796   20.1162 C   0  0  0  0  0  0
  -22.7547  -29.4558   22.4880 C   0  0  0  0  0  0
  -18.0301  -28.1393   22.8484 C   0  0  0  0  0  0
  -24.1486  -36.7253   23.2641 C   0  0  0  0  0  0
  -25.9966  -30.7230   21.3802 C   0  0  0  0  0  0
  -26.0678  -29.3326   20.7268 C   0  0  0  0  0  0
  -27.2342  -28.4848   20.7228 C   0  0  0  0  0  0
  -26.0189  -26.7802   19.5229 C   0  0  0  0  0  0
  -24.8785  -27.6164   19.5001 C   0  0  0  0  0  0
  -23.6692  -29.7832   20.1546 C   0  0  0  0  0  0
  -25.4120  -36.3036   24.0316 C   0  0  1  0  0  0
  -20.5912  -28.3712   23.1250 C   0  0  2  0  0  0
  -20.6789  -26.9419   22.5416 C   0  0  0  0  0  0
  -19.5766  -26.6382   21.5222 C   0  0  0  0  0  0
  -18.1943  -26.7933   22.1628 C   0  0  0  0  0  0
  -19.1557  -28.8871   23.2860 C   0  0  0  0  0  0
  -18.9474  -30.1470   23.8882 C   0  0  0  0  0  0
  -17.6474  -30.6595   24.0562 C   0  0  0  0  0  0
  -25.9072  -34.9409   23.5064 C   0  0  0  0  0  0
  -16.5364  -29.9090   23.6336 C   0  0  0  0  0  0
  -16.7285  -28.6507   23.0356 C   0  0  0  0  0  0
  -26.4526  -31.6560   25.0698 C   0  0  0  0  0  0
  -25.3723  -31.3738   26.1404 C   0  0  0  0  0  0
  -27.0383  -30.2956   24.6263 C   0  0  0  0  0  0
  -27.6056  -32.4316   25.7492 C   0  0  0  0  0  0
  -27.5578  -37.1785   24.8466 C   0  0  0  0  0  0
  -21.4243  -29.3042   22.3627 N   0  0  0  0  0  0
  -26.4281  -37.3753   23.9412 N   0  0  0  0  0  0
  -24.7139  -31.0318   22.0890 N   0  0  0  0  0  0
  -23.4196  -28.8117   23.3032 O   0  0  0  0  0  0
  -28.3209  -26.2255   20.1843 O   0  0  0  0  0  0
  -26.5670  -34.8907   22.4652 O   0  0  0  0  0  0
  -23.5539  -32.1313   23.7113 O   0  0  0  0  0  0
  -31.3347  -21.9932   20.0618 C   0  0  0  0  0  0
  -32.0635  -24.2172   20.5478 C   0  0  0  0  0  0
  -32.3670  -22.9239   20.1544 C   0  0  0  0  0  0
  -29.6125  -23.7612   20.4215 C   0  0  0  0  0  0
  -29.9488  -22.2732   20.2603 C   0  0  0  0  0  0
  -30.7265  -24.6176   20.7430 C   0  0  0  0  0  0
  -29.1607  -18.4409   19.2963 C   0  0  0  0  0  0
  -29.4552  -18.5554   21.6197 C   0  0  0  0  0  0
  -29.3733  -20.0418   19.1501 C   0  0  0  0  0  0
  -29.6949  -20.1505   21.5392 C   0  0  0  0  0  0
  -29.9423  -17.6448   20.4235 C   0  0  0  0  0  0
  -33.8111  -22.5141   19.9317 C   0  0  0  0  0  0
  -31.5316  -26.5910   21.9179 C   0  0  0  0  0  0
  -28.2402  -24.6648   20.2913 C   0  0  0  0  0  0
  -29.2327  -20.9638   20.3458 N   0  0  0  0  0  0
  -29.7174  -16.0794   20.5476 N   0  0  0  0  0  0
  -30.4854  -25.8715   21.2727 O   0  0  0  0  0  0
  -31.4762  -12.7233   19.1874 H   0  0  0  0  0  0
  -30.4264  -11.6091   20.0187 H   0  0  0  0  0  0
  -29.8335  -11.7288   17.5748 H   0  0  0  0  0  0
  -29.6206  -13.4582   17.6950 H   0  0  0  0  0  0
  -27.9353  -11.2779   18.9588 H   0  0  0  0  0  0
  -27.3921  -12.4714   17.8088 H   0  0  0  0  0  0
  -27.6008  -14.2513   19.4241 H   0  0  0  0  0  0
  -28.7567  -12.2673   21.4418 H   0  0  0  0  0  0
  -28.3819  -13.9427   21.7676 H   0  0  0  0  0  0
  -25.2774   -9.5694   22.4752 H   0  0  0  0  0  0
  -24.0018   -7.4640   22.7468 H   0  0  0  0  0  0
  -21.0848   -8.8766   19.8953 H   0  0  0  0  0  0
  -22.3694  -10.9670   19.6163 H   0  0  0  0  0  0
  -21.1996   -7.6138   23.9710 H   0  0  0  0  0  0
  -21.1494   -6.0514   25.9076 H   0  0  0  0  0  0
  -22.0595   -2.7603   23.2843 H   0  0  0  0  0  0
  -22.4080  -11.9884   22.4849 H   0  0  0  0  0  0
  -21.1057  -13.1215   22.2621 H   0  0  0  0  0  0
  -24.6438  -15.8454   20.5218 H   0  0  0  0  0  0
  -26.2519  -15.6342   20.0526 H   0  0  0  0  0  0
  -26.7259  -32.5309   23.0986 H   0  0  0  0  0  0
  -25.0047  -33.9616   25.0306 H   0  0  0  0  0  0
  -22.7457  -31.2872   21.3758 H   0  0  0  0  0  0
  -23.3762  -35.9570   23.3284 H   0  0  0  0  0  0
  -24.3564  -36.8909   22.2059 H   0  0  0  0  0  0
  -23.7224  -37.6435   23.6692 H   0  0  0  0  0  0
  -26.1481  -31.4753   20.6050 H   0  0  0  0  0  0
  -26.8684  -30.7767   22.0203 H   0  0  0  0  0  0
  -28.1374  -28.8321   21.2043 H   0  0  0  0  0  0
  -25.9467  -25.8124   19.0489 H   0  0  0  0  0  0
  -23.9787  -27.2628   19.0159 H   0  0  0  0  0  0
  -23.8076  -30.5540   19.3958 H   0  0  0  0  0  0
  -22.7833  -29.2258   19.8456 H   0  0  0  0  0  0
  -25.1310  -36.1862   25.0807 H   0  0  0  0  0  0
  -21.0002  -28.3300   24.1373 H   0  0  0  0  0  0
  -20.5689  -26.2323   23.3630 H   0  0  0  0  0  0
  -21.6652  -26.7437   22.1210 H   0  0  0  0  0  0
  -19.6927  -25.6289   21.1261 H   0  0  0  0  0  0
  -19.6702  -27.3184   20.6746 H   0  0  0  0  0  0
  -17.4216  -26.6681   21.4028 H   0  0  0  0  0  0
  -18.0331  -26.0076   22.9022 H   0  0  0  0  0  0
  -19.7949  -30.7294   24.2234 H   0  0  0  0  0  0
  -17.5027  -31.6273   24.5168 H   0  0  0  0  0  0
  -15.5365  -30.2990   23.7672 H   0  0  0  0  0  0
  -15.8679  -28.0828   22.7076 H   0  0  0  0  0  0
  -24.5905  -30.7084   25.7725 H   0  0  0  0  0  0
  -24.8913  -32.2914   26.4796 H   0  0  0  0  0  0
  -25.8020  -30.8933   27.0203 H   0  0  0  0  0  0
  -26.2987  -29.6688   24.1270 H   0  0  0  0  0  0
  -27.3996  -29.7249   25.4826 H   0  0  0  0  0  0
  -27.8894  -30.4188   23.9563 H   0  0  0  0  0  0
  -27.2648  -33.3627   26.2025 H   0  0  0  0  0  0
  -28.3899  -32.6859   25.0352 H   0  0  0  0  0  0
  -28.0687  -31.8471   26.5452 H   0  0  0  0  0  0
  -28.2586  -38.0091   24.7525 H   0  0  0  0  0  0
  -28.1087  -36.2626   24.6277 H   0  0  0  0  0  0
  -27.2300  -37.1410   25.8870 H   0  0  0  0  0  0
  -20.9450  -29.8727   21.6787 H   0  0  0  0  0  0
  -26.0154  -38.2819   24.1426 H   0  0  0  0  0  0
  -31.6765  -20.9840   19.8912 H   0  0  0  0  0  0
  -32.8919  -24.8929   20.6993 H   0  0  0  0  0  0
  -29.4050  -17.9876   18.3343 H   0  0  0  0  0  0
  -28.0924  -18.2577   19.4221 H   0  0  0  0  0  0
  -28.3907  -18.3810   21.7856 H   0  0  0  0  0  0
  -29.9390  -18.1980   22.5299 H   0  0  0  0  0  0
  -28.6384  -20.3923   18.4243 H   0  0  0  0  0  0
  -30.3200  -20.1842   18.6339 H   0  0  0  0  0  0
  -30.7564  -20.3002   21.7333 H   0  0  0  0  0  0
  -29.2063  -20.5908   22.4098 H   0  0  0  0  0  0
  -31.0127  -17.7999   20.2801 H   0  0  0  0  0  0
  -33.8996  -21.4556   19.6869 H   0  0  0  0  0  0
  -34.4024  -22.6995   20.8286 H   0  0  0  0  0  0
  -34.2460  -23.0860   19.1117 H   0  0  0  0  0  0
  -32.0368  -25.9825   22.6698 H   0  0  0  0  0  0
  -31.1080  -27.4542   22.4309 H   0  0  0  0  0  0
  -32.2620  -26.9668   21.2008 H   0  0  0  0  0  0
  -27.6112  -24.4226   21.1481 H   0  0  0  0  0  0
  -27.7069  -24.2964   19.4151 H   0  0  0  0  0  0
  -28.7548  -15.8334   20.7268 H   0  0  0  0  0  0
  1 25  1  0  0  0
  1 30  2  0  0  0
  1 86  1  0  0  0
  2  3  1  0  0  0
  2 25  1  0  0  0
  2 88  1  0  0  0
  2 89  1  0  0  0
  3  4  1  0  0  0
  3 90  1  0  0  0
  3 91  1  0  0  0
  4  5  1  0  0  0
  4 92  1  0  0  0
  4 93  1  0  0  0
  5  6  1  0  0  0
  5 26  1  0  0  0
  5 94  1  0  0  0
  6 25  1  0  0  0
  6 95  1  0  0  0
  6 96  1  0  0  0
  7  8  2  0  0  0
  7 26  1  0  0  0
  7 29  1  0  0  0
  8  9  1  0  0  0
  8 22  1  0  0  0
  9 10  1  0  0  0
  9 27  2  0  0  0
 10 11  2  0  0  0
 10 15  1  0  0  0
 11 12  1  0  0  0
 11 97  1  0  0  0
 12 13  2  0  0  0
 12 98  1  0  0  0
 13 14  1  0  0  0
 13 31  1  0  0  0
 14 15  2  0  0  0
 14 99  1  0  0  0
 15100  1  0  0  0
 16 17  2  0  0  0
 16 21  1  0  0  0
 16 31  1  0  0  0
 17 18  1  0  0  0
 17101  1  0  0  0
 18 19  2  0  0  0
 18102  1  0  0  0
 19 20  1  0  0  0
 19 24  1  0  0  0
 20 21  2  0  0  0
 20103  1  0  0  0
 21 23  1  0  0  0
 22 28  1  0  0  0
 22 32  2  0  0  0
 26 27  1  0  0  0
 28104  1  0  0  0
 28105  1  0  0  0
 29106  1  0  0  0
 29107  1  0  0  0
 33 34  1  0  0  0
 33 66  1  0  0  0
 33 70  2  0  0  0
 34 36  1  0  0  0
 34 59  1  0  0  0
 34108  1  0  0  0
 35 44  2  0  0  0
 35 45  1  0  0  0
 35 68  1  0  0  0
 36 56  1  0  0  0
 36109  1  0  0  0
 37 39  1  0  0  0
 37 47  1  0  0  0
 37 66  1  0  0  0
 37110  1  0  0  0
 38 43  2  0  0  0
 38 46  1  0  0  0
 38 47  1  0  0  0
 39 64  1  0  0  0
 39 67  2  0  0  0
 40 52  1  0  0  0
 40 53  2  0  0  0
 40 58  1  0  0  0
 41111  1  0  0  0
 41112  1  0  0  0
 41113  1  0  0  0
 41 48  1  0  0  0
 42 43  1  0  0  0
 42 66  1  0  0  0
 42114  1  0  0  0
 42115  1  0  0  0
 43 44  1  0  0  0
 44116  1  0  0  0
 45 46  2  0  0  0
 45117  1  0  0  0
 46118  1  0  0  0
 47119  1  0  0  0
 47120  1  0  0  0
 48 56  1  0  0  0
 48 65  1  0  0  0
 48121  1  0  0  0
 49 50  1  0  0  0
 49 53  1  0  0  0
 49 64  1  0  0  0
 49122  1  0  0  0
 50 51  1  0  0  0
 50123  1  0  0  0
 50124  1  0  0  0
 51 52  1  0  0  0
 51125  1  0  0  0
 51126  1  0  0  0
 52127  1  0  0  0
 52128  1  0  0  0
 53 54  1  0  0  0
 54 55  2  0  0  0
 54129  1  0  0  0
 55 57  1  0  0  0
 55130  1  0  0  0
 56 69  2  0  0  0
 57 58  2  0  0  0
 57131  1  0  0  0
 58132  1  0  0  0
 59 60  1  0  0  0
 59 61  1  0  0  0
 59 62  1  0  0  0
 60133  1  0  0  0
 60134  1  0  0  0
 60135  1  0  0  0
 61136  1  0  0  0
 61137  1  0  0  0
 61138  1  0  0  0
 62139  1  0  0  0
 62140  1  0  0  0
 62141  1  0  0  0
 63 65  1  0  0  0
 63142  1  0  0  0
 63143  1  0  0  0
 63144  1  0  0  0
 64145  1  0  0  0
 65146  1  0  0  0
 68 84  1  0  0  0
 71 73  2  0  0  0
 71 75  1  0  0  0
 71147  1  0  0  0
 72 73  1  0  0  0
 72 76  2  0  0  0
 72148  1  0  0  0
 73 82  1  0  0  0
 74 75  2  0  0  0
 74 76  1  0  0  0
 74 84  1  0  0  0
 75 85  1  0  0  0
 76 87  1  0  0  0
 77 79  1  0  0  0
 77 81  1  0  0  0
 77149  1  0  0  0
 77150  1  0  0  0
 78 80  1  0  0  0
 78 81  1  0  0  0
 78151  1  0  0  0
 78152  1  0  0  0
 79 85  1  0  0  0
 79153  1  0  0  0
 79154  1  0  0  0
 80 85  1  0  0  0
 80155  1  0  0  0
 80156  1  0  0  0
 81 86  1  0  0  0
 81157  1  0  0  0
 82158  1  0  0  0
 82159  1  0  0  0
 82160  1  0  0  0
 83 87  1  0  0  0
 83161  1  0  0  0
 83162  1  0  0  0
 83163  1  0  0  0
 84164  1  0  0  0
 84165  1  0  0  0
 86166  1  0  0  0
M  ISO  4   1 100  68 101  84 101  86 100
M  END
> <chiral flag>
0

> <version>
0

> <s_m_source_file>
/data/baiqing/PycharmProjects/Reinvent-master-3.2/result/LINK_invent/BTK/process_docking_weight1_custom_sum_contain_oxygen_bond_distance_aromatic_linkinvent_7_9_3/rearranged_h_0156.sdf

> <i_m_source_file_index>
72

> <r_mmod_Potential_Energy-OPLS-2005>
684.558288574219

> <r_mmod_Stretch_Energy-OPLS-2005>
259.063720703125

> <r_mmod_Bend_Energy-OPLS-2005>
314.919708251953

> <r_mmod_Torsional_Energy-OPLS-2005>
301.516967773438

> <r_mmod_Improper_Torsional_Energy-OPLS-2005>
11.216796875

> <r_mmod_Van_der_Waal_Energy-OPLS-2005>
168.928619384766

> <r_mmod_Electrostatic_Energy-OPLS-2005>
-302.230590820312

> <r_mmod_Solvation_Energy-OPLS-2005>
-240.303665161133

> <b_mmod_Minimization_Converged-OPLS-2005>
0

> <r_mmod_RMS_Derivative-OPLS-2005>
1.3409698009491

$$$$
72
                    3D
 Structure written by MMmdl.
168177  0  0  1  0            999 V2000
  -30.6351  -14.6928   20.3051 C   0  0  0  0  0  0
  -30.4559  -12.3705   19.4650 C   0  0  0  0  0  0
  -29.5064  -12.2423   18.2479 C   0  0  0  0  0  0
  -28.0101  -12.2544   18.6517 C   0  0  0  0  0  0
  -27.6379  -13.1806   19.8432 C   0  0  2  0  0  0
  -28.7061  -13.1708   20.9538 C   0  0  0  0  0  0
  -25.2579  -13.7989   20.5884 C   0  0  0  0  0  0
  -24.1819  -13.0290   20.9363 C   0  0  0  0  0  0
  -24.6357  -11.6773   20.8991 C   0  0  0  0  0  0
  -23.9022  -10.4177   21.0600 C   0  0  0  0  0  0
  -24.3527   -9.4085   21.9382 C   0  0  0  0  0  0
  -23.6175   -8.2142   22.0895 C   0  0  0  0  0  0
  -22.4221   -8.0185   21.3579 C   0  0  0  0  0  0
  -21.9930   -9.0146   20.4632 C   0  0  0  0  0  0
  -22.7277  -10.2032   20.3126 C   0  0  0  0  0  0
  -21.6762   -6.0676   22.5330 C   0  0  0  0  0  0
  -21.3901   -6.5622   23.8250 C   0  0  0  0  0  0
  -21.3690   -5.6824   24.9258 C   0  0  0  0  0  0
  -21.6085   -4.3089   24.7355 C   0  0  0  0  0  0
  -21.8756   -3.8129   23.4466 C   0  0  0  0  0  0
  -21.9114   -4.6907   22.3497 C   0  0  0  0  0  0
  -22.7836  -13.5158   21.1870 C   0  0  0  0  0  0
  -22.1596   -4.2075   21.1087 F   0  0  0  0  0  0
  -21.5729   -3.4587   25.7871 F   0  0  0  0  0  0
  -29.9947  -13.4784   20.3205 N   0  0  0  0  0  0
  -26.2960  -12.9106   20.3505 N   0  0  0  0  0  0
  -25.9294  -11.6314   20.6061 N   0  0  0  0  0  0
  -22.0369  -12.8177   22.0391 N   0  0  0  0  0  0
  -25.4285  -15.1665   20.4319 N   0  0  0  0  0  0
  -31.8661  -14.7543   20.2918 O   0  0  0  0  0  0
  -21.6544   -6.8809   21.4298 O   0  0  0  0  0  0
  -22.3598  -14.5464   20.6662 O   0  0  0  0  0  0
  -24.6162  -31.8648   23.2040 C   0  0  0  0  0  0
  -25.9047  -32.4823   23.8340 C   0  0  1  0  0  0
  -27.2633  -27.3894   20.1552 C   0  0  0  0  0  0
  -25.5893  -33.8612   24.2278 N   0  0  0  0  0  0
  -23.4068  -30.4813   21.5429 C   0  0  2  0  0  0
  -24.8649  -28.9292   20.1265 C   0  0  0  0  0  0
  -22.7413  -29.4647   22.4975 C   0  0  0  0  0  0
  -18.0278  -28.1387   22.8511 C   0  0  0  0  0  0
  -24.1493  -36.7301   23.2639 C   0  0  0  0  0  0
  -25.9346  -30.8235   21.3601 C   0  0  0  0  0  0
  -26.0201  -29.4450   20.7268 C   0  0  0  0  0  0
  -27.2174  -28.6845   20.7331 C   0  0  0  0  0  0
  -26.0919  -26.8995   19.5352 C   0  0  0  0  0  0
  -24.8993  -27.6559   19.5249 C   0  0  0  0  0  0
  -23.6206  -29.7933   20.1653 C   0  0  0  0  0  0
  -25.4120  -36.3094   24.0322 C   0  0  1  0  0  0
  -20.5871  -28.3670   23.1327 C   0  0  2  0  0  0
  -20.6774  -26.9404   22.5426 C   0  0  0  0  0  0
  -19.5740  -26.6389   21.5234 C   0  0  0  0  0  0
  -18.1922  -26.7937   22.1646 C   0  0  0  0  0  0
  -19.1534  -28.8843   23.2914 C   0  0  0  0  0  0
  -18.9448  -30.1460   23.8908 C   0  0  0  0  0  0
  -17.6450  -30.6588   24.0569 C   0  0  0  0  0  0
  -25.9033  -34.9472   23.5096 C   0  0  0  0  0  0
  -16.5338  -29.9079   23.6345 C   0  0  0  0  0  0
  -16.7272  -28.6500   23.0355 C   0  0  0  0  0  0
  -26.4473  -31.6613   25.0682 C   0  0  0  0  0  0
  -25.3725  -31.3732   26.1418 C   0  0  0  0  0  0
  -27.0335  -30.3056   24.6094 C   0  0  0  0  0  0
  -27.6023  -32.4357   25.7461 C   0  0  0  0  0  0
  -27.5572  -37.1803   24.8460 C   0  0  0  0  0  0
  -21.4138  -29.3034   22.3716 N   0  0  0  0  0  0
  -26.4295  -37.3775   23.9395 N   0  0  0  0  0  0
  -24.6698  -31.0717   22.0955 N   0  0  0  0  0  0
  -23.4164  -28.8228   23.3060 O   0  0  0  0  0  0
  -28.4683  -26.6988   20.0918 O   0  0  0  0  0  0
  -26.5593  -34.8936   22.4656 O   0  0  0  0  0  0
  -23.5346  -32.1412   23.7424 O   0  0  0  0  0  0
  -29.1435  -20.6796   18.7461 C   0  0  0  0  0  0
  -29.2209  -20.5973   21.1372 C   0  0  0  0  0  0
  -29.2445  -19.8764   19.9125 C   0  0  0  0  0  0
  -28.6719  -22.7442   20.0027 C   0  0  0  0  0  0
  -28.8035  -22.0510   18.7751 C   0  0  0  0  0  0
  -28.9672  -22.0152   21.1933 C   0  0  0  0  0  0
  -28.1901  -16.5085   18.2454 C   0  0  0  0  0  0
  -28.4852  -17.9701   18.4145 C   0  0  0  0  0  0
  -29.4819  -15.7464   18.5012 C   0  0  0  0  0  0
  -30.2336  -17.2593   20.1914 C   0  0  0  0  0  0
  -29.0740  -18.3046   19.8090 C   0  0  1  0  0  0
  -27.5663  -22.0839   16.7656 C   0  0  0  0  0  0
  -29.7181  -22.2248   23.4627 C   0  0  0  0  0  0
  -28.0449  -24.1807   19.9650 C   0  0  0  0  0  0
  -28.6607  -25.3975   20.7219 C   0  0  0  0  0  0
  -29.8934  -15.8023   19.9145 N   0  0  0  0  0  0
  -28.5337  -22.7118   17.5994 O   0  0  0  0  0  0
  -28.9248  -22.7133   22.3812 O   0  0  0  0  0  0
  -31.4751  -12.5310   19.1060 H   0  0  0  0  0  0
  -30.4842  -11.4452   20.0415 H   0  0  0  0  0  0
  -29.7132  -11.2849   17.7707 H   0  0  0  0  0  0
  -29.7422  -12.9572   17.4623 H   0  0  0  0  0  0
  -27.7625  -11.2280   18.9232 H   0  0  0  0  0  0
  -27.3851  -12.4811   17.7896 H   0  0  0  0  0  0
  -27.5922  -14.1806   19.4449 H   0  0  0  0  0  0
  -28.7467  -12.2045   21.4567 H   0  0  0  0  0  0
  -28.4661  -13.9179   21.7119 H   0  0  0  0  0  0
  -25.2636   -9.5506   22.5045 H   0  0  0  0  0  0
  -23.9807   -7.4548   22.7650 H   0  0  0  0  0  0
  -21.0946   -8.8642   19.8834 H   0  0  0  0  0  0
  -22.3767  -10.9557   19.6227 H   0  0  0  0  0  0
  -21.1754   -7.6129   23.9713 H   0  0  0  0  0  0
  -21.1663   -6.0624   25.9167 H   0  0  0  0  0  0
  -22.0485   -2.7579   23.3032 H   0  0  0  0  0  0
  -22.4025  -12.0004   22.5046 H   0  0  0  0  0  0
  -21.0936  -13.1166   22.2459 H   0  0  0  0  0  0
  -24.6690  -15.8211   20.5750 H   0  0  0  0  0  0
  -26.2976  -15.6088   20.1663 H   0  0  0  0  0  0
  -26.7130  -32.5548   23.1112 H   0  0  0  0  0  0
  -25.0076  -33.9751   25.0445 H   0  0  0  0  0  0
  -22.6996  -31.2993   21.3924 H   0  0  0  0  0  0
  -23.3744  -35.9640   23.3319 H   0  0  0  0  0  0
  -24.3575  -36.8905   22.2047 H   0  0  0  0  0  0
  -23.7267  -37.6517   23.6652 H   0  0  0  0  0  0
  -26.0364  -31.5805   20.5806 H   0  0  0  0  0  0
  -26.8260  -30.8959   21.9712 H   0  0  0  0  0  0
  -28.1093  -29.0904   21.1903 H   0  0  0  0  0  0
  -26.1052  -25.9409   19.0387 H   0  0  0  0  0  0
  -24.0149  -27.2563   19.0498 H   0  0  0  0  0  0
  -23.7160  -30.5556   19.3915 H   0  0  0  0  0  0
  -22.7509  -29.1963   19.8832 H   0  0  0  0  0  0
  -25.1311  -36.1930   25.0810 H   0  0  0  0  0  0
  -20.9986  -28.3249   24.1435 H   0  0  0  0  0  0
  -20.5721  -26.2266   23.3613 H   0  0  0  0  0  0
  -21.6639  -26.7468   22.1190 H   0  0  0  0  0  0
  -19.6899  -25.6300   21.1256 H   0  0  0  0  0  0
  -19.6687  -27.3214   20.6778 H   0  0  0  0  0  0
  -17.4202  -26.6718   21.4037 H   0  0  0  0  0  0
  -18.0298  -26.0065   22.9025 H   0  0  0  0  0  0
  -19.7916  -30.7295   24.2268 H   0  0  0  0  0  0
  -17.4986  -31.6278   24.5161 H   0  0  0  0  0  0
  -15.5334  -30.2971   23.7660 H   0  0  0  0  0  0
  -15.8678  -28.0823   22.7045 H   0  0  0  0  0  0
  -24.5867  -30.7139   25.7717 H   0  0  0  0  0  0
  -24.8964  -32.2910   26.4873 H   0  0  0  0  0  0
  -25.8045  -30.8856   27.0163 H   0  0  0  0  0  0
  -26.2906  -29.6792   24.1155 H   0  0  0  0  0  0
  -27.4109  -29.7322   25.4566 H   0  0  0  0  0  0
  -27.8720  -30.4370   23.9256 H   0  0  0  0  0  0
  -27.2601  -33.3617   26.2090 H   0  0  0  0  0  0
  -28.3804  -32.7001   25.0291 H   0  0  0  0  0  0
  -28.0741  -31.8474   26.5338 H   0  0  0  0  0  0
  -28.2601  -38.0088   24.7497 H   0  0  0  0  0  0
  -28.1061  -36.2619   24.6316 H   0  0  0  0  0  0
  -27.2278  -37.1487   25.8860 H   0  0  0  0  0  0
  -20.9290  -29.8690   21.6889 H   0  0  0  0  0  0
  -26.0181  -38.2847   24.1391 H   0  0  0  0  0  0
  -29.2035  -20.2360   17.7698 H   0  0  0  0  0  0
  -29.3181  -20.0261   22.0475 H   0  0  0  0  0  0
  -27.8349  -16.2967   17.2365 H   0  0  0  0  0  0
  -27.3943  -16.2226   18.9234 H   0  0  0  0  0  0
  -27.5721  -18.5409   18.2370 H   0  0  0  0  0  0
  -29.1947  -18.2191   17.6230 H   0  0  0  0  0  0
  -30.2866  -16.1067   17.8553 H   0  0  0  0  0  0
  -29.2774  -14.7538   18.1630 H   0  0  0  0  0  0
  -30.4865  -17.3641   21.2466 H   0  0  0  0  0  0
  -31.1414  -17.5070   19.6359 H   0  0  0  0  0  0
  -28.2684  -18.0838   20.5108 H   0  0  0  0  0  0
  -27.2372  -22.7794   15.9958 H   0  0  0  0  0  0
  -26.6863  -21.7890   17.3406 H   0  0  0  0  0  0
  -27.9680  -21.2042   16.2612 H   0  0  0  0  0  0
  -29.6906  -22.9402   24.2856 H   0  0  0  0  0  0
  -30.7655  -22.1138   23.1743 H   0  0  0  0  0  0
  -29.3467  -21.2779   23.8597 H   0  0  0  0  0  0
  -27.0062  -24.0773   20.2787 H   0  0  0  0  0  0
  -27.9879  -24.5041   18.9297 H   0  0  0  0  0  0
  -29.7425  -25.2598   20.7590 H   0  0  0  0  0  0
  -28.3320  -25.4291   21.7600 H   0  0  0  0  0  0
  1 25  1  0  0  0
  1 30  2  0  0  0
  1 86  1  0  0  0
  2  3  1  0  0  0
  2 25  1  0  0  0
  2 89  1  0  0  0
  2 90  1  0  0  0
  3  4  1  0  0  0
  3 91  1  0  0  0
  3 92  1  0  0  0
  4  5  1  0  0  0
  4 93  1  0  0  0
  4 94  1  0  0  0
  5  6  1  0  0  0
  5 26  1  0  0  0
  5 95  1  0  0  0
  6 25  1  0  0  0
  6 96  1  0  0  0
  6 97  1  0  0  0
  7  8  2  0  0  0
  7 26  1  0  0  0
  7 29  1  0  0  0
  8  9  1  0  0  0
  8 22  1  0  0  0
  9 10  1  0  0  0
  9 27  2  0  0  0
 10 11  2  0  0  0
 10 15  1  0  0  0
 11 12  1  0  0  0
 11 98  1  0  0  0
 12 13  2  0  0  0
 12 99  1  0  0  0
 13 14  1  0  0  0
 13 31  1  0  0  0
 14 15  2  0  0  0
 14100  1  0  0  0
 15101  1  0  0  0
 16 17  2  0  0  0
 16 21  1  0  0  0
 16 31  1  0  0  0
 17 18  1  0  0  0
 17102  1  0  0  0
 18 19  2  0  0  0
 18103  1  0  0  0
 19 20  1  0  0  0
 19 24  1  0  0  0
 20 21  2  0  0  0
 20104  1  0  0  0
 21 23  1  0  0  0
 22 28  1  0  0  0
 22 32  2  0  0  0
 26 27  1  0  0  0
 28105  1  0  0  0
 28106  1  0  0  0
 29107  1  0  0  0
 29108  1  0  0  0
 33 34  1  0  0  0
 33 66  1  0  0  0
 33 70  2  0  0  0
 34 36  1  0  0  0
 34 59  1  0  0  0
 34109  1  0  0  0
 35 44  2  0  0  0
 35 45  1  0  0  0
 35 68  1  0  0  0
 36 56  1  0  0  0
 36110  1  0  0  0
 37 39  1  0  0  0
 37 47  1  0  0  0
 37 66  1  0  0  0
 37111  1  0  0  0
 38 43  2  0  0  0
 38 46  1  0  0  0
 38 47  1  0  0  0
 39 64  1  0  0  0
 39 67  2  0  0  0
 40 52  1  0  0  0
 40 53  2  0  0  0
 40 58  1  0  0  0
 41112  1  0  0  0
 41113  1  0  0  0
 41114  1  0  0  0
 41 48  1  0  0  0
 42 43  1  0  0  0
 42 66  1  0  0  0
 42115  1  0  0  0
 42116  1  0  0  0
 43 44  1  0  0  0
 44117  1  0  0  0
 45 46  2  0  0  0
 45118  1  0  0  0
 46119  1  0  0  0
 47120  1  0  0  0
 47121  1  0  0  0
 48 56  1  0  0  0
 48 65  1  0  0  0
 48122  1  0  0  0
 49 50  1  0  0  0
 49 53  1  0  0  0
 49 64  1  0  0  0
 49123  1  0  0  0
 50 51  1  0  0  0
 50124  1  0  0  0
 50125  1  0  0  0
 51 52  1  0  0  0
 51126  1  0  0  0
 51127  1  0  0  0
 52128  1  0  0  0
 52129  1  0  0  0
 53 54  1  0  0  0
 54 55  2  0  0  0
 54130  1  0  0  0
 55 57  1  0  0  0
 55131  1  0  0  0
 56 69  2  0  0  0
 57 58  2  0  0  0
 57132  1  0  0  0
 58133  1  0  0  0
 59 60  1  0  0  0
 59 61  1  0  0  0
 59 62  1  0  0  0
 60134  1  0  0  0
 60135  1  0  0  0
 60136  1  0  0  0
 61137  1  0  0  0
 61138  1  0  0  0
 61139  1  0  0  0
 62140  1  0  0  0
 62141  1  0  0  0
 62142  1  0  0  0
 63 65  1  0  0  0
 63143  1  0  0  0
 63144  1  0  0  0
 63145  1  0  0  0
 64146  1  0  0  0
 65147  1  0  0  0
 68 85  1  0  0  0
 71 73  2  0  0  0
 71 75  1  0  0  0
 71148  1  0  0  0
 72 73  1  0  0  0
 72 76  2  0  0  0
 72149  1  0  0  0
 73 81  1  0  0  0
 74 75  2  0  0  0
 74 76  1  0  0  0
 74 84  1  0  0  0
 75 87  1  0  0  0
 76 88  1  0  0  0
 77 78  1  0  0  0
 77 79  1  0  0  0
 77150  1  0  0  0
 77151  1  0  0  0
 78 81  1  0  0  0
 78152  1  0  0  0
 78153  1  0  0  0
 79 86  1  0  0  0
 79154  1  0  0  0
 79155  1  0  0  0
 80 81  1  0  0  0
 80 86  1  0  0  0
 80156  1  0  0  0
 80157  1  0  0  0
 81158  1  0  0  0
 82 87  1  0  0  0
 82159  1  0  0  0
 82160  1  0  0  0
 82161  1  0  0  0
 83 88  1  0  0  0
 83162  1  0  0  0
 83163  1  0  0  0
 83164  1  0  0  0
 84 85  1  0  0  0
 84165  1  0  0  0
 84166  1  0  0  0
 85167  1  0  0  0
 85168  1  0  0  0
M  ISO  4   1 100  68 101  85 101  86 100
M  END
> <chiral flag>
0

> <version>
0

> <s_m_source_file>
/data/baiqing/PycharmProjects/Reinvent-master-3.2/result/LINK_invent/BTK/process_docking_weight1_custom_sum_contain_oxygen_bond_distance_aromatic_linkinvent_7_9_3/rearranged_h_0156.sdf

> <i_m_source_file_index>
73

> <r_mmod_Potential_Energy-OPLS-2005>
403.930114746094

> <r_mmod_Stretch_Energy-OPLS-2005>
81.8588638305664

> <r_mmod_Bend_Energy-OPLS-2005>
174.753921508789

> <r_mmod_Torsional_Energy-OPLS-2005>
411.222412109375

> <r_mmod_Improper_Torsional_Energy-OPLS-2005>
17.9663753509521

> <r_mmod_Van_der_Waal_Energy-OPLS-2005>
177.671539306641

> <r_mmod_Electrostatic_Energy-OPLS-2005>
-325.180084228516

> <r_mmod_Solvation_Energy-OPLS-2005>
-206.206298828125

> <b_mmod_Minimization_Converged-OPLS-2005>
0

> <r_mmod_RMS_Derivative-OPLS-2005>
5.63217353820801

$$$$
73
                    3D
 Structure written by MMmdl.
159168  0  0  1  0            999 V2000
  -30.5528  -14.9497   20.4359 C   0  0  0  0  0  0
  -30.4373  -12.5811   19.5185 C   0  0  0  0  0  0
  -29.5282  -12.5410   18.2684 C   0  0  0  0  0  0
  -28.0591  -12.3287   18.6784 C   0  0  0  0  0  0
  -27.6346  -13.2562   19.8478 C   0  0  2  0  0  0
  -28.6737  -13.2775   20.9899 C   0  0  0  0  0  0
  -25.2465  -13.8235   20.5711 C   0  0  0  0  0  0
  -24.1785  -13.0451   20.9190 C   0  0  0  0  0  0
  -24.6411  -11.6933   20.8733 C   0  0  0  0  0  0
  -23.9096  -10.4298   21.0397 C   0  0  0  0  0  0
  -24.3626   -9.4211   21.9181 C   0  0  0  0  0  0
  -23.6285   -8.2258   22.0765 C   0  0  0  0  0  0
  -22.4277   -8.0291   21.3548 C   0  0  0  0  0  0
  -21.9916   -9.0274   20.4652 C   0  0  0  0  0  0
  -22.7261  -10.2143   20.3057 C   0  0  0  0  0  0
  -21.6854   -6.0731   22.5272 C   0  0  0  0  0  0
  -21.4022   -6.5630   23.8200 C   0  0  0  0  0  0
  -21.3658   -5.6786   24.9164 C   0  0  0  0  0  0
  -21.6042   -4.3052   24.7217 C   0  0  0  0  0  0
  -21.8817   -3.8139   23.4337 C   0  0  0  0  0  0
  -21.9187   -4.6956   22.3395 C   0  0  0  0  0  0
  -22.7797  -13.5206   21.1848 C   0  0  0  0  0  0
  -22.1653   -4.2141   21.0967 F   0  0  0  0  0  0
  -21.5627   -3.4536   25.7727 F   0  0  0  0  0  0
  -29.9591  -13.6835   20.4081 N   0  0  0  0  0  0
  -26.2914  -12.9492   20.3275 N   0  0  0  0  0  0
  -25.9359  -11.6605   20.5743 N   0  0  0  0  0  0
  -22.0445  -12.8211   22.0409 N   0  0  0  0  0  0
  -25.4144  -15.1974   20.4160 N   0  0  0  0  0  0
  -31.7163  -14.9885   20.0195 O   0  0  0  0  0  0
  -21.6640   -6.8888   21.4240 O   0  0  0  0  0  0
  -22.3474  -14.5508   20.6677 O   0  0  0  0  0  0
  -24.6414  -31.8403   23.1840 C   0  0  0  0  0  0
  -25.9192  -32.4672   23.8240 C   0  0  1  0  0  0
  -27.2263  -27.1286   20.1523 C   0  0  0  0  0  0
  -25.5924  -33.8485   24.2147 N   0  0  0  0  0  0
  -23.4465  -30.4553   21.5281 C   0  0  2  0  0  0
  -24.8990  -28.8729   20.1028 C   0  0  0  0  0  0
  -22.7556  -29.4516   22.4850 C   0  0  0  0  0  0
  -18.0302  -28.1387   22.8480 C   0  0  0  0  0  0
  -24.1496  -36.7255   23.2650 C   0  0  0  0  0  0
  -25.9996  -30.7093   21.3834 C   0  0  0  0  0  0
  -26.0704  -29.3193   20.7260 C   0  0  0  0  0  0
  -27.2276  -28.4587   20.7371 C   0  0  0  0  0  0
  -26.0379  -26.7783   19.4813 C   0  0  0  0  0  0
  -24.8954  -27.6163   19.4686 C   0  0  0  0  0  0
  -23.6723  -29.7738   20.1486 C   0  0  0  0  0  0
  -25.4129  -36.3015   24.0303 C   0  0  1  0  0  0
  -20.5910  -28.3723   23.1244 C   0  0  2  0  0  0
  -20.6788  -26.9420   22.5413 C   0  0  0  0  0  0
  -19.5759  -26.6376   21.5233 C   0  0  0  0  0  0
  -18.1935  -26.7923   22.1623 C   0  0  0  0  0  0
  -19.1556  -28.8871   23.2856 C   0  0  0  0  0  0
  -18.9485  -30.1462   23.8890 C   0  0  0  0  0  0
  -17.6490  -30.6594   24.0560 C   0  0  0  0  0  0
  -25.9078  -34.9394   23.5047 C   0  0  0  0  0  0
  -16.5374  -29.9081   23.6343 C   0  0  0  0  0  0
  -16.7291  -28.6496   23.0376 C   0  0  0  0  0  0
  -26.4525  -31.6556   25.0703 C   0  0  0  0  0  0
  -25.3699  -31.3751   26.1397 C   0  0  0  0  0  0
  -27.0409  -30.2952   24.6296 C   0  0  0  0  0  0
  -27.6041  -32.4353   25.7481 C   0  0  0  0  0  0
  -27.5567  -37.1775   24.8458 C   0  0  0  0  0  0
  -21.4249  -29.3038   22.3605 N   0  0  0  0  0  0
  -26.4282  -37.3736   23.9406 N   0  0  0  0  0  0
  -24.7154  -31.0228   22.0874 N   0  0  0  0  0  0
  -23.4187  -28.8093   23.3040 O   0  0  0  0  0  0
  -28.2996  -26.1810   20.3016 O   0  0  0  0  0  0
  -26.5690  -34.8891   22.4640 O   0  0  0  0  0  0
  -23.5533  -32.1290   23.7051 O   0  0  0  0  0  0
  -28.8713  -20.4958   20.0320 C   0  0  0  0  0  0
  -29.3477  -21.8629   21.9622 C   0  0  0  0  0  0
  -29.4204  -19.2601   20.6597 C   0  0  0  0  0  0
  -29.8845  -19.4276   21.9864 C   0  0  0  0  0  0
  -28.8080  -21.8435   20.6600 C   0  0  0  0  0  0
  -29.8184  -20.6967   22.6319 C   0  0  0  0  0  0
  -29.5392  -17.7441   20.0308 C   0  0  0  0  0  0
  -30.3898  -18.2190   22.7910 C   0  0  0  0  0  0
  -30.8965  -16.9901   21.9970 C   0  0  0  0  0  0
  -29.9093  -16.4029   20.9640 C   0  0  2  0  0  0
  -29.6785  -21.7684   24.7910 C   0  0  0  0  0  0
  -27.9672  -23.2030   20.2077 C   0  0  0  0  0  0
  -28.4776  -24.7413   19.7271 C   0  0  0  0  0  0
  -30.1961  -20.7317   23.9594 O   0  0  0  0  0  0
  -31.4769  -12.7095   19.2151 H   0  0  0  0  0  0
  -30.4067  -11.6255   20.0441 H   0  0  0  0  0  0
  -29.8494  -11.7475   17.5919 H   0  0  0  0  0  0
  -29.6266  -13.4764   17.7145 H   0  0  0  0  0  0
  -27.9539  -11.2854   18.9811 H   0  0  0  0  0  0
  -27.3995  -12.4656   17.8206 H   0  0  0  0  0  0
  -27.6041  -14.2626   19.4296 H   0  0  0  0  0  0
  -28.7525  -12.2989   21.4674 H   0  0  0  0  0  0
  -28.3684  -13.9733   21.7717 H   0  0  0  0  0  0
  -25.2782   -9.5670   22.4759 H   0  0  0  0  0  0
  -23.9972   -7.4655   22.7510 H   0  0  0  0  0  0
  -21.0837   -8.8805   19.8970 H   0  0  0  0  0  0
  -22.3729  -10.9675   19.6162 H   0  0  0  0  0  0
  -21.2029   -7.6144   23.9703 H   0  0  0  0  0  0
  -21.1478   -6.0516   25.9062 H   0  0  0  0  0  0
  -22.0596   -2.7603   23.2836 H   0  0  0  0  0  0
  -22.4061  -11.9873   22.4800 H   0  0  0  0  0  0
  -21.1077  -13.1256   22.2628 H   0  0  0  0  0  0
  -24.6490  -15.8520   20.5390 H   0  0  0  0  0  0
  -26.2715  -15.6433   20.1145 H   0  0  0  0  0  0
  -26.7243  -32.5277   23.0944 H   0  0  0  0  0  0
  -25.0028  -33.9613   25.0266 H   0  0  0  0  0  0
  -22.7517  -31.2813   21.3660 H   0  0  0  0  0  0
  -23.3747  -35.9590   23.3295 H   0  0  0  0  0  0
  -24.3577  -36.8927   22.2065 H   0  0  0  0  0  0
  -23.7256  -37.6446   23.6718 H   0  0  0  0  0  0
  -26.1556  -31.4617   20.6093 H   0  0  0  0  0  0
  -26.8697  -30.7602   22.0265 H   0  0  0  0  0  0
  -28.1174  -28.7887   21.2534 H   0  0  0  0  0  0
  -25.9654  -25.8099   19.0056 H   0  0  0  0  0  0
  -23.9987  -27.2711   18.9742 H   0  0  0  0  0  0
  -23.8018  -30.5437   19.3869 H   0  0  0  0  0  0
  -22.7885  -29.2081   19.8466 H   0  0  0  0  0  0
  -25.1308  -36.1832   25.0788 H   0  0  0  0  0  0
  -21.0013  -28.3322   24.1366 H   0  0  0  0  0  0
  -20.5711  -26.2334   23.3644 H   0  0  0  0  0  0
  -21.6651  -26.7450   22.1195 H   0  0  0  0  0  0
  -19.6944  -25.6286   21.1268 H   0  0  0  0  0  0
  -19.6698  -27.3183   20.6753 H   0  0  0  0  0  0
  -17.4211  -26.6704   21.4008 H   0  0  0  0  0  0
  -18.0305  -26.0055   22.9008 H   0  0  0  0  0  0
  -19.7974  -30.7270   24.2259 H   0  0  0  0  0  0
  -17.5047  -31.6286   24.5143 H   0  0  0  0  0  0
  -15.5375  -30.2986   23.7683 H   0  0  0  0  0  0
  -15.8684  -28.0811   22.7118 H   0  0  0  0  0  0
  -24.5884  -30.7090   25.7713 H   0  0  0  0  0  0
  -24.8876  -32.2931   26.4767 H   0  0  0  0  0  0
  -25.7959  -30.8963   27.0220 H   0  0  0  0  0  0
  -26.3030  -29.6648   24.1307 H   0  0  0  0  0  0
  -27.4033  -29.7276   25.4879 H   0  0  0  0  0  0
  -27.8923  -30.4198   23.9600 H   0  0  0  0  0  0
  -27.2633  -33.3702   26.1939 H   0  0  0  0  0  0
  -28.3896  -32.6837   25.0333 H   0  0  0  0  0  0
  -28.0635  -31.8552   26.5497 H   0  0  0  0  0  0
  -28.2557  -38.0098   24.7522 H   0  0  0  0  0  0
  -28.1095  -36.2625   24.6262 H   0  0  0  0  0  0
  -27.2293  -37.1391   25.8866 H   0  0  0  0  0  0
  -20.9461  -29.8743   21.6777 H   0  0  0  0  0  0
  -26.0141  -38.2801   24.1415 H   0  0  0  0  0  0
  -28.4471  -20.3961   19.0413 H   0  0  0  0  0  0
  -29.3154  -22.8059   22.4874 H   0  0  0  0  0  0
  -30.2874  -17.8074   19.2401 H   0  0  0  0  0  0
  -28.6028  -17.5403   19.5114 H   0  0  0  0  0  0
  -29.5917  -17.9105   23.4661 H   0  0  0  0  0  0
  -31.2124  -18.5468   23.4277 H   0  0  0  0  0  0
  -31.1993  -16.2177   22.7063 H   0  0  0  0  0  0
  -31.8107  -17.2803   21.4768 H   0  0  0  0  0  0
  -29.0044  -16.1480   21.5128 H   0  0  0  0  0  0
  -29.5706  -21.3856   25.8061 H   0  0  0  0  0  0
  -28.6874  -22.1166   24.4949 H   0  0  0  0  0  0
  -30.3619  -22.6179   24.8240 H   0  0  0  0  0  0
  -27.2499  -23.3730   21.0114 H   0  0  0  0  0  0
  -27.3379  -22.8479   19.3916 H   0  0  0  0  0  0
  -28.1547  -24.8370   18.6896 H   0  0  0  0  0  0
  -29.5587  -24.6453   19.6303 H   0  0  0  0  0  0
  1 25  1  0  0  0
  1 30  2  0  0  0
  1 80  1  0  0  0
  2  3  1  0  0  0
  2 25  1  0  0  0
  2 85  1  0  0  0
  2 86  1  0  0  0
  3  4  1  0  0  0
  3 87  1  0  0  0
  3 88  1  0  0  0
  4  5  1  0  0  0
  4 89  1  0  0  0
  4 90  1  0  0  0
  5  6  1  0  0  0
  5 26  1  0  0  0
  5 91  1  0  0  0
  6 25  1  0  0  0
  6 92  1  0  0  0
  6 93  1  0  0  0
  7  8  2  0  0  0
  7 26  1  0  0  0
  7 29  1  0  0  0
  8  9  1  0  0  0
  8 22  1  0  0  0
  9 10  1  0  0  0
  9 27  2  0  0  0
 10 11  2  0  0  0
 10 15  1  0  0  0
 11 12  1  0  0  0
 11 94  1  0  0  0
 12 13  2  0  0  0
 12 95  1  0  0  0
 13 14  1  0  0  0
 13 31  1  0  0  0
 14 15  2  0  0  0
 14 96  1  0  0  0
 15 97  1  0  0  0
 16 17  2  0  0  0
 16 21  1  0  0  0
 16 31  1  0  0  0
 17 18  1  0  0  0
 17 98  1  0  0  0
 18 19  2  0  0  0
 18 99  1  0  0  0
 19 20  1  0  0  0
 19 24  1  0  0  0
 20 21  2  0  0  0
 20100  1  0  0  0
 21 23  1  0  0  0
 22 28  1  0  0  0
 22 32  2  0  0  0
 26 27  1  0  0  0
 28101  1  0  0  0
 28102  1  0  0  0
 29103  1  0  0  0
 29104  1  0  0  0
 33 34  1  0  0  0
 33 66  1  0  0  0
 33 70  2  0  0  0
 34 36  1  0  0  0
 34 59  1  0  0  0
 34105  1  0  0  0
 35 44  2  0  0  0
 35 45  1  0  0  0
 35 68  1  0  0  0
 36 56  1  0  0  0
 36106  1  0  0  0
 37 39  1  0  0  0
 37 47  1  0  0  0
 37 66  1  0  0  0
 37107  1  0  0  0
 38 43  2  0  0  0
 38 46  1  0  0  0
 38 47  1  0  0  0
 39 64  1  0  0  0
 39 67  2  0  0  0
 40 52  1  0  0  0
 40 53  2  0  0  0
 40 58  1  0  0  0
 41108  1  0  0  0
 41109  1  0  0  0
 41110  1  0  0  0
 41 48  1  0  0  0
 42 43  1  0  0  0
 42 66  1  0  0  0
 42111  1  0  0  0
 42112  1  0  0  0
 43 44  1  0  0  0
 44113  1  0  0  0
 45 46  2  0  0  0
 45114  1  0  0  0
 46115  1  0  0  0
 47116  1  0  0  0
 47117  1  0  0  0
 48 56  1  0  0  0
 48 65  1  0  0  0
 48118  1  0  0  0
 49 50  1  0  0  0
 49 53  1  0  0  0
 49 64  1  0  0  0
 49119  1  0  0  0
 50 51  1  0  0  0
 50120  1  0  0  0
 50121  1  0  0  0
 51 52  1  0  0  0
 51122  1  0  0  0
 51123  1  0  0  0
 52124  1  0  0  0
 52125  1  0  0  0
 53 54  1  0  0  0
 54 55  2  0  0  0
 54126  1  0  0  0
 55 57  1  0  0  0
 55127  1  0  0  0
 56 69  2  0  0  0
 57 58  2  0  0  0
 57128  1  0  0  0
 58129  1  0  0  0
 59 60  1  0  0  0
 59 61  1  0  0  0
 59 62  1  0  0  0
 60130  1  0  0  0
 60131  1  0  0  0
 60132  1  0  0  0
 61133  1  0  0  0
 61134  1  0  0  0
 61135  1  0  0  0
 62136  1  0  0  0
 62137  1  0  0  0
 62138  1  0  0  0
 63 65  1  0  0  0
 63139  1  0  0  0
 63140  1  0  0  0
 63141  1  0  0  0
 64142  1  0  0  0
 65143  1  0  0  0
 68 83  1  0  0  0
 71 73  2  0  0  0
 71 75  1  0  0  0
 71144  1  0  0  0
 72 75  2  0  0  0
 72 76  1  0  0  0
 72145  1  0  0  0
 73 74  1  0  0  0
 73 77  1  0  0  0
 74 76  2  0  0  0
 74 78  1  0  0  0
 75 82  1  0  0  0
 76 84  1  0  0  0
 77 80  1  0  0  0
 77146  1  0  0  0
 77147  1  0  0  0
 78 79  1  0  0  0
 78148  1  0  0  0
 78149  1  0  0  0
 79 80  1  0  0  0
 79150  1  0  0  0
 79151  1  0  0  0
 80152  1  0  0  0
 81 84  1  0  0  0
 81153  1  0  0  0
 81154  1  0  0  0
 81155  1  0  0  0
 82 83  1  0  0  0
 82156  1  0  0  0
 82157  1  0  0  0
 83158  1  0  0  0
 83159  1  0  0  0
M  ISO  4   1 100  68 101  80 100  83 101
M  END
> <chiral flag>
0

> <version>
0

> <s_m_source_file>
/data/baiqing/PycharmProjects/Reinvent-master-3.2/result/LINK_invent/BTK/process_docking_weight1_custom_sum_contain_oxygen_bond_distance_aromatic_linkinvent_7_9_3/rearranged_h_0156.sdf

> <i_m_source_file_index>
74

> <r_mmod_Potential_Energy-OPLS-2005>
603.950866699219

> <r_mmod_Stretch_Energy-OPLS-2005>
268.839752197266

> <r_mmod_Bend_Energy-OPLS-2005>
326.035705566406

> <r_mmod_Torsional_Energy-OPLS-2005>
202.811676025391

> <r_mmod_Improper_Torsional_Energy-OPLS-2005>
3.90677642822266

> <r_mmod_Van_der_Waal_Energy-OPLS-2005>
137.580154418945

> <r_mmod_Electrostatic_Energy-OPLS-2005>
-324.819091796875

> <r_mmod_Solvation_Energy-OPLS-2005>
-202.049179077148

> <b_mmod_Minimization_Converged-OPLS-2005>
0

> <r_mmod_RMS_Derivative-OPLS-2005>
2.60304737091064

$$$$
74
                    3D
 Structure written by MMmdl.
169178  0  0  1  0            999 V2000
  -30.6957  -14.5231   20.5270 C   0  0  0  0  0  0
  -30.4178  -12.3336   19.4251 C   0  0  0  0  0  0
  -29.4929  -12.4983   18.2028 C   0  0  0  0  0  0
  -28.0149  -12.3534   18.6177 C   0  0  0  0  0  0
  -27.6507  -13.2147   19.8577 C   0  0  2  0  0  0
  -28.6957  -13.0538   20.9830 C   0  0  0  0  0  0
  -25.2553  -13.8175   20.5673 C   0  0  0  0  0  0
  -24.1823  -13.0440   20.9186 C   0  0  0  0  0  0
  -24.6391  -11.6913   20.8738 C   0  0  0  0  0  0
  -23.9061  -10.4299   21.0412 C   0  0  0  0  0  0
  -24.3616   -9.4216   21.9185 C   0  0  0  0  0  0
  -23.6300   -8.2243   22.0755 C   0  0  0  0  0  0
  -22.4278   -8.0281   21.3543 C   0  0  0  0  0  0
  -21.9913   -9.0250   20.4644 C   0  0  0  0  0  0
  -22.7235  -10.2135   20.3057 C   0  0  0  0  0  0
  -21.6851   -6.0737   22.5283 C   0  0  0  0  0  0
  -21.4010   -6.5643   23.8216 C   0  0  0  0  0  0
  -21.3662   -5.6794   24.9180 C   0  0  0  0  0  0
  -21.6047   -4.3058   24.7227 C   0  0  0  0  0  0
  -21.8818   -3.8148   23.4348 C   0  0  0  0  0  0
  -21.9191   -4.6966   22.3404 C   0  0  0  0  0  0
  -22.7847  -13.5231   21.1855 C   0  0  0  0  0  0
  -22.1661   -4.2152   21.0982 F   0  0  0  0  0  0
  -21.5632   -3.4542   25.7739 F   0  0  0  0  0  0
  -30.0155  -13.3503   20.4101 N   0  0  0  0  0  0
  -26.2973  -12.9353   20.3292 N   0  0  0  0  0  0
  -25.9313  -11.6510   20.5738 N   0  0  0  0  0  0
  -22.0484  -12.8228   22.0409 N   0  0  0  0  0  0
  -25.4248  -15.1899   20.4088 N   0  0  0  0  0  0
  -31.8853  -14.6149   20.2246 O   0  0  0  0  0  0
  -21.6641   -6.8880   21.4245 O   0  0  0  0  0  0
  -22.3538  -14.5537   20.6702 O   0  0  0  0  0  0
  -24.6196  -31.8650   23.2077 C   0  0  0  0  0  0
  -25.9081  -32.4801   23.8375 C   0  0  1  0  0  0
  -27.2249  -27.3851   20.1080 C   0  0  0  0  0  0
  -25.5930  -33.8602   24.2310 N   0  0  0  0  0  0
  -23.4072  -30.4913   21.5493 C   0  0  2  0  0  0
  -24.8495  -28.9484   20.1209 C   0  0  0  0  0  0
  -22.7425  -29.4665   22.4973 C   0  0  0  0  0  0
  -18.0283  -28.1382   22.8497 C   0  0  0  0  0  0
  -24.1485  -36.7304   23.2636 C   0  0  0  0  0  0
  -25.9417  -30.8173   21.3659 C   0  0  0  0  0  0
  -26.0147  -29.4476   20.7148 C   0  0  0  0  0  0
  -27.2065  -28.6790   20.6946 C   0  0  0  0  0  0
  -26.0331  -26.9095   19.5178 C   0  0  0  0  0  0
  -24.8557  -27.6812   19.5177 C   0  0  0  0  0  0
  -23.6164  -29.8241   20.1648 C   0  0  0  0  0  0
  -25.4114  -36.3101   24.0331 C   0  0  1  0  0  0
  -20.5873  -28.3684   23.1311 C   0  0  2  0  0  0
  -20.6781  -26.9417   22.5416 C   0  0  0  0  0  0
  -19.5756  -26.6393   21.5215 C   0  0  0  0  0  0
  -18.1933  -26.7931   22.1627 C   0  0  0  0  0  0
  -19.1528  -28.8851   23.2899 C   0  0  0  0  0  0
  -18.9456  -30.1457   23.8910 C   0  0  0  0  0  0
  -17.6453  -30.6585   24.0573 C   0  0  0  0  0  0
  -25.9048  -34.9467   23.5117 C   0  0  0  0  0  0
  -16.5347  -29.9087   23.6325 C   0  0  0  0  0  0
  -16.7269  -28.6505   23.0352 C   0  0  0  0  0  0
  -26.4495  -31.6585   25.0719 C   0  0  0  0  0  0
  -25.3751  -31.3697   26.1456 C   0  0  0  0  0  0
  -27.0324  -30.3020   24.6127 C   0  0  0  0  0  0
  -27.6072  -32.4301   25.7482 C   0  0  0  0  0  0
  -27.5576  -37.1804   24.8462 C   0  0  0  0  0  0
  -21.4151  -29.3042   22.3712 N   0  0  0  0  0  0
  -26.4289  -37.3797   23.9411 N   0  0  0  0  0  0
  -24.6749  -31.0734   22.0984 N   0  0  0  0  0  0
  -23.4184  -28.8211   23.3030 O   0  0  0  0  0  0
  -28.4061  -26.6575   20.0538 O   0  0  0  0  0  0
  -26.5598  -34.8919   22.4669 O   0  0  0  0  0  0
  -23.5386  -32.1407   23.7468 O   0  0  0  0  0  0
  -29.4746  -20.2895   18.2249 C   0  0  0  0  0  0
  -29.2039  -20.4746   19.6061 C   0  0  0  0  0  0
  -30.0288  -19.0748   17.7454 C   0  0  0  0  0  0
  -29.4482  -19.3752   20.4991 C   0  0  0  0  0  0
  -30.3926  -18.0519   18.6601 C   0  0  0  0  0  0
  -30.0523  -18.1531   20.0387 C   0  0  0  0  0  0
  -29.2375  -21.4443   17.2573 C   0  0  0  0  0  0
  -28.6379  -21.8511   20.1045 C   0  0  0  0  0  0
  -28.2553  -22.4821   17.7792 C   0  0  0  0  0  0
  -30.2789  -18.8935   16.2434 C   0  0  0  0  0  0
  -29.0941  -19.5141   21.9791 C   0  0  0  0  0  0
  -31.2269  -16.8731   18.1664 C   0  0  0  0  0  0
  -30.4589  -17.0082   21.0299 C   0  0  0  0  0  0
  -27.8486  -24.2169   19.4474 C   0  0  0  0  0  0
  -28.4434  -25.2544   20.4510 C   0  0  0  0  0  0
  -29.9573  -15.6268   20.7991 N   0  0  0  0  0  0
  -28.6566  -22.9819   19.1125 N   0  3  1  0  0  0
  -31.4614  -12.4322   19.1229 H   0  0  0  0  0  0
  -30.3211  -11.3337   19.8499 H   0  0  0  0  0  0
  -29.7424  -11.7625   17.4369 H   0  0  0  0  0  0
  -29.6525  -13.4773   17.7477 H   0  0  0  0  0  0
  -27.8359  -11.2995   18.8325 H   0  0  0  0  0  0
  -27.3633  -12.6047   17.7797 H   0  0  0  0  0  0
  -27.6755  -14.2532   19.5273 H   0  0  0  0  0  0
  -28.6837  -12.0378   21.3802 H   0  0  0  0  0  0
  -28.4648  -13.7091   21.8246 H   0  0  0  0  0  0
  -25.2766   -9.5695   22.4755 H   0  0  0  0  0  0
  -24.0015   -7.4636   22.7474 H   0  0  0  0  0  0
  -21.0841   -8.8765   19.8949 H   0  0  0  0  0  0
  -22.3692  -10.9670   19.6164 H   0  0  0  0  0  0
  -21.1996   -7.6149   23.9721 H   0  0  0  0  0  0
  -21.1489   -6.0525   25.9084 H   0  0  0  0  0  0
  -22.0592   -2.7610   23.2845 H   0  0  0  0  0  0
  -22.4091  -11.9891   22.4810 H   0  0  0  0  0  0
  -21.1098  -13.1253   22.2591 H   0  0  0  0  0  0
  -24.6536  -15.8402   20.5172 H   0  0  0  0  0  0
  -26.2697  -15.6337   20.0718 H   0  0  0  0  0  0
  -26.7156  -32.5490   23.1139 H   0  0  0  0  0  0
  -25.0125  -33.9760   25.0486 H   0  0  0  0  0  0
  -22.6973  -31.3099   21.4098 H   0  0  0  0  0  0
  -23.3745  -35.9635   23.3311 H   0  0  0  0  0  0
  -24.3576  -36.8905   22.2044 H   0  0  0  0  0  0
  -23.7227  -37.6513   23.6641 H   0  0  0  0  0  0
  -26.0602  -31.5829   20.5977 H   0  0  0  0  0  0
  -26.8281  -30.8675   21.9869 H   0  0  0  0  0  0
  -28.1109  -29.0733   21.1375 H   0  0  0  0  0  0
  -25.9840  -25.9538   19.0250 H   0  0  0  0  0  0
  -23.9614  -27.2940   19.0483 H   0  0  0  0  0  0
  -23.7315  -30.5981   19.4048 H   0  0  0  0  0  0
  -22.7371  -29.2497   19.8667 H   0  0  0  0  0  0
  -25.1288  -36.1966   25.0824 H   0  0  0  0  0  0
  -20.9970  -28.3252   24.1430 H   0  0  0  0  0  0
  -20.5707  -26.2288   23.3609 H   0  0  0  0  0  0
  -21.6650  -26.7470   22.1191 H   0  0  0  0  0  0
  -19.6916  -25.6306   21.1237 H   0  0  0  0  0  0
  -19.6691  -27.3220   20.6758 H   0  0  0  0  0  0
  -17.4208  -26.6698   21.4020 H   0  0  0  0  0  0
  -18.0320  -26.0066   22.9016 H   0  0  0  0  0  0
  -19.7931  -30.7276   24.2276 H   0  0  0  0  0  0
  -17.5009  -31.6265   24.5177 H   0  0  0  0  0  0
  -15.5350  -30.3000   23.7633 H   0  0  0  0  0  0
  -15.8676  -28.0830   22.7054 H   0  0  0  0  0  0
  -24.5950  -30.7017   25.7794 H   0  0  0  0  0  0
  -24.8916  -32.2850   26.4873 H   0  0  0  0  0  0
  -25.8100  -30.8893   27.0228 H   0  0  0  0  0  0
  -26.2874  -29.6788   24.1172 H   0  0  0  0  0  0
  -27.4066  -29.7261   25.4601 H   0  0  0  0  0  0
  -27.8726  -30.4326   23.9306 H   0  0  0  0  0  0
  -27.2700  -33.3604   26.2063 H   0  0  0  0  0  0
  -28.3880  -32.6844   25.0303 H   0  0  0  0  0  0
  -28.0746  -31.8418   26.5390 H   0  0  0  0  0  0
  -28.2596  -38.0103   24.7530 H   0  0  0  0  0  0
  -28.1072  -36.2635   24.6268 H   0  0  0  0  0  0
  -27.2296  -37.1430   25.8866 H   0  0  0  0  0  0
  -20.9313  -29.8749   21.6923 H   0  0  0  0  0  0
  -26.0175  -38.2872   24.1430 H   0  0  0  0  0  0
  -28.8260  -21.1038   16.3113 H   0  0  0  0  0  0
  -30.1974  -21.9095   17.0307 H   0  0  0  0  0  0
  -29.1988  -22.1762   20.9811 H   0  0  0  0  0  0
  -27.6090  -21.6866   20.4270 H   0  0  0  0  0  0
  -27.2523  -22.0558   17.8355 H   0  0  0  0  0  0
  -28.2106  -23.2904   17.0476 H   0  0  0  0  0  0
  -29.4562  -19.2616   15.6357 H   0  0  0  0  0  0
  -30.3553  -17.8514   15.9400 H   0  0  0  0  0  0
  -31.1900  -19.4097   15.9405 H   0  0  0  0  0  0
  -28.5410  -20.4167   22.2278 H   0  0  0  0  0  0
  -29.9989  -19.5150   22.5876 H   0  0  0  0  0  0
  -28.4653  -18.6825   22.2985 H   0  0  0  0  0  0
  -31.7879  -17.0768   17.2573 H   0  0  0  0  0  0
  -30.6058  -15.9926   18.0003 H   0  0  0  0  0  0
  -32.0095  -16.6423   18.8834 H   0  0  0  0  0  0
  -30.1678  -17.2423   22.0504 H   0  0  0  0  0  0
  -31.5488  -17.0025   21.0803 H   0  0  0  0  0  0
  -27.7227  -24.7724   18.5189 H   0  0  0  0  0  0
  -26.8438  -23.9269   19.7589 H   0  0  0  0  0  0
  -29.4969  -25.0217   20.6082 H   0  0  0  0  0  0
  -27.9740  -25.1423   21.4291 H   0  0  0  0  0  0
  -28.9730  -15.4776   20.9552 H   0  0  0  0  0  0
  -29.6224  -23.2627   19.0181 H   0  0  0  0  0  0
  1 25  1  0  0  0
  1 30  2  0  0  0
  1 86  1  0  0  0
  2  3  1  0  0  0
  2 25  1  0  0  0
  2 88  1  0  0  0
  2 89  1  0  0  0
  3  4  1  0  0  0
  3 90  1  0  0  0
  3 91  1  0  0  0
  4  5  1  0  0  0
  4 92  1  0  0  0
  4 93  1  0  0  0
  5  6  1  0  0  0
  5 26  1  0  0  0
  5 94  1  0  0  0
  6 25  1  0  0  0
  6 95  1  0  0  0
  6 96  1  0  0  0
  7  8  2  0  0  0
  7 26  1  0  0  0
  7 29  1  0  0  0
  8  9  1  0  0  0
  8 22  1  0  0  0
  9 10  1  0  0  0
  9 27  2  0  0  0
 10 11  2  0  0  0
 10 15  1  0  0  0
 11 12  1  0  0  0
 11 97  1  0  0  0
 12 13  2  0  0  0
 12 98  1  0  0  0
 13 14  1  0  0  0
 13 31  1  0  0  0
 14 15  2  0  0  0
 14 99  1  0  0  0
 15100  1  0  0  0
 16 17  2  0  0  0
 16 21  1  0  0  0
 16 31  1  0  0  0
 17 18  1  0  0  0
 17101  1  0  0  0
 18 19  2  0  0  0
 18102  1  0  0  0
 19 20  1  0  0  0
 19 24  1  0  0  0
 20 21  2  0  0  0
 20103  1  0  0  0
 21 23  1  0  0  0
 22 28  1  0  0  0
 22 32  2  0  0  0
 26 27  1  0  0  0
 28104  1  0  0  0
 28105  1  0  0  0
 29106  1  0  0  0
 29107  1  0  0  0
 33 34  1  0  0  0
 33 66  1  0  0  0
 33 70  2  0  0  0
 34 36  1  0  0  0
 34 59  1  0  0  0
 34108  1  0  0  0
 35 44  2  0  0  0
 35 45  1  0  0  0
 35 68  1  0  0  0
 36 56  1  0  0  0
 36109  1  0  0  0
 37 39  1  0  0  0
 37 47  1  0  0  0
 37 66  1  0  0  0
 37110  1  0  0  0
 38 43  2  0  0  0
 38 46  1  0  0  0
 38 47  1  0  0  0
 39 64  1  0  0  0
 39 67  2  0  0  0
 40 52  1  0  0  0
 40 53  2  0  0  0
 40 58  1  0  0  0
 41111  1  0  0  0
 41112  1  0  0  0
 41113  1  0  0  0
 41 48  1  0  0  0
 42 43  1  0  0  0
 42 66  1  0  0  0
 42114  1  0  0  0
 42115  1  0  0  0
 43 44  1  0  0  0
 44116  1  0  0  0
 45 46  2  0  0  0
 45117  1  0  0  0
 46118  1  0  0  0
 47119  1  0  0  0
 47120  1  0  0  0
 48 56  1  0  0  0
 48 65  1  0  0  0
 48121  1  0  0  0
 49 50  1  0  0  0
 49 53  1  0  0  0
 49 64  1  0  0  0
 49122  1  0  0  0
 50 51  1  0  0  0
 50123  1  0  0  0
 50124  1  0  0  0
 51 52  1  0  0  0
 51125  1  0  0  0
 51126  1  0  0  0
 52127  1  0  0  0
 52128  1  0  0  0
 53 54  1  0  0  0
 54 55  2  0  0  0
 54129  1  0  0  0
 55 57  1  0  0  0
 55130  1  0  0  0
 56 69  2  0  0  0
 57 58  2  0  0  0
 57131  1  0  0  0
 58132  1  0  0  0
 59 60  1  0  0  0
 59 61  1  0  0  0
 59 62  1  0  0  0
 60133  1  0  0  0
 60134  1  0  0  0
 60135  1  0  0  0
 61136  1  0  0  0
 61137  1  0  0  0
 61138  1  0  0  0
 62139  1  0  0  0
 62140  1  0  0  0
 62141  1  0  0  0
 63 65  1  0  0  0
 63142  1  0  0  0
 63143  1  0  0  0
 63144  1  0  0  0
 64145  1  0  0  0
 65146  1  0  0  0
 68 85  1  0  0  0
 71 72  1  0  0  0
 71 73  2  0  0  0
 71 77  1  0  0  0
 72 74  2  0  0  0
 72 78  1  0  0  0
 73 75  1  0  0  0
 73 80  1  0  0  0
 74 76  1  0  0  0
 74 81  1  0  0  0
 75 76  2  0  0  0
 75 82  1  0  0  0
 76 83  1  0  0  0
 77 79  1  0  0  0
 77147  1  0  0  0
 77148  1  0  0  0
 78 87  1  0  0  0
 78149  1  0  0  0
 78150  1  0  0  0
 79 87  1  0  0  0
 79151  1  0  0  0
 79152  1  0  0  0
 80153  1  0  0  0
 80154  1  0  0  0
 80155  1  0  0  0
 81156  1  0  0  0
 81157  1  0  0  0
 81158  1  0  0  0
 82159  1  0  0  0
 82160  1  0  0  0
 82161  1  0  0  0
 83 86  1  0  0  0
 83162  1  0  0  0
 83163  1  0  0  0
 84 85  1  0  0  0
 84164  1  0  0  0
 84165  1  0  0  0
 84 87  1  0  0  0
 85166  1  0  0  0
 85167  1  0  0  0
 86168  1  0  0  0
 87169  1  0  0  0
M  CHG  1  87   1
M  ISO  4   1 100  68 101  85 101  86 100
M  END
> <chiral flag>
0

> <version>
0

> <s_m_source_file>
/data/baiqing/PycharmProjects/Reinvent-master-3.2/result/LINK_invent/BTK/process_docking_weight1_custom_sum_contain_oxygen_bond_distance_aromatic_linkinvent_7_9_3/rearranged_h_0156.sdf

> <i_m_source_file_index>
75

> <r_mmod_Potential_Energy-OPLS-2005>
-120.161880493164

> <r_mmod_Stretch_Energy-OPLS-2005>
63.1283912658691

> <r_mmod_Bend_Energy-OPLS-2005>
130.704055786133

> <r_mmod_Torsional_Energy-OPLS-2005>
244.785415649414

> <r_mmod_Improper_Torsional_Energy-OPLS-2005>
5.05308198928833

> <r_mmod_Van_der_Waal_Energy-OPLS-2005>
178.778549194336

> <r_mmod_Electrostatic_Energy-OPLS-2005>
-342.629852294922

> <r_mmod_Solvation_Energy-OPLS-2005>
-424.331359863281

> <b_mmod_Minimization_Converged-OPLS-2005>
0

> <r_mmod_RMS_Derivative-OPLS-2005>
1.43836140632629

$$$$
75
                    3D
 Structure written by MMmdl.
165174  0  0  1  0            999 V2000
  -30.6874  -14.6997   20.4709 C   0  0  0  0  0  0
  -30.4109  -12.4360   19.4635 C   0  0  0  0  0  0
  -29.4945  -12.4962   18.2254 C   0  0  0  0  0  0
  -28.0215  -12.3344   18.6445 C   0  0  0  0  0  0
  -27.6366  -13.2365   19.8495 C   0  0  2  0  0  0
  -28.6881  -13.1748   20.9777 C   0  0  0  0  0  0
  -25.2490  -13.8208   20.5727 C   0  0  0  0  0  0
  -24.1779  -13.0445   20.9209 C   0  0  0  0  0  0
  -24.6377  -11.6926   20.8755 C   0  0  0  0  0  0
  -23.9054  -10.4294   21.0408 C   0  0  0  0  0  0
  -24.3606   -9.4207   21.9184 C   0  0  0  0  0  0
  -23.6285   -8.2238   22.0748 C   0  0  0  0  0  0
  -22.4266   -8.0275   21.3542 C   0  0  0  0  0  0
  -21.9899   -9.0248   20.4643 C   0  0  0  0  0  0
  -22.7226  -10.2130   20.3056 C   0  0  0  0  0  0
  -21.6850   -6.0727   22.5278 C   0  0  0  0  0  0
  -21.4012   -6.5633   23.8211 C   0  0  0  0  0  0
  -21.3661   -5.6784   24.9176 C   0  0  0  0  0  0
  -21.6043   -4.3050   24.7226 C   0  0  0  0  0  0
  -21.8817   -3.8139   23.4345 C   0  0  0  0  0  0
  -21.9189   -4.6952   22.3402 C   0  0  0  0  0  0
  -22.7805  -13.5229   21.1862 C   0  0  0  0  0  0
  -22.1660   -4.2136   21.0980 F   0  0  0  0  0  0
  -21.5632   -3.4535   25.7739 F   0  0  0  0  0  0
  -29.9772  -13.5239   20.3730 N   0  0  0  0  0  0
  -26.2918  -12.9426   20.3320 N   0  0  0  0  0  0
  -25.9311  -11.6560   20.5771 N   0  0  0  0  0  0
  -22.0455  -12.8232   22.0432 N   0  0  0  0  0  0
  -25.4200  -15.1930   20.4187 N   0  0  0  0  0  0
  -31.8955  -14.6589   20.2167 O   0  0  0  0  0  0
  -21.6636   -6.8869   21.4238 O   0  0  0  0  0  0
  -22.3499  -14.5537   20.6708 O   0  0  0  0  0  0
  -24.6333  -31.8589   23.2058 C   0  0  0  0  0  0
  -25.9169  -32.4757   23.8384 C   0  0  1  0  0  0
  -27.1928  -27.2628   20.1068 C   0  0  0  0  0  0
  -25.5986  -33.8568   24.2293 N   0  0  0  0  0  0
  -23.4275  -30.4907   21.5498 C   0  0  2  0  0  0
  -24.8677  -28.9576   20.1061 C   0  0  0  0  0  0
  -22.7510  -29.4635   22.4905 C   0  0  0  0  0  0
  -18.0299  -28.1384   22.8470 C   0  0  0  0  0  0
  -24.1491  -36.7282   23.2632 C   0  0  0  0  0  0
  -25.9795  -30.7684   21.3928 C   0  0  0  0  0  0
  -26.0455  -29.3977   20.7241 C   0  0  0  0  0  0
  -27.2121  -28.5620   20.7213 C   0  0  0  0  0  0
  -25.9910  -26.9211   19.4333 C   0  0  0  0  0  0
  -24.8459  -27.7259   19.4511 C   0  0  0  0  0  0
  -23.6435  -29.8456   20.1603 C   0  0  0  0  0  0
  -25.4112  -36.3067   24.0328 C   0  0  1  0  0  0
  -20.5902  -28.3705   23.1243 C   0  0  2  0  0  0
  -20.6785  -26.9424   22.5390 C   0  0  0  0  0  0
  -19.5764  -26.6382   21.5196 C   0  0  0  0  0  0
  -18.1944  -26.7926   22.1609 C   0  0  0  0  0  0
  -19.1551  -28.8861   23.2851 C   0  0  0  0  0  0
  -18.9468  -30.1457   23.8874 C   0  0  0  0  0  0
  -17.6468  -30.6584   24.0554 C   0  0  0  0  0  0
  -25.9070  -34.9437   23.5099 C   0  0  0  0  0  0
  -16.5359  -29.9077   23.6335 C   0  0  0  0  0  0
  -16.7285  -28.6498   23.0347 C   0  0  0  0  0  0
  -26.4518  -31.6576   25.0775 C   0  0  0  0  0  0
  -25.3727  -31.3765   26.1488 C   0  0  0  0  0  0
  -27.0350  -30.2966   24.6312 C   0  0  0  0  0  0
  -27.6075  -32.4309   25.7553 C   0  0  0  0  0  0
  -27.5585  -37.1788   24.8449 C   0  0  0  0  0  0
  -21.4219  -29.3058   22.3636 N   0  0  0  0  0  0
  -26.4278  -37.3770   23.9419 N   0  0  0  0  0  0
  -24.6989  -31.0563   22.1041 N   0  0  0  0  0  0
  -23.4215  -28.8152   23.2980 O   0  0  0  0  0  0
  -28.2398  -26.3044   20.1859 O   0  0  0  0  0  0
  -26.5614  -34.8908   22.4653 O   0  0  0  0  0  0
  -23.5478  -32.1422   23.7344 O   0  0  0  0  0  0
  -29.2183  -21.3004   19.1958 C   0  0  0  0  0  0
  -28.8793  -22.6785   19.0517 C   0  0  0  0  0  0
  -29.3042  -20.6534   20.4593 C   0  0  0  0  0  0
  -28.5963  -23.5331   20.1526 C   0  0  0  0  0  0
  -29.0506  -21.5088   21.5780 C   0  0  0  0  0  0
  -28.7181  -22.9108   21.4327 C   0  0  0  0  0  0
  -28.7618  -18.1030   21.2788 C   0  0  0  0  0  0
  -30.1039  -18.3738   19.3065 C   0  0  0  0  0  0
  -29.2791  -16.6041   21.4704 C   0  0  0  0  0  0
  -30.7573  -16.9688   19.5309 C   0  0  0  0  0  0
  -29.7414  -19.1198   20.6103 C   0  0  0  0  0  0
  -27.9468  -20.9399   23.5843 C   0  0  0  0  0  0
  -29.4764  -24.5784   22.8836 C   0  0  0  0  0  0
  -27.8189  -24.8927   19.8846 C   0  0  0  0  0  0
  -30.0490  -15.9467   20.3677 N   0  0  0  0  0  0
  -29.1520  -20.9451   22.8263 O   0  0  0  0  0  0
  -28.4530  -23.6484   22.5577 O   0  0  0  0  0  0
  -31.4552  -12.5216   19.1580 H   0  0  0  0  0  0
  -30.3298  -11.4668   19.9576 H   0  0  0  0  0  0
  -29.7695  -11.7163   17.5142 H   0  0  0  0  0  0
  -29.6283  -13.4481   17.7094 H   0  0  0  0  0  0
  -27.8724  -11.2863   18.9060 H   0  0  0  0  0  0
  -27.3618  -12.5309   17.7985 H   0  0  0  0  0  0
  -27.6296  -14.2582   19.4700 H   0  0  0  0  0  0
  -28.7278  -12.1777   21.4169 H   0  0  0  0  0  0
  -28.4342  -13.8459   21.7966 H   0  0  0  0  0  0
  -25.2745   -9.5692   22.4768 H   0  0  0  0  0  0
  -23.9994   -7.4627   22.7467 H   0  0  0  0  0  0
  -21.0825   -8.8765   19.8957 H   0  0  0  0  0  0
  -22.3673  -10.9669   19.6172 H   0  0  0  0  0  0
  -21.2007   -7.6138   23.9719 H   0  0  0  0  0  0
  -21.1491   -6.0512   25.9081 H   0  0  0  0  0  0
  -22.0595   -2.7599   23.2846 H   0  0  0  0  0  0
  -22.4063  -11.9893   22.4819 H   0  0  0  0  0  0
  -21.1078  -13.1271   22.2645 H   0  0  0  0  0  0
  -24.6566  -15.8494   20.5392 H   0  0  0  0  0  0
  -26.2799  -15.6359   20.1204 H   0  0  0  0  0  0
  -26.7244  -32.5383   23.1131 H   0  0  0  0  0  0
  -25.0150  -33.9717   25.0450 H   0  0  0  0  0  0
  -22.7242  -31.3148   21.4141 H   0  0  0  0  0  0
  -23.3759  -35.9605   23.3266 H   0  0  0  0  0  0
  -24.3594  -36.8931   22.2055 H   0  0  0  0  0  0
  -23.7230  -37.6474   23.6665 H   0  0  0  0  0  0
  -26.1320  -31.5345   20.6311 H   0  0  0  0  0  0
  -26.8519  -30.8011   22.0336 H   0  0  0  0  0  0
  -28.1056  -28.8863   21.2361 H   0  0  0  0  0  0
  -25.8626  -26.0008   18.8868 H   0  0  0  0  0  0
  -23.9497  -27.3891   18.9480 H   0  0  0  0  0  0
  -23.7740  -30.6319   19.4158 H   0  0  0  0  0  0
  -22.7582  -29.2895   19.8464 H   0  0  0  0  0  0
  -25.1283  -36.1911   25.0818 H   0  0  0  0  0  0
  -20.9990  -28.3278   24.1364 H   0  0  0  0  0  0
  -20.5677  -26.2322   23.3597 H   0  0  0  0  0  0
  -21.6649  -26.7442   22.1186 H   0  0  0  0  0  0
  -19.6928  -25.6288   21.1244 H   0  0  0  0  0  0
  -19.6706  -27.3172   20.6710 H   0  0  0  0  0  0
  -17.4211  -26.6664   21.4013 H   0  0  0  0  0  0
  -18.0356  -26.0072   22.9013 H   0  0  0  0  0  0
  -19.7942  -30.7271   24.2239 H   0  0  0  0  0  0
  -17.5025  -31.6261   24.5161 H   0  0  0  0  0  0
  -15.5357  -30.2966   23.7684 H   0  0  0  0  0  0
  -15.8686  -28.0817   22.7063 H   0  0  0  0  0  0
  -24.5866  -30.7161   25.7811 H   0  0  0  0  0  0
  -24.8968  -32.2957   26.4919 H   0  0  0  0  0  0
  -25.8013  -30.8917   27.0269 H   0  0  0  0  0  0
  -26.2950  -29.6717   24.1299 H   0  0  0  0  0  0
  -27.3936  -29.7235   25.4875 H   0  0  0  0  0  0
  -27.8879  -30.4195   23.9637 H   0  0  0  0  0  0
  -27.2686  -33.3604   26.2145 H   0  0  0  0  0  0
  -28.3890  -32.6877   25.0390 H   0  0  0  0  0  0
  -28.0741  -31.8426   26.5467 H   0  0  0  0  0  0
  -28.2548  -38.0137   24.7545 H   0  0  0  0  0  0
  -28.1131  -36.2668   24.6188 H   0  0  0  0  0  0
  -27.2322  -37.1328   25.8854 H   0  0  0  0  0  0
  -20.9402  -29.8809   21.6869 H   0  0  0  0  0  0
  -26.0151  -38.2835   24.1443 H   0  0  0  0  0  0
  -29.3935  -20.7339   18.2933 H   0  0  0  0  0  0
  -28.7628  -23.0648   18.0481 H   0  0  0  0  0  0
  -28.4655  -18.4793   22.2570 H   0  0  0  0  0  0
  -27.8416  -18.0809   20.6938 H   0  0  0  0  0  0
  -29.2190  -18.2686   18.6763 H   0  0  0  0  0  0
  -30.8113  -18.9750   18.7338 H   0  0  0  0  0  0
  -28.4065  -15.9967   21.7030 H   0  0  0  0  0  0
  -29.9085  -16.5697   22.3613 H   0  0  0  0  0  0
  -31.7387  -17.1478   19.9741 H   0  0  0  0  0  0
  -30.9504  -16.5326   18.5493 H   0  0  0  0  0  0
  -30.6413  -19.1538   21.2267 H   0  0  0  0  0  0
  -27.9801  -20.1218   24.3033 H   0  0  0  0  0  0
  -27.0665  -20.7873   22.9567 H   0  0  0  0  0  0
  -27.8195  -21.8626   24.1488 H   0  0  0  0  0  0
  -29.2002  -25.1251   23.7851 H   0  0  0  0  0  0
  -29.6414  -25.3083   22.0917 H   0  0  0  0  0  0
  -30.4207  -24.0683   23.0784 H   0  0  0  0  0  0
  -26.8714  -24.7145   20.3966 H   0  0  0  0  0  0
  -27.6081  -24.8673   18.8153 H   0  0  0  0  0  0
  1 25  1  0  0  0
  1 30  2  0  0  0
  1 85  1  0  0  0
  2  3  1  0  0  0
  2 25  1  0  0  0
  2 88  1  0  0  0
  2 89  1  0  0  0
  3  4  1  0  0  0
  3 90  1  0  0  0
  3 91  1  0  0  0
  4  5  1  0  0  0
  4 92  1  0  0  0
  4 93  1  0  0  0
  5  6  1  0  0  0
  5 26  1  0  0  0
  5 94  1  0  0  0
  6 25  1  0  0  0
  6 95  1  0  0  0
  6 96  1  0  0  0
  7  8  2  0  0  0
  7 26  1  0  0  0
  7 29  1  0  0  0
  8  9  1  0  0  0
  8 22  1  0  0  0
  9 10  1  0  0  0
  9 27  2  0  0  0
 10 11  2  0  0  0
 10 15  1  0  0  0
 11 12  1  0  0  0
 11 97  1  0  0  0
 12 13  2  0  0  0
 12 98  1  0  0  0
 13 14  1  0  0  0
 13 31  1  0  0  0
 14 15  2  0  0  0
 14 99  1  0  0  0
 15100  1  0  0  0
 16 17  2  0  0  0
 16 21  1  0  0  0
 16 31  1  0  0  0
 17 18  1  0  0  0
 17101  1  0  0  0
 18 19  2  0  0  0
 18102  1  0  0  0
 19 20  1  0  0  0
 19 24  1  0  0  0
 20 21  2  0  0  0
 20103  1  0  0  0
 21 23  1  0  0  0
 22 28  1  0  0  0
 22 32  2  0  0  0
 26 27  1  0  0  0
 28104  1  0  0  0
 28105  1  0  0  0
 29106  1  0  0  0
 29107  1  0  0  0
 33 34  1  0  0  0
 33 66  1  0  0  0
 33 70  2  0  0  0
 34 36  1  0  0  0
 34 59  1  0  0  0
 34108  1  0  0  0
 35 44  2  0  0  0
 35 45  1  0  0  0
 35 68  1  0  0  0
 36 56  1  0  0  0
 36109  1  0  0  0
 37 39  1  0  0  0
 37 47  1  0  0  0
 37 66  1  0  0  0
 37110  1  0  0  0
 38 43  2  0  0  0
 38 46  1  0  0  0
 38 47  1  0  0  0
 39 64  1  0  0  0
 39 67  2  0  0  0
 40 52  1  0  0  0
 40 53  2  0  0  0
 40 58  1  0  0  0
 41111  1  0  0  0
 41112  1  0  0  0
 41113  1  0  0  0
 41 48  1  0  0  0
 42 43  1  0  0  0
 42 66  1  0  0  0
 42114  1  0  0  0
 42115  1  0  0  0
 43 44  1  0  0  0
 44116  1  0  0  0
 45 46  2  0  0  0
 45117  1  0  0  0
 46118  1  0  0  0
 47119  1  0  0  0
 47120  1  0  0  0
 48 56  1  0  0  0
 48 65  1  0  0  0
 48121  1  0  0  0
 49 50  1  0  0  0
 49 53  1  0  0  0
 49 64  1  0  0  0
 49122  1  0  0  0
 50 51  1  0  0  0
 50123  1  0  0  0
 50124  1  0  0  0
 51 52  1  0  0  0
 51125  1  0  0  0
 51126  1  0  0  0
 52127  1  0  0  0
 52128  1  0  0  0
 53 54  1  0  0  0
 54 55  2  0  0  0
 54129  1  0  0  0
 55 57  1  0  0  0
 55130  1  0  0  0
 56 69  2  0  0  0
 57 58  2  0  0  0
 57131  1  0  0  0
 58132  1  0  0  0
 59 60  1  0  0  0
 59 61  1  0  0  0
 59 62  1  0  0  0
 60133  1  0  0  0
 60134  1  0  0  0
 60135  1  0  0  0
 61136  1  0  0  0
 61137  1  0  0  0
 61138  1  0  0  0
 62139  1  0  0  0
 62140  1  0  0  0
 62141  1  0  0  0
 63 65  1  0  0  0
 63142  1  0  0  0
 63143  1  0  0  0
 63144  1  0  0  0
 64145  1  0  0  0
 65146  1  0  0  0
 68 84  1  0  0  0
 71 72  2  0  0  0
 71 73  1  0  0  0
 71147  1  0  0  0
 72 74  1  0  0  0
 72148  1  0  0  0
 73 75  2  0  0  0
 73 81  1  0  0  0
 74 76  2  0  0  0
 74 84  1  0  0  0
 75 76  1  0  0  0
 75 86  1  0  0  0
 76 87  1  0  0  0
 77 79  1  0  0  0
 77 81  1  0  0  0
 77149  1  0  0  0
 77150  1  0  0  0
 78 80  1  0  0  0
 78 81  1  0  0  0
 78151  1  0  0  0
 78152  1  0  0  0
 79 85  1  0  0  0
 79153  1  0  0  0
 79154  1  0  0  0
 80 85  1  0  0  0
 80155  1  0  0  0
 80156  1  0  0  0
 81157  1  0  0  0
 82 86  1  0  0  0
 82158  1  0  0  0
 82159  1  0  0  0
 82160  1  0  0  0
 83 87  1  0  0  0
 83161  1  0  0  0
 83162  1  0  0  0
 83163  1  0  0  0
 84164  1  0  0  0
 84165  1  0  0  0
M  ISO  4   1 100  68 101  84 101  85 100
M  END
> <chiral flag>
0

> <version>
0

> <s_m_source_file>
/data/baiqing/PycharmProjects/Reinvent-master-3.2/result/LINK_invent/BTK/process_docking_weight1_custom_sum_contain_oxygen_bond_distance_aromatic_linkinvent_7_9_3/rearranged_h_0156.sdf

> <i_m_source_file_index>
76

> <r_mmod_Potential_Energy-OPLS-2005>
501.373199462891

> <r_mmod_Stretch_Energy-OPLS-2005>
112.402565002441

> <r_mmod_Bend_Energy-OPLS-2005>
203.852951049805

> <r_mmod_Torsional_Energy-OPLS-2005>
385.037750244141

> <r_mmod_Improper_Torsional_Energy-OPLS-2005>
21.2885112762451

> <r_mmod_Van_der_Waal_Energy-OPLS-2005>
163.987121582031

> <r_mmod_Electrostatic_Energy-OPLS-2005>
-274.081909179688

> <r_mmod_Solvation_Energy-OPLS-2005>
-199.963684082031

> <b_mmod_Minimization_Converged-OPLS-2005>
0

> <r_mmod_RMS_Derivative-OPLS-2005>
1.46029698848724

$$$$
76
                    3D
 Structure written by MMmdl.
171180  0  0  1  0            999 V2000
  -30.7254  -14.4630   20.4588 C   0  0  0  0  0  0
  -30.4148  -12.2680   19.4362 C   0  0  0  0  0  0
  -29.4826  -12.4173   18.2133 C   0  0  0  0  0  0
  -28.0065  -12.3154   18.6324 C   0  0  0  0  0  0
  -27.6545  -13.2024   19.8561 C   0  0  2  0  0  0
  -28.7028  -13.0533   20.9832 C   0  0  0  0  0  0
  -25.2587  -13.8169   20.5691 C   0  0  0  0  0  0
  -24.1836  -13.0451   20.9199 C   0  0  0  0  0  0
  -24.6380  -11.6916   20.8772 C   0  0  0  0  0  0
  -23.9051  -10.4299   21.0434 C   0  0  0  0  0  0
  -24.3609   -9.4208   21.9196 C   0  0  0  0  0  0
  -23.6280   -8.2242   22.0757 C   0  0  0  0  0  0
  -22.4261   -8.0293   21.3557 C   0  0  0  0  0  0
  -21.9908   -9.0266   20.4660 C   0  0  0  0  0  0
  -22.7234  -10.2140   20.3076 C   0  0  0  0  0  0
  -21.6845   -6.0748   22.5278 C   0  0  0  0  0  0
  -21.4008   -6.5641   23.8218 C   0  0  0  0  0  0
  -21.3658   -5.6789   24.9174 C   0  0  0  0  0  0
  -21.6049   -4.3049   24.7220 C   0  0  0  0  0  0
  -21.8815   -3.8152   23.4334 C   0  0  0  0  0  0
  -21.9185   -4.6974   22.3402 C   0  0  0  0  0  0
  -22.7857  -13.5265   21.1838 C   0  0  0  0  0  0
  -22.1661   -4.2173   21.0973 F   0  0  0  0  0  0
  -21.5626   -3.4526   25.7727 F   0  0  0  0  0  0
  -30.0327  -13.2983   20.4103 N   0  0  0  0  0  0
  -26.3000  -12.9325   20.3337 N   0  0  0  0  0  0
  -25.9299  -11.6501   20.5808 N   0  0  0  0  0  0
  -22.0475  -12.8292   22.0396 N   0  0  0  0  0  0
  -25.4302  -15.1877   20.4082 N   0  0  0  0  0  0
  -31.9376  -14.5400   20.2559 O   0  0  0  0  0  0
  -21.6625   -6.8891   21.4252 O   0  0  0  0  0  0
  -22.3577  -14.5577   20.6663 O   0  0  0  0  0  0
  -24.6116  -31.8713   23.2136 C   0  0  0  0  0  0
  -25.9018  -32.4843   23.8416 C   0  0  1  0  0  0
  -27.2246  -27.4668   20.0995 C   0  0  0  0  0  0
  -25.5876  -33.8641   24.2342 N   0  0  0  0  0  0
  -23.3967  -30.4986   21.5525 C   0  0  2  0  0  0
  -24.8422  -28.9764   20.1080 C   0  0  0  0  0  0
  -22.7393  -29.4683   22.4988 C   0  0  0  0  0  0
  -18.0271  -28.1390   22.8498 C   0  0  0  0  0  0
  -24.1482  -36.7336   23.2638 C   0  0  0  0  0  0
  -25.9221  -30.8540   21.3571 C   0  0  0  0  0  0
  -26.0018  -29.4915   20.7025 C   0  0  0  0  0  0
  -27.1992  -28.7454   20.6937 C   0  0  0  0  0  0
  -26.0575  -26.9709   19.4755 C   0  0  0  0  0  0
  -24.8650  -27.7156   19.4878 C   0  0  0  0  0  0
  -23.6017  -29.8368   20.1641 C   0  0  0  0  0  0
  -25.4097  -36.3126   24.0340 C   0  0  1  0  0  0
  -20.5858  -28.3672   23.1330 C   0  0  2  0  0  0
  -20.6761  -26.9412   22.5427 C   0  0  0  0  0  0
  -19.5742  -26.6398   21.5222 C   0  0  0  0  0  0
  -18.1916  -26.7942   22.1624 C   0  0  0  0  0  0
  -19.1521  -28.8845   23.2915 C   0  0  0  0  0  0
  -18.9448  -30.1450   23.8931 C   0  0  0  0  0  0
  -17.6452  -30.6590   24.0579 C   0  0  0  0  0  0
  -25.9025  -34.9488   23.5137 C   0  0  0  0  0  0
  -16.5345  -29.9105   23.6322 C   0  0  0  0  0  0
  -16.7261  -28.6521   23.0343 C   0  0  0  0  0  0
  -26.4466  -31.6607   25.0719 C   0  0  0  0  0  0
  -25.3758  -31.3695   26.1486 C   0  0  0  0  0  0
  -27.0269  -30.3051   24.6050 C   0  0  0  0  0  0
  -27.6050  -32.4328   25.7456 C   0  0  0  0  0  0
  -27.5580  -37.1814   24.8460 C   0  0  0  0  0  0
  -21.4125  -29.3043   22.3734 N   0  0  0  0  0  0
  -26.4288  -37.3807   23.9413 N   0  0  0  0  0  0
  -24.6617  -31.0871   22.1002 N   0  0  0  0  0  0
  -23.4194  -28.8222   23.3001 O   0  0  0  0  0  0
  -28.3584  -26.6952   20.1748 O   0  0  0  0  0  0
  -26.5598  -34.8934   22.4706 O   0  0  0  0  0  0
  -23.5317  -32.1427   23.7569 O   0  0  0  0  0  0
  -30.0697  -18.0231   20.1838 C   0  0  0  0  0  0
  -31.1157  -17.7739   17.5818 C   0  0  0  0  0  0
  -30.3911  -19.1826   19.4348 C   0  0  0  0  0  0
  -30.2893  -16.7338   19.6419 C   0  0  0  0  0  0
  -30.9260  -19.0576   18.1296 C   0  0  0  0  0  0
  -30.7888  -16.6109   18.3126 C   0  0  0  0  0  0
  -28.9141  -21.2465   19.3578 C   0  0  0  0  0  0
  -30.1326  -20.8510   21.4652 C   0  0  0  0  0  0
  -29.0032  -22.7635   19.5437 C   0  0  0  0  0  0
  -30.1991  -22.3819   21.7150 C   0  0  0  0  0  0
  -30.1679  -20.6031   19.9538 C   0  0  1  0  0  0
  -31.6723  -20.1411   16.0978 C   0  0  0  0  0  0
  -31.7015  -15.1775   16.5867 C   0  0  0  0  0  0
  -29.4010  -24.6426   21.0815 C   0  0  0  0  0  0
  -28.1164  -25.4659   20.8722 C   0  0  0  0  0  0
  -29.9700  -15.5763   20.4269 N   0  0  0  0  0  0
  -29.1643  -23.1708   20.9726 N   0  3  1  0  0  0
  -31.2211  -20.2205   17.4433 O   0  0  0  0  0  0
  -30.9059  -15.3567   17.7516 O   0  0  0  0  0  0
  -31.4587  -12.3478   19.1254 H   0  0  0  0  0  0
  -30.3079  -11.2785   19.8845 H   0  0  0  0  0  0
  -29.7108  -11.6495   17.4734 H   0  0  0  0  0  0
  -29.6418  -13.3649   17.7091 H   0  0  0  0  0  0
  -27.8130  -11.2682   18.8657 H   0  0  0  0  0  0
  -27.3596  -12.5617   17.7908 H   0  0  0  0  0  0
  -27.6805  -14.2330   19.5035 H   0  0  0  0  0  0
  -28.6684  -12.0507   21.4117 H   0  0  0  0  0  0
  -28.4927  -13.7430   21.8016 H   0  0  0  0  0  0
  -25.2762   -9.5652   22.4758 H   0  0  0  0  0  0
  -23.9989   -7.4618   22.7441 H   0  0  0  0  0  0
  -21.0848   -8.8780   19.8950 H   0  0  0  0  0  0
  -22.3709  -10.9677   19.6172 H   0  0  0  0  0  0
  -21.2002   -7.6147   23.9731 H   0  0  0  0  0  0
  -21.1493   -6.0514   25.9079 H   0  0  0  0  0  0
  -22.0596   -2.7615   23.2822 H   0  0  0  0  0  0
  -22.4070  -11.9979   22.4856 H   0  0  0  0  0  0
  -21.1082  -13.1330   22.2540 H   0  0  0  0  0  0
  -24.6584  -15.8378   20.5084 H   0  0  0  0  0  0
  -26.2760  -15.6276   20.0691 H   0  0  0  0  0  0
  -26.7099  -32.5581   23.1198 H   0  0  0  0  0  0
  -24.9999  -33.9811   25.0467 H   0  0  0  0  0  0
  -22.6826  -31.3139   21.4192 H   0  0  0  0  0  0
  -23.3729  -35.9684   23.3311 H   0  0  0  0  0  0
  -24.3584  -36.8944   22.2051 H   0  0  0  0  0  0
  -23.7255  -37.6553   23.6650 H   0  0  0  0  0  0
  -26.0239  -31.6230   20.5897 H   0  0  0  0  0  0
  -26.8142  -30.9116   21.9689 H   0  0  0  0  0  0
  -28.0924  -29.1329   21.1646 H   0  0  0  0  0  0
  -26.0570  -26.0097   18.9814 H   0  0  0  0  0  0
  -23.9756  -27.3199   19.0167 H   0  0  0  0  0  0
  -23.7035  -30.6152   19.4071 H   0  0  0  0  0  0
  -22.7259  -29.2561   19.8694 H   0  0  0  0  0  0
  -25.1270  -36.1990   25.0833 H   0  0  0  0  0  0
  -20.9957  -28.3246   24.1448 H   0  0  0  0  0  0
  -20.5663  -26.2284   23.3612 H   0  0  0  0  0  0
  -21.6634  -26.7456   22.1222 H   0  0  0  0  0  0
  -19.6902  -25.6315   21.1239 H   0  0  0  0  0  0
  -19.6682  -27.3221   20.6762 H   0  0  0  0  0  0
  -17.4187  -26.6702   21.4022 H   0  0  0  0  0  0
  -18.0303  -26.0078   22.9007 H   0  0  0  0  0  0
  -19.7922  -30.7259   24.2317 H   0  0  0  0  0  0
  -17.5008  -31.6269   24.5183 H   0  0  0  0  0  0
  -15.5350  -30.3022   23.7626 H   0  0  0  0  0  0
  -15.8658  -28.0859   22.7038 H   0  0  0  0  0  0
  -24.5920  -30.7047   25.7842 H   0  0  0  0  0  0
  -24.8960  -32.2840   26.4977 H   0  0  0  0  0  0
  -25.8136  -30.8842   27.0215 H   0  0  0  0  0  0
  -26.2772  -29.6820   24.1154 H   0  0  0  0  0  0
  -27.4102  -29.7284   25.4477 H   0  0  0  0  0  0
  -27.8589  -30.4373   23.9128 H   0  0  0  0  0  0
  -27.2660  -33.3603   26.2084 H   0  0  0  0  0  0
  -28.3807  -32.6936   25.0244 H   0  0  0  0  0  0
  -28.0775  -31.8430   26.5320 H   0  0  0  0  0  0
  -28.2604  -38.0106   24.7502 H   0  0  0  0  0  0
  -28.1068  -36.2638   24.6275 H   0  0  0  0  0  0
  -27.2310  -37.1463   25.8869 H   0  0  0  0  0  0
  -20.9274  -29.8776   21.6974 H   0  0  0  0  0  0
  -26.0176  -38.2885   24.1421 H   0  0  0  0  0  0
  -29.6641  -18.1193   21.1813 H   0  0  0  0  0  0
  -31.4980  -17.6782   16.5803 H   0  0  0  0  0  0
  -28.8406  -21.0344   18.2904 H   0  0  0  0  0  0
  -28.0096  -20.8401   19.8133 H   0  0  0  0  0  0
  -29.2382  -20.4192   21.9154 H   0  0  0  0  0  0
  -30.9877  -20.3721   21.9435 H   0  0  0  0  0  0
  -28.1139  -23.2160   19.1063 H   0  0  0  0  0  0
  -29.8478  -23.1355   18.9621 H   0  0  0  0  0  0
  -31.1874  -22.7456   21.4303 H   0  0  0  0  0  0
  -30.0972  -22.5795   22.7830 H   0  0  0  0  0  0
  -31.0411  -21.1590   19.6085 H   0  0  0  0  0  0
  -31.8587  -21.1489   15.7274 H   0  0  0  0  0  0
  -30.9206  -19.6863   15.4508 H   0  0  0  0  0  0
  -32.6081  -19.5872   16.0174 H   0  0  0  0  0  0
  -31.7938  -14.1096   16.3839 H   0  0  0  0  0  0
  -32.7100  -15.5715   16.7209 H   0  0  0  0  0  0
  -31.2455  -15.6363   15.7082 H   0  0  0  0  0  0
  -29.8099  -24.8951   22.0610 H   0  0  0  0  0  0
  -30.1620  -24.9416   20.3591 H   0  0  0  0  0  0
  -27.6673  -25.6753   21.8453 H   0  0  0  0  0  0
  -27.3802  -24.8771   20.3299 H   0  0  0  0  0  0
  -29.0137  -15.4817   20.7300 H   0  0  0  0  0  0
  -28.2891  -22.9715   21.4366 H   0  0  0  0  0  0
  1 25  1  0  0  0
  1 30  2  0  0  0
  1 86  1  0  0  0
  2  3  1  0  0  0
  2 25  1  0  0  0
  2 90  1  0  0  0
  2 91  1  0  0  0
  3  4  1  0  0  0
  3 92  1  0  0  0
  3 93  1  0  0  0
  4  5  1  0  0  0
  4 94  1  0  0  0
  4 95  1  0  0  0
  5  6  1  0  0  0
  5 26  1  0  0  0
  5 96  1  0  0  0
  6 25  1  0  0  0
  6 97  1  0  0  0
  6 98  1  0  0  0
  7  8  2  0  0  0
  7 26  1  0  0  0
  7 29  1  0  0  0
  8  9  1  0  0  0
  8 22  1  0  0  0
  9 10  1  0  0  0
  9 27  2  0  0  0
 10 11  2  0  0  0
 10 15  1  0  0  0
 11 12  1  0  0  0
 11 99  1  0  0  0
 12 13  2  0  0  0
 12100  1  0  0  0
 13 14  1  0  0  0
 13 31  1  0  0  0
 14 15  2  0  0  0
 14101  1  0  0  0
 15102  1  0  0  0
 16 17  2  0  0  0
 16 21  1  0  0  0
 16 31  1  0  0  0
 17 18  1  0  0  0
 17103  1  0  0  0
 18 19  2  0  0  0
 18104  1  0  0  0
 19 20  1  0  0  0
 19 24  1  0  0  0
 20 21  2  0  0  0
 20105  1  0  0  0
 21 23  1  0  0  0
 22 28  1  0  0  0
 22 32  2  0  0  0
 26 27  1  0  0  0
 28106  1  0  0  0
 28107  1  0  0  0
 29108  1  0  0  0
 29109  1  0  0  0
 33 34  1  0  0  0
 33 66  1  0  0  0
 33 70  2  0  0  0
 34 36  1  0  0  0
 34 59  1  0  0  0
 34110  1  0  0  0
 35 44  2  0  0  0
 35 45  1  0  0  0
 35 68  1  0  0  0
 36 56  1  0  0  0
 36111  1  0  0  0
 37 39  1  0  0  0
 37 47  1  0  0  0
 37 66  1  0  0  0
 37112  1  0  0  0
 38 43  2  0  0  0
 38 46  1  0  0  0
 38 47  1  0  0  0
 39 64  1  0  0  0
 39 67  2  0  0  0
 40 52  1  0  0  0
 40 53  2  0  0  0
 40 58  1  0  0  0
 41113  1  0  0  0
 41114  1  0  0  0
 41115  1  0  0  0
 41 48  1  0  0  0
 42 43  1  0  0  0
 42 66  1  0  0  0
 42116  1  0  0  0
 42117  1  0  0  0
 43 44  1  0  0  0
 44118  1  0  0  0
 45 46  2  0  0  0
 45119  1  0  0  0
 46120  1  0  0  0
 47121  1  0  0  0
 47122  1  0  0  0
 48 56  1  0  0  0
 48 65  1  0  0  0
 48123  1  0  0  0
 49 50  1  0  0  0
 49 53  1  0  0  0
 49 64  1  0  0  0
 49124  1  0  0  0
 50 51  1  0  0  0
 50125  1  0  0  0
 50126  1  0  0  0
 51 52  1  0  0  0
 51127  1  0  0  0
 51128  1  0  0  0
 52129  1  0  0  0
 52130  1  0  0  0
 53 54  1  0  0  0
 54 55  2  0  0  0
 54131  1  0  0  0
 55 57  1  0  0  0
 55132  1  0  0  0
 56 69  2  0  0  0
 57 58  2  0  0  0
 57133  1  0  0  0
 58134  1  0  0  0
 59 60  1  0  0  0
 59 61  1  0  0  0
 59 62  1  0  0  0
 60135  1  0  0  0
 60136  1  0  0  0
 60137  1  0  0  0
 61138  1  0  0  0
 61139  1  0  0  0
 61140  1  0  0  0
 62141  1  0  0  0
 62142  1  0  0  0
 62143  1  0  0  0
 63 65  1  0  0  0
 63144  1  0  0  0
 63145  1  0  0  0
 63146  1  0  0  0
 64147  1  0  0  0
 65148  1  0  0  0
 68 85  1  0  0  0
 71 73  2  0  0  0
 71 74  1  0  0  0
 71149  1  0  0  0
 72 75  2  0  0  0
 72 76  1  0  0  0
 72150  1  0  0  0
 73 75  1  0  0  0
 73 81  1  0  0  0
 74 76  2  0  0  0
 74 86  1  0  0  0
 75 88  1  0  0  0
 76 89  1  0  0  0
 77 79  1  0  0  0
 77 81  1  0  0  0
 77151  1  0  0  0
 77152  1  0  0  0
 78 80  1  0  0  0
 78 81  1  0  0  0
 78153  1  0  0  0
 78154  1  0  0  0
 79 87  1  0  0  0
 79155  1  0  0  0
 79156  1  0  0  0
 80 87  1  0  0  0
 80157  1  0  0  0
 80158  1  0  0  0
 81159  1  0  0  0
 82 88  1  0  0  0
 82160  1  0  0  0
 82161  1  0  0  0
 82162  1  0  0  0
 83 89  1  0  0  0
 83163  1  0  0  0
 83164  1  0  0  0
 83165  1  0  0  0
 84 85  1  0  0  0
 84166  1  0  0  0
 84167  1  0  0  0
 84 87  1  0  0  0
 85168  1  0  0  0
 85169  1  0  0  0
 86170  1  0  0  0
 87171  1  0  0  0
M  CHG  1  87   1
M  ISO  4   1 100  68 101  85 101  86 100
M  END
> <chiral flag>
0

> <version>
0

> <s_m_source_file>
/data/baiqing/PycharmProjects/Reinvent-master-3.2/result/LINK_invent/BTK/process_docking_weight1_custom_sum_contain_oxygen_bond_distance_aromatic_linkinvent_7_9_3/rearranged_h_0156.sdf

> <i_m_source_file_index>
77

> <r_mmod_Potential_Energy-OPLS-2005>
-55.5396881103516

> <r_mmod_Stretch_Energy-OPLS-2005>
38.7469482421875

> <r_mmod_Bend_Energy-OPLS-2005>
115.036445617676

> <r_mmod_Torsional_Energy-OPLS-2005>
312.101745605469

> <r_mmod_Improper_Torsional_Energy-OPLS-2005>
8.76869487762451

> <r_mmod_Van_der_Waal_Energy-OPLS-2005>
184.279937744141

> <r_mmod_Electrostatic_Energy-OPLS-2005>
-305.375579833984

> <r_mmod_Solvation_Energy-OPLS-2005>
-436.458251953125

> <b_mmod_Minimization_Converged-OPLS-2005>
0

> <r_mmod_RMS_Derivative-OPLS-2005>
2.1846752166748

$$$$
77
                    3D
 Structure written by MMmdl.
173182  0  0  1  0            999 V2000
  -30.6873  -14.4692   20.5327 C   0  0  0  0  0  0
  -30.4337  -12.2837   19.4351 C   0  0  0  0  0  0
  -29.5072  -12.4586   18.2108 C   0  0  0  0  0  0
  -28.0192  -12.3702   18.6161 C   0  0  0  0  0  0
  -27.6684  -13.2064   19.8761 C   0  0  2  0  0  0
  -28.7100  -12.9793   20.9958 C   0  0  0  0  0  0
  -25.2636  -13.8200   20.5734 C   0  0  0  0  0  0
  -24.1885  -13.0457   20.9205 C   0  0  0  0  0  0
  -24.6451  -11.6925   20.8780 C   0  0  0  0  0  0
  -23.9122  -10.4309   21.0454 C   0  0  0  0  0  0
  -24.3663   -9.4212   21.9223 C   0  0  0  0  0  0
  -23.6334   -8.2249   22.0752 C   0  0  0  0  0  0
  -22.4286   -8.0328   21.3576 C   0  0  0  0  0  0
  -21.9958   -9.0294   20.4653 C   0  0  0  0  0  0
  -22.7304  -10.2164   20.3071 C   0  0  0  0  0  0
  -21.6829   -6.0801   22.5320 C   0  0  0  0  0  0
  -21.3989   -6.5682   23.8265 C   0  0  0  0  0  0
  -21.3665   -5.6812   24.9210 C   0  0  0  0  0  0
  -21.6051   -4.3075   24.7234 C   0  0  0  0  0  0
  -21.8813   -3.8204   23.4338 C   0  0  0  0  0  0
  -21.9183   -4.7039   22.3416 C   0  0  0  0  0  0
  -22.7903  -13.5243   21.1872 C   0  0  0  0  0  0
  -22.1656   -4.2255   21.0982 F   0  0  0  0  0  0
  -21.5651   -3.4536   25.7726 F   0  0  0  0  0  0
  -30.0426  -13.2768   20.4459 N   0  0  0  0  0  0
  -26.3069  -12.9369   20.3383 N   0  0  0  0  0  0
  -25.9366  -11.6533   20.5758 N   0  0  0  0  0  0
  -22.0529  -12.8211   22.0396 N   0  0  0  0  0  0
  -25.4342  -15.1932   20.4209 N   0  0  0  0  0  0
  -31.8397  -14.6456   20.1275 O   0  0  0  0  0  0
  -21.6629   -6.8946   21.4281 O   0  0  0  0  0  0
  -22.3581  -14.5567   20.6749 O   0  0  0  0  0  0
  -24.6121  -31.8680   23.2106 C   0  0  0  0  0  0
  -25.9022  -32.4819   23.8394 C   0  0  1  0  0  0
  -27.2540  -27.4704   20.0746 C   0  0  0  0  0  0
  -25.5883  -33.8622   24.2319 N   0  0  0  0  0  0
  -23.3998  -30.4894   21.5493 C   0  0  2  0  0  0
  -24.8516  -28.9574   20.1108 C   0  0  0  0  0  0
  -22.7403  -29.4646   22.5003 C   0  0  0  0  0  0
  -18.0266  -28.1382   22.8487 C   0  0  0  0  0  0
  -24.1481  -36.7319   23.2636 C   0  0  0  0  0  0
  -25.9249  -30.8397   21.3622 C   0  0  0  0  0  0
  -26.0058  -29.4755   20.7113 C   0  0  0  0  0  0
  -27.2051  -28.7329   20.7024 C   0  0  0  0  0  0
  -26.0812  -26.9526   19.4806 C   0  0  0  0  0  0
  -24.8820  -27.6924   19.4962 C   0  0  0  0  0  0
  -23.6088  -29.8173   20.1640 C   0  0  0  0  0  0
  -25.4099  -36.3108   24.0332 C   0  0  1  0  0  0
  -20.5852  -28.3655   23.1332 C   0  0  2  0  0  0
  -20.6757  -26.9396   22.5425 C   0  0  0  0  0  0
  -19.5744  -26.6382   21.5220 C   0  0  0  0  0  0
  -18.1918  -26.7927   22.1620 C   0  0  0  0  0  0
  -19.1514  -28.8841   23.2905 C   0  0  0  0  0  0
  -18.9447  -30.1449   23.8913 C   0  0  0  0  0  0
  -17.6449  -30.6583   24.0566 C   0  0  0  0  0  0
  -25.9029  -34.9474   23.5124 C   0  0  0  0  0  0
  -16.5336  -29.9081   23.6330 C   0  0  0  0  0  0
  -16.7253  -28.6502   23.0341 C   0  0  0  0  0  0
  -26.4472  -31.6597   25.0717 C   0  0  0  0  0  0
  -25.3745  -31.3699   26.1473 C   0  0  0  0  0  0
  -27.0304  -30.3038   24.6081 C   0  0  0  0  0  0
  -27.6049  -32.4322   25.7478 C   0  0  0  0  0  0
  -27.5577  -37.1809   24.8459 C   0  0  0  0  0  0
  -21.4136  -29.3011   22.3737 N   0  0  0  0  0  0
  -26.4285  -37.3793   23.9409 N   0  0  0  0  0  0
  -24.6631  -31.0791   22.0995 N   0  0  0  0  0  0
  -23.4187  -28.8193   23.3041 O   0  0  0  0  0  0
  -28.4269  -26.7544   20.1002 O   0  0  0  0  0  0
  -26.5595  -34.8925   22.4689 O   0  0  0  0  0  0
  -23.5319  -32.1437   23.7512 O   0  0  0  0  0  0
  -30.0551  -19.2085   21.2784 C   0  0  0  0  0  0
  -30.2949  -19.6575   19.9586 C   0  0  0  0  0  0
  -30.3694  -18.6962   18.9103 C   0  0  0  0  0  0
  -30.1999  -17.3153   19.2048 C   0  0  0  0  0  0
  -30.0555  -16.8765   20.5523 C   0  0  0  0  0  0
  -29.9196  -17.8327   21.5844 C   0  0  0  0  0  0
  -29.1362  -21.7456   19.0466 C   0  0  0  0  0  0
  -30.7941  -22.0734   20.8468 C   0  0  0  0  0  0
  -29.3545  -23.1912   18.5626 C   0  0  0  0  0  0
  -31.0509  -23.5127   20.3493 C   0  0  0  0  0  0
  -30.4189  -21.1641   19.6654 C   0  0  1  0  0  0
  -30.5984  -19.1130   17.4527 C   0  0  0  0  0  0
  -30.1007  -16.3116   18.0567 C   0  0  0  0  0  0
  -29.0878  -18.2766   23.7971 C   0  0  0  0  0  0
  -30.1937  -25.4610   19.0990 C   0  0  0  0  0  0
  -28.9466  -26.3324   18.8430 C   0  0  0  0  0  0
  -29.9060  -15.4993   20.9106 N   0  0  0  0  0  0
  -29.8826  -24.0983   19.6260 N   0  3  1  0  0  0
  -29.6333  -17.3632   22.8500 O   0  0  0  0  0  0
  -31.4762  -12.3842   19.1286 H   0  0  0  0  0  0
  -30.3415  -11.2755   19.8432 H   0  0  0  0  0  0
  -29.7272  -11.6943   17.4644 H   0  0  0  0  0  0
  -29.7094  -13.4094   17.7218 H   0  0  0  0  0  0
  -27.7941  -11.3189   18.7998 H   0  0  0  0  0  0
  -27.3843  -12.6694   17.7811 H   0  0  0  0  0  0
  -27.7130  -14.2539   19.5808 H   0  0  0  0  0  0
  -28.6832  -11.9434   21.3375 H   0  0  0  0  0  0
  -28.4812  -13.5868   21.8720 H   0  0  0  0  0  0
  -25.2812   -9.5655   22.4816 H   0  0  0  0  0  0
  -24.0074   -7.4605   22.7414 H   0  0  0  0  0  0
  -21.0913   -8.8794   19.8940 H   0  0  0  0  0  0
  -22.3789  -10.9711   19.6170 H   0  0  0  0  0  0
  -21.1944   -7.6180   23.9805 H   0  0  0  0  0  0
  -21.1485   -6.0528   25.9120 H   0  0  0  0  0  0
  -22.0566   -2.7678   23.2796 H   0  0  0  0  0  0
  -22.4053  -11.9831   22.4787 H   0  0  0  0  0  0
  -21.1172  -13.1311   22.2603 H   0  0  0  0  0  0
  -24.6708  -15.8487   20.5518 H   0  0  0  0  0  0
  -26.2996  -15.6490   20.1601 H   0  0  0  0  0  0
  -26.7094  -32.5540   23.1165 H   0  0  0  0  0  0
  -25.0040  -33.9791   25.0463 H   0  0  0  0  0  0
  -22.6862  -31.3043   21.4093 H   0  0  0  0  0  0
  -23.3739  -35.9658   23.3302 H   0  0  0  0  0  0
  -24.3584  -36.8936   22.2051 H   0  0  0  0  0  0
  -23.7246  -37.6527   23.6656 H   0  0  0  0  0  0
  -26.0330  -31.6055   20.5932 H   0  0  0  0  0  0
  -26.8143  -30.8963   21.9776 H   0  0  0  0  0  0
  -28.0968  -29.1291   21.1680 H   0  0  0  0  0  0
  -26.0802  -25.9758   19.0183 H   0  0  0  0  0  0
  -23.9919  -27.2846   19.0362 H   0  0  0  0  0  0
  -23.7084  -30.5911   19.4020 H   0  0  0  0  0  0
  -22.7358  -29.2305   19.8729 H   0  0  0  0  0  0
  -25.1281  -36.1968   25.0828 H   0  0  0  0  0  0
  -20.9942  -28.3216   24.1454 H   0  0  0  0  0  0
  -20.5671  -26.2258   23.3607 H   0  0  0  0  0  0
  -21.6628  -26.7450   22.1208 H   0  0  0  0  0  0
  -19.6902  -25.6300   21.1230 H   0  0  0  0  0  0
  -19.6688  -27.3210   20.6765 H   0  0  0  0  0  0
  -17.4196  -26.6688   21.4013 H   0  0  0  0  0  0
  -18.0302  -26.0062   22.9008 H   0  0  0  0  0  0
  -19.7928  -30.7263   24.2277 H   0  0  0  0  0  0
  -17.5004  -31.6268   24.5158 H   0  0  0  0  0  0
  -15.5335  -30.2991   23.7652 H   0  0  0  0  0  0
  -15.8651  -28.0830   22.7044 H   0  0  0  0  0  0
  -24.5903  -30.7067   25.7811 H   0  0  0  0  0  0
  -24.8958  -32.2855   26.4952 H   0  0  0  0  0  0
  -25.8102  -30.8843   27.0211 H   0  0  0  0  0  0
  -26.2841  -29.6793   24.1154 H   0  0  0  0  0  0
  -27.4106  -29.7283   25.4531 H   0  0  0  0  0  0
  -27.8662  -30.4365   23.9207 H   0  0  0  0  0  0
  -27.2659  -33.3606   26.2088 H   0  0  0  0  0  0
  -28.3839  -32.6909   25.0293 H   0  0  0  0  0  0
  -28.0738  -31.8430   26.5367 H   0  0  0  0  0  0
  -28.2587  -38.0111   24.7519 H   0  0  0  0  0  0
  -28.1080  -36.2649   24.6265 H   0  0  0  0  0  0
  -27.2304  -37.1432   25.8863 H   0  0  0  0  0  0
  -20.9301  -29.8724   21.6950 H   0  0  0  0  0  0
  -26.0173  -38.2867   24.1430 H   0  0  0  0  0  0
  -29.9700  -19.9358   22.0707 H   0  0  0  0  0  0
  -28.8109  -21.1438   18.1992 H   0  0  0  0  0  0
  -28.3211  -21.7058   19.7715 H   0  0  0  0  0  0
  -30.0072  -22.0868   21.6017 H   0  0  0  0  0  0
  -31.6921  -21.6938   21.3333 H   0  0  0  0  0  0
  -28.4096  -23.5764   18.1801 H   0  0  0  0  0  0
  -30.0461  -23.1791   17.7188 H   0  0  0  0  0  0
  -31.9238  -23.5211   19.6943 H   0  0  0  0  0  0
  -31.3056  -24.1441   21.2012 H   0  0  0  0  0  0
  -31.2512  -21.2751   18.9704 H   0  0  0  0  0  0
  -30.9379  -20.1325   17.2963 H   0  0  0  0  0  0
  -29.6713  -19.0077   16.8882 H   0  0  0  0  0  0
  -31.3600  -18.4807   16.9913 H   0  0  0  0  0  0
  -31.0729  -15.8682   17.8422 H   0  0  0  0  0  0
  -29.7217  -16.7464   17.1341 H   0  0  0  0  0  0
  -29.3934  -15.5251   18.3045 H   0  0  0  0  0  0
  -28.3353  -18.9374   23.3626 H   0  0  0  0  0  0
  -29.8668  -18.8831   24.2593 H   0  0  0  0  0  0
  -28.5969  -17.7152   24.5915 H   0  0  0  0  0  0
  -30.8445  -25.9952   19.7931 H   0  0  0  0  0  0
  -30.7713  -25.3670   18.1783 H   0  0  0  0  0  0
  -28.2129  -25.8110   18.2294 H   0  0  0  0  0  0
  -29.2391  -27.2215   18.2803 H   0  0  0  0  0  0
  -29.0600  -15.2588   21.4017 H   0  0  0  0  0  0
  -29.1587  -24.2198   20.3209 H   0  0  0  0  0  0
  1 25  1  0  0  0
  1 30  2  0  0  0
  1 87  1  0  0  0
  2  3  1  0  0  0
  2 25  1  0  0  0
  2 90  1  0  0  0
  2 91  1  0  0  0
  3  4  1  0  0  0
  3 92  1  0  0  0
  3 93  1  0  0  0
  4  5  1  0  0  0
  4 94  1  0  0  0
  4 95  1  0  0  0
  5  6  1  0  0  0
  5 26  1  0  0  0
  5 96  1  0  0  0
  6 25  1  0  0  0
  6 97  1  0  0  0
  6 98  1  0  0  0
  7  8  2  0  0  0
  7 26  1  0  0  0
  7 29  1  0  0  0
  8  9  1  0  0  0
  8 22  1  0  0  0
  9 10  1  0  0  0
  9 27  2  0  0  0
 10 11  2  0  0  0
 10 15  1  0  0  0
 11 12  1  0  0  0
 11 99  1  0  0  0
 12 13  2  0  0  0
 12100  1  0  0  0
 13 14  1  0  0  0
 13 31  1  0  0  0
 14 15  2  0  0  0
 14101  1  0  0  0
 15102  1  0  0  0
 16 17  2  0  0  0
 16 21  1  0  0  0
 16 31  1  0  0  0
 17 18  1  0  0  0
 17103  1  0  0  0
 18 19  2  0  0  0
 18104  1  0  0  0
 19 20  1  0  0  0
 19 24  1  0  0  0
 20 21  2  0  0  0
 20105  1  0  0  0
 21 23  1  0  0  0
 22 28  1  0  0  0
 22 32  2  0  0  0
 26 27  1  0  0  0
 28106  1  0  0  0
 28107  1  0  0  0
 29108  1  0  0  0
 29109  1  0  0  0
 33 34  1  0  0  0
 33 66  1  0  0  0
 33 70  2  0  0  0
 34 36  1  0  0  0
 34 59  1  0  0  0
 34110  1  0  0  0
 35 44  2  0  0  0
 35 45  1  0  0  0
 35 68  1  0  0  0
 36 56  1  0  0  0
 36111  1  0  0  0
 37 39  1  0  0  0
 37 47  1  0  0  0
 37 66  1  0  0  0
 37112  1  0  0  0
 38 43  2  0  0  0
 38 46  1  0  0  0
 38 47  1  0  0  0
 39 64  1  0  0  0
 39 67  2  0  0  0
 40 52  1  0  0  0
 40 53  2  0  0  0
 40 58  1  0  0  0
 41113  1  0  0  0
 41114  1  0  0  0
 41115  1  0  0  0
 41 48  1  0  0  0
 42 43  1  0  0  0
 42 66  1  0  0  0
 42116  1  0  0  0
 42117  1  0  0  0
 43 44  1  0  0  0
 44118  1  0  0  0
 45 46  2  0  0  0
 45119  1  0  0  0
 46120  1  0  0  0
 47121  1  0  0  0
 47122  1  0  0  0
 48 56  1  0  0  0
 48 65  1  0  0  0
 48123  1  0  0  0
 49 50  1  0  0  0
 49 53  1  0  0  0
 49 64  1  0  0  0
 49124  1  0  0  0
 50 51  1  0  0  0
 50125  1  0  0  0
 50126  1  0  0  0
 51 52  1  0  0  0
 51127  1  0  0  0
 51128  1  0  0  0
 52129  1  0  0  0
 52130  1  0  0  0
 53 54  1  0  0  0
 54 55  2  0  0  0
 54131  1  0  0  0
 55 57  1  0  0  0
 55132  1  0  0  0
 56 69  2  0  0  0
 57 58  2  0  0  0
 57133  1  0  0  0
 58134  1  0  0  0
 59 60  1  0  0  0
 59 61  1  0  0  0
 59 62  1  0  0  0
 60135  1  0  0  0
 60136  1  0  0  0
 60137  1  0  0  0
 61138  1  0  0  0
 61139  1  0  0  0
 61140  1  0  0  0
 62141  1  0  0  0
 62142  1  0  0  0
 62143  1  0  0  0
 63 65  1  0  0  0
 63144  1  0  0  0
 63145  1  0  0  0
 63146  1  0  0  0
 64147  1  0  0  0
 65148  1  0  0  0
 68 86  1  0  0  0
 71 72  2  0  0  0
 71 76  1  0  0  0
 71149  1  0  0  0
 72 73  1  0  0  0
 72 81  1  0  0  0
 73 74  2  0  0  0
 73 82  1  0  0  0
 74 75  1  0  0  0
 74 83  1  0  0  0
 75 76  2  0  0  0
 75 87  1  0  0  0
 76 89  1  0  0  0
 77 79  1  0  0  0
 77 81  1  0  0  0
 77150  1  0  0  0
 77151  1  0  0  0
 78 80  1  0  0  0
 78 81  1  0  0  0
 78152  1  0  0  0
 78153  1  0  0  0
 79 88  1  0  0  0
 79154  1  0  0  0
 79155  1  0  0  0
 80 88  1  0  0  0
 80156  1  0  0  0
 80157  1  0  0  0
 81158  1  0  0  0
 82159  1  0  0  0
 82160  1  0  0  0
 82161  1  0  0  0
 83162  1  0  0  0
 83163  1  0  0  0
 83164  1  0  0  0
 84 89  1  0  0  0
 84165  1  0  0  0
 84166  1  0  0  0
 84167  1  0  0  0
 85 86  1  0  0  0
 85168  1  0  0  0
 85169  1  0  0  0
 85 88  1  0  0  0
 86170  1  0  0  0
 86171  1  0  0  0
 87172  1  0  0  0
 88173  1  0  0  0
M  CHG  1  88   1
M  ISO  4   1 100  68 101  86 101  87 100
M  END
> <chiral flag>
0

> <version>
0

> <s_m_source_file>
/data/baiqing/PycharmProjects/Reinvent-master-3.2/result/LINK_invent/BTK/process_docking_weight1_custom_sum_contain_oxygen_bond_distance_aromatic_linkinvent_7_9_3/rearranged_h_0156.sdf

> <i_m_source_file_index>
78

> <r_mmod_Potential_Energy-OPLS-2005>
-117.471710205078

> <r_mmod_Stretch_Energy-OPLS-2005>
41.6832542419434

> <r_mmod_Bend_Energy-OPLS-2005>
109.476219177246

> <r_mmod_Torsional_Energy-OPLS-2005>
296.779846191406

> <r_mmod_Improper_Torsional_Energy-OPLS-2005>
5.16337251663208

> <r_mmod_Van_der_Waal_Energy-OPLS-2005>
177.461059570312

> <r_mmod_Electrostatic_Energy-OPLS-2005>
-330.510070800781

> <r_mmod_Solvation_Energy-OPLS-2005>
-430.636077880859

> <b_mmod_Minimization_Converged-OPLS-2005>
0

> <r_mmod_RMS_Derivative-OPLS-2005>
3.35213685035706

$$$$
78
                    3D
 Structure written by MMmdl.
194205  0  0  1  0            999 V2000
  -30.7195  -14.5679   20.3382 C   0  0  0  0  0  0
  -30.4187  -12.3383   19.3730 C   0  0  0  0  0  0
  -29.4637  -12.4460   18.1693 C   0  0  0  0  0  0
  -27.9984  -12.2825   18.6197 C   0  0  0  0  0  0
  -27.6414  -13.1720   19.8384 C   0  0  2  0  0  0
  -28.7260  -13.0974   20.9403 C   0  0  0  0  0  0
  -25.2610  -13.8045   20.5741 C   0  0  0  0  0  0
  -24.1837  -13.0402   20.9253 C   0  0  0  0  0  0
  -24.6367  -11.6849   20.8857 C   0  0  0  0  0  0
  -23.9026  -10.4279   21.0515 C   0  0  0  0  0  0
  -24.3586   -9.4177   21.9259 C   0  0  0  0  0  0
  -23.6266   -8.2218   22.0797 C   0  0  0  0  0  0
  -22.4263   -8.0265   21.3576 C   0  0  0  0  0  0
  -21.9904   -9.0236   20.4687 C   0  0  0  0  0  0
  -22.7219  -10.2119   20.3127 C   0  0  0  0  0  0
  -21.6839   -6.0745   22.5292 C   0  0  0  0  0  0
  -21.4005   -6.5646   23.8227 C   0  0  0  0  0  0
  -21.3670   -5.6798   24.9194 C   0  0  0  0  0  0
  -21.6053   -4.3063   24.7233 C   0  0  0  0  0  0
  -21.8817   -3.8168   23.4360 C   0  0  0  0  0  0
  -21.9189   -4.6982   22.3419 C   0  0  0  0  0  0
  -22.7875  -13.5259   21.1862 C   0  0  0  0  0  0
  -22.1640   -4.2188   21.0985 F   0  0  0  0  0  0
  -21.5654   -3.4537   25.7736 F   0  0  0  0  0  0
  -30.0187  -13.3975   20.3048 N   0  0  0  0  0  0
  -26.2998  -12.9140   20.3406 N   0  0  0  0  0  0
  -25.9294  -11.6372   20.5920 N   0  0  0  0  0  0
  -22.0445  -12.8275   22.0365 N   0  0  0  0  0  0
  -25.4334  -15.1758   20.4080 N   0  0  0  0  0  0
  -31.9482  -14.5694   20.3860 O   0  0  0  0  0  0
  -21.6633   -6.8878   21.4255 O   0  0  0  0  0  0
  -22.3596  -14.5554   20.6662 O   0  0  0  0  0  0
  -24.6105  -31.8720   23.2116 C   0  0  0  0  0  0
  -25.9010  -32.4833   23.8402 C   0  0  1  0  0  0
  -27.2519  -27.4714   20.0904 C   0  0  0  0  0  0
  -25.5900  -33.8638   24.2353 N   0  0  0  0  0  0
  -23.3965  -30.4922   21.5519 C   0  0  2  0  0  0
  -24.8470  -28.9603   20.1168 C   0  0  0  0  0  0
  -22.7384  -29.4668   22.5019 C   0  0  0  0  0  0
  -18.0273  -28.1379   22.8491 C   0  0  0  0  0  0
  -24.1486  -36.7319   23.2635 C   0  0  0  0  0  0
  -25.9195  -30.8471   21.3579 C   0  0  0  0  0  0
  -26.0004  -29.4801   20.7157 C   0  0  0  0  0  0
  -27.2030  -28.7452   20.7067 C   0  0  0  0  0  0
  -26.0829  -26.9632   19.4875 C   0  0  0  0  0  0
  -24.8789  -27.6950   19.5040 C   0  0  0  0  0  0
  -23.6049  -29.8198   20.1678 C   0  0  0  0  0  0
  -25.4103  -36.3119   24.0344 C   0  0  1  0  0  0
  -20.5854  -28.3652   23.1338 C   0  0  2  0  0  0
  -20.6757  -26.9396   22.5425 C   0  0  0  0  0  0
  -19.5744  -26.6378   21.5220 C   0  0  0  0  0  0
  -18.1917  -26.7938   22.1609 C   0  0  0  0  0  0
  -19.1518  -28.8828   23.2906 C   0  0  0  0  0  0
  -18.9449  -30.1447   23.8908 C   0  0  0  0  0  0
  -17.6455  -30.6585   24.0569 C   0  0  0  0  0  0
  -25.9033  -34.9484   23.5146 C   0  0  0  0  0  0
  -16.5352  -29.9088   23.6329 C   0  0  0  0  0  0
  -16.7266  -28.6509   23.0337 C   0  0  0  0  0  0
  -26.4455  -31.6602   25.0710 C   0  0  0  0  0  0
  -25.3753  -31.3688   26.1477 C   0  0  0  0  0  0
  -27.0284  -30.3052   24.6049 C   0  0  0  0  0  0
  -27.6045  -32.4307   25.7466 C   0  0  0  0  0  0
  -27.5612  -37.1766   24.8439 C   0  0  0  0  0  0
  -21.4120  -29.3031   22.3763 N   0  0  0  0  0  0
  -26.4260  -37.3827   23.9463 N   0  0  0  0  0  0
  -24.6598  -31.0848   22.0999 N   0  0  0  0  0  0
  -23.4175  -28.8233   23.3053 O   0  0  0  0  0  0
  -28.3811  -26.6826   20.0170 O   0  0  0  0  0  0
  -26.5599  -34.8933   22.4693 O   0  0  0  0  0  0
  -23.5312  -32.1444   23.7558 O   0  0  0  0  0  0
  -28.4635  -21.8125   21.7771 C   0  0  0  0  0  0
  -31.5360  -15.5038   17.6186 C   0  0  0  0  0  0
  -29.7294  -22.4033   21.9827 C   0  0  0  0  0  0
  -30.5048  -17.6221   18.2166 C   0  0  0  0  0  0
  -28.2968  -20.4196   21.7261 C   0  0  0  0  0  0
  -30.8566  -21.5583   22.1933 C   0  0  0  0  0  0
  -31.0825  -18.2260   17.0589 C   0  0  0  0  0  0
  -31.8906  -17.4545   16.1857 C   0  0  0  0  0  0
  -30.7033  -20.1468   22.0736 C   0  0  0  0  0  0
  -30.7342  -16.2502   18.5235 C   0  0  0  0  0  0
  -32.1041  -16.0924   16.4747 C   0  0  0  0  0  0
  -29.4341  -19.5804   21.8062 C   0  0  0  0  0  0
  -29.6556  -18.4907   19.1289 C   0  0  0  0  0  0
  -28.5632  -24.7056   22.3200 C   0  0  0  0  0  0
  -30.3461  -24.4386   20.5803 C   0  0  0  0  0  0
  -28.8079  -26.2234   22.3833 C   0  0  0  0  0  0
  -30.5944  -25.9601   20.5941 C   0  0  0  0  0  0
  -28.9203  -16.2687   20.2194 C   0  0  0  0  0  0
  -29.8580  -23.9381   21.9548 C   0  0  2  0  0  0
  -28.9381  -17.7979   20.3039 C   0  0  1  0  0  0
  -29.3632  -26.7706   21.0481 C   0  0  1  0  0  0
  -26.8771  -19.8881   21.6026 C   0  0  0  0  0  0
  -32.2084  -22.1756   22.5600 C   0  0  0  0  0  0
  -30.8394  -19.6985   16.7193 C   0  0  0  0  0  0
  -32.5223  -18.0541   14.9241 C   0  0  0  0  0  0
  -32.0716  -18.7803   23.6943 C   0  0  0  0  0  0
  -31.8873  -19.1952   22.2302 C   0  0  0  0  0  0
  -30.1338  -15.6311   19.6955 N   0  0  0  0  0  0
  -32.8594  -15.3246   15.6328 O   0  0  0  0  0  0
  -29.3734  -18.2171   21.6016 O   0  0  0  0  0  0
  -31.4511  -12.4475   19.0337 H   0  0  0  0  0  0
  -30.3461  -11.3580   19.8461 H   0  0  0  0  0  0
  -29.7121  -11.6877   17.4239 H   0  0  0  0  0  0
  -29.5828  -13.4068   17.6691 H   0  0  0  0  0  0
  -27.8438  -11.2323   18.8638 H   0  0  0  0  0  0
  -27.3304  -12.4963   17.7846 H   0  0  0  0  0  0
  -27.6110  -14.1630   19.4205 H   0  0  0  0  0  0
  -28.7620  -12.0980   21.3802 H   0  0  0  0  0  0
  -28.5245  -13.7767   21.7672 H   0  0  0  0  0  0
  -25.2743   -9.5635   22.4825 H   0  0  0  0  0  0
  -24.0009   -7.4608   22.7482 H   0  0  0  0  0  0
  -21.0892   -8.8740   19.8955 H   0  0  0  0  0  0
  -22.3726  -10.9662   19.6221 H   0  0  0  0  0  0
  -21.1961   -7.6149   23.9734 H   0  0  0  0  0  0
  -21.1498   -6.0542   25.9100 H   0  0  0  0  0  0
  -22.0588   -2.7630   23.2845 H   0  0  0  0  0  0
  -22.4003  -11.9936   22.4802 H   0  0  0  0  0  0
  -21.1060  -13.1351   22.2526 H   0  0  0  0  0  0
  -24.6654  -15.8310   20.5115 H   0  0  0  0  0  0
  -26.2904  -15.6108   20.0957 H   0  0  0  0  0  0
  -26.7104  -32.5591   23.1203 H   0  0  0  0  0  0
  -25.0044  -33.9797   25.0493 H   0  0  0  0  0  0
  -22.6827  -31.3065   21.4116 H   0  0  0  0  0  0
  -23.3783  -35.9604   23.3180 H   0  0  0  0  0  0
  -24.3594  -36.9047   22.2069 H   0  0  0  0  0  0
  -23.7157  -37.6458   23.6708 H   0  0  0  0  0  0
  -26.0196  -31.6089   20.5840 H   0  0  0  0  0  0
  -26.8129  -30.9136   21.9662 H   0  0  0  0  0  0
  -28.0828  -29.1816   21.1550 H   0  0  0  0  0  0
  -26.1070  -25.9946   19.0077 H   0  0  0  0  0  0
  -23.9918  -27.2844   19.0423 H   0  0  0  0  0  0
  -23.7021  -30.5916   19.4036 H   0  0  0  0  0  0
  -22.7320  -29.2322   19.8787 H   0  0  0  0  0  0
  -25.1245  -36.1972   25.0830 H   0  0  0  0  0  0
  -20.9940  -28.3202   24.1456 H   0  0  0  0  0  0
  -20.5673  -26.2258   23.3605 H   0  0  0  0  0  0
  -21.6632  -26.7424   22.1223 H   0  0  0  0  0  0
  -19.6889  -25.6292   21.1245 H   0  0  0  0  0  0
  -19.6699  -27.3198   20.6752 H   0  0  0  0  0  0
  -17.4196  -26.6727   21.3997 H   0  0  0  0  0  0
  -18.0273  -26.0065   22.8992 H   0  0  0  0  0  0
  -19.7910  -30.7274   24.2289 H   0  0  0  0  0  0
  -17.4994  -31.6261   24.5163 H   0  0  0  0  0  0
  -15.5351  -30.2989   23.7638 H   0  0  0  0  0  0
  -15.8676  -28.0850   22.7018 H   0  0  0  0  0  0
  -24.5901  -30.7059   25.7803 H   0  0  0  0  0  0
  -24.8979  -32.2855   26.4976 H   0  0  0  0  0  0
  -25.8130  -30.8805   27.0199 H   0  0  0  0  0  0
  -26.2807  -29.6798   24.1158 H   0  0  0  0  0  0
  -27.4134  -29.7281   25.4471 H   0  0  0  0  0  0
  -27.8602  -30.4371   23.9119 H   0  0  0  0  0  0
  -27.2689  -33.3619   26.2039 H   0  0  0  0  0  0
  -28.3864  -32.6848   25.0298 H   0  0  0  0  0  0
  -28.0705  -31.8432   26.5388 H   0  0  0  0  0  0
  -28.2490  -38.0205   24.7697 H   0  0  0  0  0  0
  -28.1244  -36.2749   24.5965 H   0  0  0  0  0  0
  -27.2378  -37.1074   25.8843 H   0  0  0  0  0  0
  -20.9288  -29.8750   21.6984 H   0  0  0  0  0  0
  -26.0146  -38.2858   24.1600 H   0  0  0  0  0  0
  -27.5834  -22.4250   21.6585 H   0  0  0  0  0  0
  -31.7218  -14.4547   17.7897 H   0  0  0  0  0  0
  -28.8766  -18.9418   18.5115 H   0  0  0  0  0  0
  -30.2922  -19.3084   19.4637 H   0  0  0  0  0  0
  -27.7827  -24.5325   21.5788 H   0  0  0  0  0  0
  -28.1719  -24.3568   23.2761 H   0  0  0  0  0  0
  -31.2679  -23.9343   20.2938 H   0  0  0  0  0  0
  -29.6164  -24.1807   19.8128 H   0  0  0  0  0  0
  -29.5107  -26.4401   23.1882 H   0  0  0  0  0  0
  -27.8824  -26.7343   22.6530 H   0  0  0  0  0  0
  -30.9160  -26.2932   19.6070 H   0  0  0  0  0  0
  -31.4283  -26.1656   21.2660 H   0  0  0  0  0  0
  -28.1619  -16.0810   19.4666 H   0  0  0  0  0  0
  -28.5697  -15.8467   21.1580 H   0  0  0  0  0  0
  -30.5926  -24.2231   22.7074 H   0  0  0  0  0  0
  -27.8918  -18.0684   20.2113 H   0  0  0  0  0  0
  -29.6913  -27.8014   21.1730 H   0  0  0  0  0  0
  -26.1893  -20.5080   22.1791 H   0  0  0  0  0  0
  -26.7891  -18.8718   21.9889 H   0  0  0  0  0  0
  -26.5469  -19.9080   20.5640 H   0  0  0  0  0  0
  -32.6075  -22.7651   21.7342 H   0  0  0  0  0  0
  -32.9773  -21.4609   22.8435 H   0  0  0  0  0  0
  -32.0978  -22.8191   23.4336 H   0  0  0  0  0  0
  -30.2133  -20.2465   17.4150 H   0  0  0  0  0  0
  -30.3512  -19.7780   15.7467 H   0  0  0  0  0  0
  -31.7858  -20.2352   16.6758 H   0  0  0  0  0  0
  -33.6078  -17.9607   14.9569 H   0  0  0  0  0  0
  -32.3042  -19.1077   14.7528 H   0  0  0  0  0  0
  -32.1691  -17.5213   14.0395 H   0  0  0  0  0  0
  -32.9306  -18.1201   23.8089 H   0  0  0  0  0  0
  -31.1893  -18.2527   24.0582 H   0  0  0  0  0  0
  -32.2280  -19.6482   24.3336 H   0  0  0  0  0  0
  -32.7959  -19.6334   21.8232 H   0  0  0  0  0  0
  -31.7458  -18.3020   21.6192 H   0  0  0  0  0  0
  -32.9111  -14.4135   15.9003 H   0  0  0  0  0  0
  1 25  1  0  0  0
  1 30  2  0  0  0
  1 98  1  0  0  0
  2  3  1  0  0  0
  2 25  1  0  0  0
  2101  1  0  0  0
  2102  1  0  0  0
  3  4  1  0  0  0
  3103  1  0  0  0
  3104  1  0  0  0
  4  5  1  0  0  0
  4105  1  0  0  0
  4106  1  0  0  0
  5  6  1  0  0  0
  5 26  1  0  0  0
  5107  1  0  0  0
  6 25  1  0  0  0
  6108  1  0  0  0
  6109  1  0  0  0
  7  8  2  0  0  0
  7 26  1  0  0  0
  7 29  1  0  0  0
  8  9  1  0  0  0
  8 22  1  0  0  0
  9 10  1  0  0  0
  9 27  2  0  0  0
 10 11  2  0  0  0
 10 15  1  0  0  0
 11 12  1  0  0  0
 11110  1  0  0  0
 12 13  2  0  0  0
 12111  1  0  0  0
 13 14  1  0  0  0
 13 31  1  0  0  0
 14 15  2  0  0  0
 14112  1  0  0  0
 15113  1  0  0  0
 16 17  2  0  0  0
 16 21  1  0  0  0
 16 31  1  0  0  0
 17 18  1  0  0  0
 17114  1  0  0  0
 18 19  2  0  0  0
 18115  1  0  0  0
 19 20  1  0  0  0
 19 24  1  0  0  0
 20 21  2  0  0  0
 20116  1  0  0  0
 21 23  1  0  0  0
 22 28  1  0  0  0
 22 32  2  0  0  0
 26 27  1  0  0  0
 28117  1  0  0  0
 28118  1  0  0  0
 29119  1  0  0  0
 29120  1  0  0  0
 33 34  1  0  0  0
 33 66  1  0  0  0
 33 70  2  0  0  0
 34 36  1  0  0  0
 34 59  1  0  0  0
 34121  1  0  0  0
 35 44  2  0  0  0
 35 45  1  0  0  0
 35 68  1  0  0  0
 36 56  1  0  0  0
 36122  1  0  0  0
 37 39  1  0  0  0
 37 47  1  0  0  0
 37 66  1  0  0  0
 37123  1  0  0  0
 38 43  2  0  0  0
 38 46  1  0  0  0
 38 47  1  0  0  0
 39 64  1  0  0  0
 39 67  2  0  0  0
 40 52  1  0  0  0
 40 53  2  0  0  0
 40 58  1  0  0  0
 41124  1  0  0  0
 41125  1  0  0  0
 41126  1  0  0  0
 41 48  1  0  0  0
 42 43  1  0  0  0
 42 66  1  0  0  0
 42127  1  0  0  0
 42128  1  0  0  0
 43 44  1  0  0  0
 44129  1  0  0  0
 45 46  2  0  0  0
 45130  1  0  0  0
 46131  1  0  0  0
 47132  1  0  0  0
 47133  1  0  0  0
 48 56  1  0  0  0
 48 65  1  0  0  0
 48134  1  0  0  0
 49 50  1  0  0  0
 49 53  1  0  0  0
 49 64  1  0  0  0
 49135  1  0  0  0
 50 51  1  0  0  0
 50136  1  0  0  0
 50137  1  0  0  0
 51 52  1  0  0  0
 51138  1  0  0  0
 51139  1  0  0  0
 52140  1  0  0  0
 52141  1  0  0  0
 53 54  1  0  0  0
 54 55  2  0  0  0
 54142  1  0  0  0
 55 57  1  0  0  0
 55143  1  0  0  0
 56 69  2  0  0  0
 57 58  2  0  0  0
 57144  1  0  0  0
 58145  1  0  0  0
 59 60  1  0  0  0
 59 61  1  0  0  0
 59 62  1  0  0  0
 60146  1  0  0  0
 60147  1  0  0  0
 60148  1  0  0  0
 61149  1  0  0  0
 61150  1  0  0  0
 61151  1  0  0  0
 62152  1  0  0  0
 62153  1  0  0  0
 62154  1  0  0  0
 63 65  1  0  0  0
 63155  1  0  0  0
 63156  1  0  0  0
 63157  1  0  0  0
 64158  1  0  0  0
 65159  1  0  0  0
 68 91  1  0  0  0
 71 73  2  0  0  0
 71 75  1  0  0  0
 71160  1  0  0  0
 72 80  2  0  0  0
 72 81  1  0  0  0
 72161  1  0  0  0
 73 76  1  0  0  0
 73 89  1  0  0  0
 74 77  2  0  0  0
 74 80  1  0  0  0
 74 83  1  0  0  0
 75 82  2  0  0  0
 75 92  1  0  0  0
 76 79  2  0  0  0
 76 93  1  0  0  0
 77 78  1  0  0  0
 77 94  1  0  0  0
 78 81  2  0  0  0
 78 95  1  0  0  0
 79 82  1  0  0  0
 79 97  1  0  0  0
 80 98  1  0  0  0
 81 99  1  0  0  0
 82100  1  0  0  0
 83 90  1  0  0  0
 83162  1  0  0  0
 83163  1  0  0  0
 84 86  1  0  0  0
 84 89  1  0  0  0
 84164  1  0  0  0
 84165  1  0  0  0
 85 87  1  0  0  0
 85 89  1  0  0  0
 85166  1  0  0  0
 85167  1  0  0  0
 86 91  1  0  0  0
 86168  1  0  0  0
 86169  1  0  0  0
 87 91  1  0  0  0
 87170  1  0  0  0
 87171  1  0  0  0
 88 90  1  0  0  0
 88 98  1  0  0  0
 88172  1  0  0  0
 88173  1  0  0  0
 89174  1  0  0  0
 90100  1  0  0  0
 90175  1  0  0  0
 91176  1  0  0  0
 92177  1  0  0  0
 92178  1  0  0  0
 92179  1  0  0  0
 93180  1  0  0  0
 93181  1  0  0  0
 93182  1  0  0  0
 94183  1  0  0  0
 94184  1  0  0  0
 94185  1  0  0  0
 95186  1  0  0  0
 95187  1  0  0  0
 95188  1  0  0  0
 96 97  1  0  0  0
 96189  1  0  0  0
 96190  1  0  0  0
 96191  1  0  0  0
 97192  1  0  0  0
 97193  1  0  0  0
 99194  1  0  0  0
M  ISO  4   1 100  68 101  91 101  98 100
M  END
> <chiral flag>
0

> <version>
0

> <s_m_source_file>
/data/baiqing/PycharmProjects/Reinvent-master-3.2/result/LINK_invent/BTK/process_docking_weight1_custom_sum_contain_oxygen_bond_distance_aromatic_linkinvent_7_9_3/rearranged_h_0156.sdf

> <i_m_source_file_index>
79

> <r_mmod_Potential_Energy-OPLS-2005>
214.619293212891

> <r_mmod_Stretch_Energy-OPLS-2005>
51.133358001709

> <r_mmod_Bend_Energy-OPLS-2005>
140.524963378906

> <r_mmod_Torsional_Energy-OPLS-2005>
365.406860351562

> <r_mmod_Improper_Torsional_Energy-OPLS-2005>
22.1776161193848

> <r_mmod_Van_der_Waal_Energy-OPLS-2005>
208.461410522461

> <r_mmod_Electrostatic_Energy-OPLS-2005>
-412.474792480469

> <r_mmod_Solvation_Energy-OPLS-2005>
-208.778610229492

> <b_mmod_Minimization_Converged-OPLS-2005>
0

> <r_mmod_RMS_Derivative-OPLS-2005>
4.54840040206909

$$$$
79
                    3D
 Structure written by MMmdl.
165173  0  0  1  0            999 V2000
  -30.7885  -14.3676   20.6878 C   0  0  0  0  0  0
  -30.4129  -12.2964   19.3973 C   0  0  0  0  0  0
  -29.4815  -12.5189   18.1928 C   0  0  0  0  0  0
  -28.0089  -12.3691   18.6138 C   0  0  0  0  0  0
  -27.6646  -13.2050   19.8739 C   0  0  2  0  0  0
  -28.7028  -12.9718   20.9931 C   0  0  0  0  0  0
  -25.2607  -13.8161   20.5668 C   0  0  0  0  0  0
  -24.1849  -13.0444   20.9152 C   0  0  0  0  0  0
  -24.6401  -11.6909   20.8718 C   0  0  0  0  0  0
  -23.9072  -10.4294   21.0401 C   0  0  0  0  0  0
  -24.3621   -9.4211   21.9187 C   0  0  0  0  0  0
  -23.6290   -8.2250   22.0766 C   0  0  0  0  0  0
  -22.4276   -8.0288   21.3556 C   0  0  0  0  0  0
  -21.9911   -9.0261   20.4651 C   0  0  0  0  0  0
  -22.7241  -10.2134   20.3052 C   0  0  0  0  0  0
  -21.6851   -6.0744   22.5287 C   0  0  0  0  0  0
  -21.4008   -6.5649   23.8221 C   0  0  0  0  0  0
  -21.3650   -5.6795   24.9177 C   0  0  0  0  0  0
  -21.6035   -4.3059   24.7220 C   0  0  0  0  0  0
  -21.8819   -3.8154   23.4342 C   0  0  0  0  0  0
  -21.9195   -4.6975   22.3401 C   0  0  0  0  0  0
  -22.7870  -13.5257   21.1824 C   0  0  0  0  0  0
  -22.1666   -4.2163   21.0979 F   0  0  0  0  0  0
  -21.5619   -3.4542   25.7732 F   0  0  0  0  0  0
  -30.0456  -13.2544   20.4520 N   0  0  0  0  0  0
  -26.3042  -12.9328   20.3357 N   0  0  0  0  0  0
  -25.9327  -11.6490   20.5752 N   0  0  0  0  0  0
  -22.0515  -12.8241   22.0375 N   0  0  0  0  0  0
  -25.4345  -15.1877   20.4081 N   0  0  0  0  0  0
  -31.8108  -14.6413   20.0528 O   0  0  0  0  0  0
  -21.6638   -6.8888   21.4251 O   0  0  0  0  0  0
  -22.3564  -14.5581   20.6702 O   0  0  0  0  0  0
  -24.6137  -31.8703   23.2137 C   0  0  0  0  0  0
  -25.9045  -32.4828   23.8415 C   0  0  1  0  0  0
  -27.2292  -27.4458   20.0818 C   0  0  0  0  0  0
  -25.5915  -33.8628   24.2349 N   0  0  0  0  0  0
  -23.3989  -30.4971   21.5551 C   0  0  2  0  0  0
  -24.8414  -28.9704   20.1135 C   0  0  0  0  0  0
  -22.7405  -29.4670   22.5010 C   0  0  0  0  0  0
  -18.0267  -28.1370   22.8494 C   0  0  0  0  0  0
  -24.1478  -36.7297   23.2634 C   0  0  0  0  0  0
  -25.9285  -30.8377   21.3668 C   0  0  0  0  0  0
  -26.0023  -29.4749   20.7106 C   0  0  0  0  0  0
  -27.1964  -28.7188   20.6955 C   0  0  0  0  0  0
  -26.0450  -26.9633   19.4692 C   0  0  0  0  0  0
  -24.8569  -27.7127   19.4918 C   0  0  0  0  0  0
  -23.6039  -29.8354   20.1674 C   0  0  0  0  0  0
  -25.4095  -36.3109   24.0349 C   0  0  1  0  0  0
  -20.5860  -28.3648   23.1326 C   0  0  2  0  0  0
  -20.6756  -26.9385   22.5420 C   0  0  0  0  0  0
  -19.5740  -26.6375   21.5213 C   0  0  0  0  0  0
  -18.1915  -26.7920   22.1615 C   0  0  0  0  0  0
  -19.1518  -28.8822   23.2909 C   0  0  0  0  0  0
  -18.9450  -30.1436   23.8907 C   0  0  0  0  0  0
  -17.6452  -30.6577   24.0565 C   0  0  0  0  0  0
  -25.9034  -34.9482   23.5141 C   0  0  0  0  0  0
  -16.5343  -29.9074   23.6334 C   0  0  0  0  0  0
  -16.7259  -28.6496   23.0350 C   0  0  0  0  0  0
  -26.4468  -31.6595   25.0731 C   0  0  0  0  0  0
  -25.3740  -31.3687   26.1485 C   0  0  0  0  0  0
  -27.0297  -30.3046   24.6083 C   0  0  0  0  0  0
  -27.6046  -32.4311   25.7490 C   0  0  0  0  0  0
  -27.5590  -37.1786   24.8457 C   0  0  0  0  0  0
  -21.4135  -29.3024   22.3743 N   0  0  0  0  0  0
  -26.4271  -37.3811   23.9446 N   0  0  0  0  0  0
  -24.6654  -31.0816   22.1036 N   0  0  0  0  0  0
  -23.4191  -28.8208   23.3040 O   0  0  0  0  0  0
  -28.4082  -26.7239   20.1064 O   0  0  0  0  0  0
  -26.5582  -34.8936   22.4696 O   0  0  0  0  0  0
  -23.5336  -32.1445   23.7546 O   0  0  0  0  0  0
  -31.0697  -20.0871   20.2715 C   0  0  0  0  0  0
  -28.8049  -20.2056   21.1350 C   0  0  0  0  0  0
  -30.9499  -21.4030   19.7730 C   0  0  0  0  0  0
  -28.6722  -21.5221   20.6409 C   0  0  0  0  0  0
  -29.9899  -19.4696   20.9427 C   0  0  0  0  0  0
  -29.7507  -22.1298   19.9484 C   0  0  0  0  0  0
  -32.1117  -22.0325   19.0255 C   0  0  0  0  0  0
  -27.3433  -22.2306   20.8235 C   0  0  0  0  0  0
  -30.6898  -16.4210   23.7994 C   0  0  0  0  0  0
  -31.3114  -17.4478   21.5299 C   0  0  0  0  0  0
  -28.3461  -25.3535   19.6968 C   0  0  0  0  0  0
  -29.5539  -24.5198   20.1595 C   0  0  0  0  0  0
  -31.2022  -16.1570   22.3736 C   0  0  2  0  0  0
  -30.0374  -18.1451   21.4076 N   0  0  0  0  0  0
  -30.3966  -15.1169   21.7291 N   0  0  0  0  0  0
  -29.6409  -23.3573   19.3337 O   0  0  0  0  0  0
  -31.4557  -12.3902   19.0894 H   0  0  0  0  0  0
  -30.3088  -11.2783   19.7757 H   0  0  0  0  0  0
  -29.7156  -11.8082   17.3990 H   0  0  0  0  0  0
  -29.6476  -13.5122   17.7743 H   0  0  0  0  0  0
  -27.8252  -11.3120   18.8093 H   0  0  0  0  0  0
  -27.3508  -12.6430   17.7885 H   0  0  0  0  0  0
  -27.7167  -14.2550   19.5850 H   0  0  0  0  0  0
  -28.6636  -11.9361   21.3343 H   0  0  0  0  0  0
  -28.4476  -13.5726   21.8651 H   0  0  0  0  0  0
  -25.2770   -9.5680   22.4755 H   0  0  0  0  0  0
  -23.9991   -7.4648   22.7493 H   0  0  0  0  0  0
  -21.0843   -8.8787   19.8958 H   0  0  0  0  0  0
  -22.3724  -10.9674   19.6151 H   0  0  0  0  0  0
  -21.2000   -7.6156   23.9728 H   0  0  0  0  0  0
  -21.1462   -6.0523   25.9078 H   0  0  0  0  0  0
  -22.0600   -2.7619   23.2842 H   0  0  0  0  0  0
  -22.4130  -11.9884   22.4727 H   0  0  0  0  0  0
  -21.1138  -13.1271   22.2599 H   0  0  0  0  0  0
  -24.6731  -15.8476   20.5204 H   0  0  0  0  0  0
  -26.2987  -15.6256   20.1130 H   0  0  0  0  0  0
  -26.7115  -32.5542   23.1178 H   0  0  0  0  0  0
  -25.0109  -33.9795   25.0525 H   0  0  0  0  0  0
  -22.6873  -31.3145   21.4216 H   0  0  0  0  0  0
  -23.3775  -35.9590   23.3239 H   0  0  0  0  0  0
  -24.3595  -36.8961   22.2062 H   0  0  0  0  0  0
  -23.7171  -37.6465   23.6672 H   0  0  0  0  0  0
  -26.0434  -31.6066   20.6013 H   0  0  0  0  0  0
  -26.8164  -30.8865   21.9849 H   0  0  0  0  0  0
  -28.0928  -29.1058   21.1602 H   0  0  0  0  0  0
  -26.0065  -26.0138   18.9564 H   0  0  0  0  0  0
  -23.9659  -27.3224   19.0185 H   0  0  0  0  0  0
  -23.7098  -30.6129   19.4103 H   0  0  0  0  0  0
  -22.7272  -29.2554   19.8728 H   0  0  0  0  0  0
  -25.1259  -36.1961   25.0843 H   0  0  0  0  0  0
  -20.9947  -28.3191   24.1446 H   0  0  0  0  0  0
  -20.5649  -26.2251   23.3601 H   0  0  0  0  0  0
  -21.6627  -26.7432   22.1206 H   0  0  0  0  0  0
  -19.6896  -25.6291   21.1223 H   0  0  0  0  0  0
  -19.6682  -27.3195   20.6754 H   0  0  0  0  0  0
  -17.4193  -26.6697   21.4006 H   0  0  0  0  0  0
  -18.0293  -26.0047   22.8990 H   0  0  0  0  0  0
  -19.7928  -30.7256   24.2267 H   0  0  0  0  0  0
  -17.5011  -31.6263   24.5153 H   0  0  0  0  0  0
  -15.5344  -30.2983   23.7661 H   0  0  0  0  0  0
  -15.8657  -28.0829   22.7050 H   0  0  0  0  0  0
  -24.5940  -30.6998   25.7831 H   0  0  0  0  0  0
  -24.8902  -32.2832   26.4928 H   0  0  0  0  0  0
  -25.8108  -30.8877   27.0245 H   0  0  0  0  0  0
  -26.2837  -29.6810   24.1142 H   0  0  0  0  0  0
  -27.4097  -29.7269   25.4517 H   0  0  0  0  0  0
  -27.8657  -30.4382   23.9213 H   0  0  0  0  0  0
  -27.2673  -33.3615   26.2072 H   0  0  0  0  0  0
  -28.3854  -32.6858   25.0311 H   0  0  0  0  0  0
  -28.0710  -31.8431   26.5404 H   0  0  0  0  0  0
  -28.2539  -38.0156   24.7625 H   0  0  0  0  0  0
  -28.1158  -36.2703   24.6105 H   0  0  0  0  0  0
  -27.2344  -37.1206   25.8864 H   0  0  0  0  0  0
  -20.9279  -29.8761   21.6991 H   0  0  0  0  0  0
  -26.0152  -38.2870   24.1528 H   0  0  0  0  0  0
  -31.9936  -19.5527   20.1071 H   0  0  0  0  0  0
  -27.9703  -19.7468   21.6466 H   0  0  0  0  0  0
  -32.9810  -21.3746   19.0016 H   0  0  0  0  0  0
  -32.4100  -22.9654   19.5046 H   0  0  0  0  0  0
  -31.8271  -22.2538   17.9964 H   0  0  0  0  0  0
  -26.5808  -21.5558   21.2134 H   0  0  0  0  0  0
  -26.9829  -22.6175   19.8705 H   0  0  0  0  0  0
  -27.4424  -23.0524   21.5318 H   0  0  0  0  0  0
  -31.3103  -17.1645   24.3008 H   0  0  0  0  0  0
  -30.7206  -15.5144   24.4041 H   0  0  0  0  0  0
  -29.6642  -16.7905   23.8072 H   0  0  0  0  0  0
  -31.7028  -17.2255   20.5359 H   0  0  0  0  0  0
  -32.0361  -18.1128   22.0041 H   0  0  0  0  0  0
  -27.4513  -24.8744   20.0890 H   0  0  0  0  0  0
  -28.2847  -25.3298   18.6079 H   0  0  0  0  0  0
  -29.4878  -24.2867   21.2234 H   0  0  0  0  0  0
  -30.4709  -25.0918   20.0181 H   0  0  0  0  0  0
  -32.2143  -15.7577   22.4739 H   0  0  0  0  0  0
  -29.2551  -17.7770   21.9395 H   0  0  0  0  0  0
  -29.5481  -14.8321   22.1925 H   0  0  0  0  0  0
  1 25  1  0  0  0
  1 30  2  0  0  0
  1 85  1  0  0  0
  2  3  1  0  0  0
  2 25  1  0  0  0
  2 87  1  0  0  0
  2 88  1  0  0  0
  3  4  1  0  0  0
  3 89  1  0  0  0
  3 90  1  0  0  0
  4  5  1  0  0  0
  4 91  1  0  0  0
  4 92  1  0  0  0
  5  6  1  0  0  0
  5 26  1  0  0  0
  5 93  1  0  0  0
  6 25  1  0  0  0
  6 94  1  0  0  0
  6 95  1  0  0  0
  7  8  2  0  0  0
  7 26  1  0  0  0
  7 29  1  0  0  0
  8  9  1  0  0  0
  8 22  1  0  0  0
  9 10  1  0  0  0
  9 27  2  0  0  0
 10 11  2  0  0  0
 10 15  1  0  0  0
 11 12  1  0  0  0
 11 96  1  0  0  0
 12 13  2  0  0  0
 12 97  1  0  0  0
 13 14  1  0  0  0
 13 31  1  0  0  0
 14 15  2  0  0  0
 14 98  1  0  0  0
 15 99  1  0  0  0
 16 17  2  0  0  0
 16 21  1  0  0  0
 16 31  1  0  0  0
 17 18  1  0  0  0
 17100  1  0  0  0
 18 19  2  0  0  0
 18101  1  0  0  0
 19 20  1  0  0  0
 19 24  1  0  0  0
 20 21  2  0  0  0
 20102  1  0  0  0
 21 23  1  0  0  0
 22 28  1  0  0  0
 22 32  2  0  0  0
 26 27  1  0  0  0
 28103  1  0  0  0
 28104  1  0  0  0
 29105  1  0  0  0
 29106  1  0  0  0
 33 34  1  0  0  0
 33 66  1  0  0  0
 33 70  2  0  0  0
 34 36  1  0  0  0
 34 59  1  0  0  0
 34107  1  0  0  0
 35 44  2  0  0  0
 35 45  1  0  0  0
 35 68  1  0  0  0
 36 56  1  0  0  0
 36108  1  0  0  0
 37 39  1  0  0  0
 37 47  1  0  0  0
 37 66  1  0  0  0
 37109  1  0  0  0
 38 43  2  0  0  0
 38 46  1  0  0  0
 38 47  1  0  0  0
 39 64  1  0  0  0
 39 67  2  0  0  0
 40 52  1  0  0  0
 40 53  2  0  0  0
 40 58  1  0  0  0
 41110  1  0  0  0
 41111  1  0  0  0
 41112  1  0  0  0
 41 48  1  0  0  0
 42 43  1  0  0  0
 42 66  1  0  0  0
 42113  1  0  0  0
 42114  1  0  0  0
 43 44  1  0  0  0
 44115  1  0  0  0
 45 46  2  0  0  0
 45116  1  0  0  0
 46117  1  0  0  0
 47118  1  0  0  0
 47119  1  0  0  0
 48 56  1  0  0  0
 48 65  1  0  0  0
 48120  1  0  0  0
 49 50  1  0  0  0
 49 53  1  0  0  0
 49 64  1  0  0  0
 49121  1  0  0  0
 50 51  1  0  0  0
 50122  1  0  0  0
 50123  1  0  0  0
 51 52  1  0  0  0
 51124  1  0  0  0
 51125  1  0  0  0
 52126  1  0  0  0
 52127  1  0  0  0
 53 54  1  0  0  0
 54 55  2  0  0  0
 54128  1  0  0  0
 55 57  1  0  0  0
 55129  1  0  0  0
 56 69  2  0  0  0
 57 58  2  0  0  0
 57130  1  0  0  0
 58131  1  0  0  0
 59 60  1  0  0  0
 59 61  1  0  0  0
 59 62  1  0  0  0
 60132  1  0  0  0
 60133  1  0  0  0
 60134  1  0  0  0
 61135  1  0  0  0
 61136  1  0  0  0
 61137  1  0  0  0
 62138  1  0  0  0
 62139  1  0  0  0
 62140  1  0  0  0
 63 65  1  0  0  0
 63141  1  0  0  0
 63142  1  0  0  0
 63143  1  0  0  0
 64144  1  0  0  0
 65145  1  0  0  0
 68 81  1  0  0  0
 71 73  2  0  0  0
 71 75  1  0  0  0
 71146  1  0  0  0
 72 74  1  0  0  0
 72 75  2  0  0  0
 72147  1  0  0  0
 73 76  1  0  0  0
 73 77  1  0  0  0
 74 76  2  0  0  0
 74 78  1  0  0  0
 75 84  1  0  0  0
 76 86  1  0  0  0
 77148  1  0  0  0
 77149  1  0  0  0
 77150  1  0  0  0
 78151  1  0  0  0
 78152  1  0  0  0
 78153  1  0  0  0
 79154  1  0  0  0
 79155  1  0  0  0
 79156  1  0  0  0
 79 83  1  0  0  0
 80 83  1  0  0  0
 80 84  1  0  0  0
 80157  1  0  0  0
 80158  1  0  0  0
 81 82  1  0  0  0
 81159  1  0  0  0
 81160  1  0  0  0
 82 86  1  0  0  0
 82161  1  0  0  0
 82162  1  0  0  0
 83 85  1  0  0  0
 83163  1  0  0  0
 84164  1  0  0  0
 85165  1  0  0  0
M  ISO  4   1 100  68 101  81 101  85 100
M  END
> <chiral flag>
0

> <version>
0

> <s_m_source_file>
/data/baiqing/PycharmProjects/Reinvent-master-3.2/result/LINK_invent/BTK/process_docking_weight1_custom_sum_contain_oxygen_bond_distance_aromatic_linkinvent_7_9_3/rearranged_h_0156.sdf

> <i_m_source_file_index>
80

> <r_mmod_Potential_Energy-OPLS-2005>
-145.594314575195

> <r_mmod_Stretch_Energy-OPLS-2005>
34.5868873596191

> <r_mmod_Bend_Energy-OPLS-2005>
105.956832885742

> <r_mmod_Torsional_Energy-OPLS-2005>
232.499755859375

> <r_mmod_Improper_Torsional_Energy-OPLS-2005>
3.73592019081116

> <r_mmod_Van_der_Waal_Energy-OPLS-2005>
162.728820800781

> <r_mmod_Electrostatic_Energy-OPLS-2005>
-482.819091796875

> <r_mmod_Solvation_Energy-OPLS-2005>
-211.26025390625

> <b_mmod_Minimization_Converged-OPLS-2005>
0

> <r_mmod_RMS_Derivative-OPLS-2005>
1.11277234554291

$$$$
80
                    3D
 Structure written by MMmdl.
164172  0  0  1  0            999 V2000
  -30.5737  -14.7325   20.4713 C   0  0  0  0  0  0
  -30.4374  -12.4467   19.4733 C   0  0  0  0  0  0
  -29.5174  -12.5150   18.2337 C   0  0  0  0  0  0
  -28.0376  -12.3524   18.6365 C   0  0  0  0  0  0
  -27.6469  -13.2263   19.8597 C   0  0  2  0  0  0
  -28.6891  -13.1136   20.9934 C   0  0  0  0  0  0
  -25.2530  -13.8194   20.5734 C   0  0  0  0  0  0
  -24.1820  -13.0449   20.9250 C   0  0  0  0  0  0
  -24.6383  -11.6918   20.8727 C   0  0  0  0  0  0
  -23.9067  -10.4302   21.0406 C   0  0  0  0  0  0
  -24.3612   -9.4214   21.9184 C   0  0  0  0  0  0
  -23.6292   -8.2247   22.0742 C   0  0  0  0  0  0
  -22.4270   -8.0283   21.3546 C   0  0  0  0  0  0
  -21.9920   -9.0256   20.4638 C   0  0  0  0  0  0
  -22.7241  -10.2141   20.3055 C   0  0  0  0  0  0
  -21.6856   -6.0737   22.5281 C   0  0  0  0  0  0
  -21.4021   -6.5634   23.8215 C   0  0  0  0  0  0
  -21.3670   -5.6775   24.9170 C   0  0  0  0  0  0
  -21.6037   -4.3039   24.7216 C   0  0  0  0  0  0
  -21.8819   -3.8146   23.4334 C   0  0  0  0  0  0
  -21.9201   -4.6971   22.3391 C   0  0  0  0  0  0
  -22.7841  -13.5235   21.1890 C   0  0  0  0  0  0
  -22.1667   -4.2163   21.0969 F   0  0  0  0  0  0
  -21.5624   -3.4504   25.7726 F   0  0  0  0  0  0
  -29.9898  -13.4872   20.4253 N   0  0  0  0  0  0
  -26.2954  -12.9384   20.3285 N   0  0  0  0  0  0
  -25.9310  -11.6531   20.5719 N   0  0  0  0  0  0
  -22.0445  -12.8237   22.0409 N   0  0  0  0  0  0
  -25.4212  -15.1931   20.4184 N   0  0  0  0  0  0
  -31.7432  -14.8860   20.1097 O   0  0  0  0  0  0
  -21.6629   -6.8887   21.4246 O   0  0  0  0  0  0
  -22.3551  -14.5529   20.6695 O   0  0  0  0  0  0
  -24.6304  -31.8562   23.2014 C   0  0  0  0  0  0
  -25.9124  -32.4786   23.8343 C   0  0  1  0  0  0
  -27.2095  -27.2469   20.1392 C   0  0  0  0  0  0
  -25.5940  -33.8582   24.2286 N   0  0  0  0  0  0
  -23.4257  -30.4819   21.5454 C   0  0  2  0  0  0
  -24.8745  -28.9295   20.1146 C   0  0  0  0  0  0
  -22.7496  -29.4608   22.4935 C   0  0  0  0  0  0
  -18.0287  -28.1347   22.8466 C   0  0  0  0  0  0
  -24.1487  -36.7258   23.2639 C   0  0  0  0  0  0
  -25.9719  -30.7708   21.3794 C   0  0  0  0  0  0
  -26.0486  -29.3894   20.7246 C   0  0  0  0  0  0
  -27.2213  -28.5609   20.7232 C   0  0  0  0  0  0
  -26.0140  -26.8711   19.4821 C   0  0  0  0  0  0
  -24.8646  -27.6798   19.4814 C   0  0  0  0  0  0
  -23.6438  -29.8172   20.1611 C   0  0  0  0  0  0
  -25.4122  -36.3080   24.0336 C   0  0  1  0  0  0
  -20.5896  -28.3654   23.1271 C   0  0  2  0  0  0
  -20.6793  -26.9392   22.5371 C   0  0  0  0  0  0
  -19.5760  -26.6354   21.5180 C   0  0  0  0  0  0
  -18.1938  -26.7900   22.1591 C   0  0  0  0  0  0
  -19.1541  -28.8818   23.2870 C   0  0  0  0  0  0
  -18.9468  -30.1417   23.8906 C   0  0  0  0  0  0
  -17.6485  -30.6560   24.0558 C   0  0  0  0  0  0
  -25.9050  -34.9453   23.5104 C   0  0  0  0  0  0
  -16.5365  -29.9062   23.6330 C   0  0  0  0  0  0
  -16.7274  -28.6478   23.0361 C   0  0  0  0  0  0
  -26.4515  -31.6580   25.0691 C   0  0  0  0  0  0
  -25.3740  -31.3680   26.1397 C   0  0  0  0  0  0
  -27.0368  -30.3013   24.6129 C   0  0  0  0  0  0
  -27.6087  -32.4293   25.7448 C   0  0  0  0  0  0
  -27.5583  -37.1799   24.8484 C   0  0  0  0  0  0
  -21.4198  -29.3030   22.3680 N   0  0  0  0  0  0
  -26.4301  -37.3781   23.9410 N   0  0  0  0  0  0
  -24.6955  -31.0534   22.0988 N   0  0  0  0  0  0
  -23.4203  -28.8140   23.3017 O   0  0  0  0  0  0
  -28.2859  -26.3246   20.2031 O   0  0  0  0  0  0
  -26.5620  -34.8919   22.4665 O   0  0  0  0  0  0
  -23.5466  -32.1351   23.7336 O   0  0  0  0  0  0
  -27.2816  -21.5905   20.8405 C   0  0  0  0  0  0
  -28.6058  -22.1072   20.6301 C   0  0  0  0  0  0
  -27.3588  -20.2416   21.1344 C   0  0  0  0  0  0
  -29.4171  -20.9546   20.6906 C   0  0  0  0  0  0
  -25.9851  -22.3754   20.8320 C   0  0  0  0  0  0
  -26.2269  -19.3538   21.5911 C   0  0  0  0  0  0
  -30.9064  -20.8689   20.5331 C   0  0  0  0  0  0
  -29.7143  -18.3240   22.7903 C   0  0  0  0  0  0
  -29.9100  -17.3146   20.4233 C   0  0  0  0  0  0
  -27.9579  -24.8617   20.4153 C   0  0  0  0  0  0
  -29.0438  -23.6480   20.4372 C   0  0  1  0  0  0
  -29.1053  -18.3289   21.3815 C   0  0  2  0  0  0
  -28.6759  -19.7757   21.0093 N   0  0  0  0  0  0
  -29.7465  -15.8157   20.7171 N   0  0  0  0  0  0
  -29.9585  -23.9734   21.4651 O   0  0  0  0  0  0
  -31.4768  -12.5824   19.1723 H   0  0  0  0  0  0
  -30.3874  -11.4619   19.9396 H   0  0  0  0  0  0
  -29.7930  -11.7383   17.5195 H   0  0  0  0  0  0
  -29.6577  -13.4687   17.7212 H   0  0  0  0  0  0
  -27.8735  -11.2994   18.8658 H   0  0  0  0  0  0
  -27.3907  -12.5853   17.7884 H   0  0  0  0  0  0
  -27.6543  -14.2587   19.5084 H   0  0  0  0  0  0
  -28.7241  -12.0984   21.3955 H   0  0  0  0  0  0
  -28.4245  -13.7611   21.8307 H   0  0  0  0  0  0
  -25.2748   -9.5696   22.4765 H   0  0  0  0  0  0
  -23.9997   -7.4643   22.7464 H   0  0  0  0  0  0
  -21.0853   -8.8794   19.8934 H   0  0  0  0  0  0
  -22.3709  -10.9692   19.6168 H   0  0  0  0  0  0
  -21.2000   -7.6140   23.9733 H   0  0  0  0  0  0
  -21.1499   -6.0489   25.9081 H   0  0  0  0  0  0
  -22.0589   -2.7611   23.2816 H   0  0  0  0  0  0
  -22.4031  -11.9899   22.4822 H   0  0  0  0  0  0
  -21.1049  -13.1302   22.2544 H   0  0  0  0  0  0
  -24.6436  -15.8356   20.5364 H   0  0  0  0  0  0
  -26.2307  -15.6280   19.9962 H   0  0  0  0  0  0
  -26.7188  -32.5469   23.1087 H   0  0  0  0  0  0
  -25.0134  -33.9737   25.0464 H   0  0  0  0  0  0
  -22.7200  -31.3052   21.4060 H   0  0  0  0  0  0
  -23.3774  -35.9570   23.3308 H   0  0  0  0  0  0
  -24.3571  -36.8857   22.2053 H   0  0  0  0  0  0
  -23.7225  -37.6449   23.6639 H   0  0  0  0  0  0
  -26.1017  -31.5336   20.6100 H   0  0  0  0  0  0
  -26.8493  -30.8257   22.0114 H   0  0  0  0  0  0
  -28.1202  -28.9013   21.2187 H   0  0  0  0  0  0
  -25.9266  -25.9309   18.9627 H   0  0  0  0  0  0
  -23.9659  -27.3264   18.9942 H   0  0  0  0  0  0
  -23.7660  -30.5913   19.4032 H   0  0  0  0  0  0
  -22.7601  -29.2519   19.8560 H   0  0  0  0  0  0
  -25.1310  -36.1935   25.0842 H   0  0  0  0  0  0
  -20.9970  -28.3198   24.1403 H   0  0  0  0  0  0
  -20.5708  -26.2221   23.3524 H   0  0  0  0  0  0
  -21.6655  -26.7453   22.1149 H   0  0  0  0  0  0
  -19.6910  -25.6275   21.1176 H   0  0  0  0  0  0
  -19.6701  -27.3154   20.6708 H   0  0  0  0  0  0
  -17.4214  -26.6672   21.3982 H   0  0  0  0  0  0
  -18.0331  -26.0022   22.8959 H   0  0  0  0  0  0
  -19.7954  -30.7211   24.2293 H   0  0  0  0  0  0
  -17.5038  -31.6220   24.5194 H   0  0  0  0  0  0
  -15.5371  -30.2961   23.7684 H   0  0  0  0  0  0
  -15.8655  -28.0792   22.7106 H   0  0  0  0  0  0
  -24.5969  -30.6991   25.7676 H   0  0  0  0  0  0
  -24.8866  -32.2810   26.4797 H   0  0  0  0  0  0
  -25.8058  -30.8856   27.0173 H   0  0  0  0  0  0
  -26.2936  -29.6752   24.1183 H   0  0  0  0  0  0
  -27.4099  -29.7294   25.4635 H   0  0  0  0  0  0
  -27.8779  -30.4291   23.9327 H   0  0  0  0  0  0
  -27.2740  -33.3633   26.1963 H   0  0  0  0  0  0
  -28.3907  -32.6776   25.0257 H   0  0  0  0  0  0
  -28.0710  -31.8428   26.5392 H   0  0  0  0  0  0
  -28.2632  -38.0075   24.7533 H   0  0  0  0  0  0
  -28.1063  -36.2610   24.6324 H   0  0  0  0  0  0
  -27.2291  -37.1457   25.8888 H   0  0  0  0  0  0
  -20.9338  -29.8779   21.6930 H   0  0  0  0  0  0
  -26.0183  -38.2852   24.1418 H   0  0  0  0  0  0
  -25.8797  -22.9597   21.7463 H   0  0  0  0  0  0
  -25.1222  -21.7156   20.7602 H   0  0  0  0  0  0
  -25.9106  -23.0378   19.9710 H   0  0  0  0  0  0
  -25.4063  -19.9378   22.0057 H   0  0  0  0  0  0
  -26.5189  -18.6888   22.4049 H   0  0  0  0  0  0
  -25.8233  -18.7598   20.7713 H   0  0  0  0  0  0
  -31.3611  -21.8579   20.4827 H   0  0  0  0  0  0
  -31.1819  -20.3270   19.6279 H   0  0  0  0  0  0
  -31.3705  -20.3615   21.3748 H   0  0  0  0  0  0
  -30.6307  -18.9073   22.8333 H   0  0  0  0  0  0
  -29.9582  -17.3133   23.1170 H   0  0  0  0  0  0
  -29.0215  -18.7488   23.5160 H   0  0  0  0  0  0
  -30.9716  -17.5680   20.4319 H   0  0  0  0  0  0
  -29.5737  -17.4787   19.3987 H   0  0  0  0  0  0
  -27.3571  -24.7965   21.3252 H   0  0  0  0  0  0
  -27.3162  -24.5806   19.5885 H   0  0  0  0  0  0
  -29.5835  -23.6822   19.4902 H   0  0  0  0  0  0
  -28.1806  -17.7716   21.4845 H   0  0  0  0  0  0
  -28.8208  -15.5411   21.0104 H   0  0  0  0  0  0
  -29.5307  -23.7463   22.2831 H   0  0  0  0  0  0
  1 25  1  0  0  0
  1 30  2  0  0  0
  1 84  1  0  0  0
  2  3  1  0  0  0
  2 25  1  0  0  0
  2 86  1  0  0  0
  2 87  1  0  0  0
  3  4  1  0  0  0
  3 88  1  0  0  0
  3 89  1  0  0  0
  4  5  1  0  0  0
  4 90  1  0  0  0
  4 91  1  0  0  0
  5  6  1  0  0  0
  5 26  1  0  0  0
  5 92  1  0  0  0
  6 25  1  0  0  0
  6 93  1  0  0  0
  6 94  1  0  0  0
  7  8  2  0  0  0
  7 26  1  0  0  0
  7 29  1  0  0  0
  8  9  1  0  0  0
  8 22  1  0  0  0
  9 10  1  0  0  0
  9 27  2  0  0  0
 10 11  2  0  0  0
 10 15  1  0  0  0
 11 12  1  0  0  0
 11 95  1  0  0  0
 12 13  2  0  0  0
 12 96  1  0  0  0
 13 14  1  0  0  0
 13 31  1  0  0  0
 14 15  2  0  0  0
 14 97  1  0  0  0
 15 98  1  0  0  0
 16 17  2  0  0  0
 16 21  1  0  0  0
 16 31  1  0  0  0
 17 18  1  0  0  0
 17 99  1  0  0  0
 18 19  2  0  0  0
 18100  1  0  0  0
 19 20  1  0  0  0
 19 24  1  0  0  0
 20 21  2  0  0  0
 20101  1  0  0  0
 21 23  1  0  0  0
 22 28  1  0  0  0
 22 32  2  0  0  0
 26 27  1  0  0  0
 28102  1  0  0  0
 28103  1  0  0  0
 29104  1  0  0  0
 29105  1  0  0  0
 33 34  1  0  0  0
 33 66  1  0  0  0
 33 70  2  0  0  0
 34 36  1  0  0  0
 34 59  1  0  0  0
 34106  1  0  0  0
 35 44  2  0  0  0
 35 45  1  0  0  0
 35 68  1  0  0  0
 36 56  1  0  0  0
 36107  1  0  0  0
 37 39  1  0  0  0
 37 47  1  0  0  0
 37 66  1  0  0  0
 37108  1  0  0  0
 38 43  2  0  0  0
 38 46  1  0  0  0
 38 47  1  0  0  0
 39 64  1  0  0  0
 39 67  2  0  0  0
 40 52  1  0  0  0
 40 53  2  0  0  0
 40 58  1  0  0  0
 41109  1  0  0  0
 41110  1  0  0  0
 41111  1  0  0  0
 41 48  1  0  0  0
 42 43  1  0  0  0
 42 66  1  0  0  0
 42112  1  0  0  0
 42113  1  0  0  0
 43 44  1  0  0  0
 44114  1  0  0  0
 45 46  2  0  0  0
 45115  1  0  0  0
 46116  1  0  0  0
 47117  1  0  0  0
 47118  1  0  0  0
 48 56  1  0  0  0
 48 65  1  0  0  0
 48119  1  0  0  0
 49 50  1  0  0  0
 49 53  1  0  0  0
 49 64  1  0  0  0
 49120  1  0  0  0
 50 51  1  0  0  0
 50121  1  0  0  0
 50122  1  0  0  0
 51 52  1  0  0  0
 51123  1  0  0  0
 51124  1  0  0  0
 52125  1  0  0  0
 52126  1  0  0  0
 53 54  1  0  0  0
 54 55  2  0  0  0
 54127  1  0  0  0
 55 57  1  0  0  0
 55128  1  0  0  0
 56 69  2  0  0  0
 57 58  2  0  0  0
 57129  1  0  0  0
 58130  1  0  0  0
 59 60  1  0  0  0
 59 61  1  0  0  0
 59 62  1  0  0  0
 60131  1  0  0  0
 60132  1  0  0  0
 60133  1  0  0  0
 61134  1  0  0  0
 61135  1  0  0  0
 61136  1  0  0  0
 62137  1  0  0  0
 62138  1  0  0  0
 62139  1  0  0  0
 63 65  1  0  0  0
 63140  1  0  0  0
 63141  1  0  0  0
 63142  1  0  0  0
 64143  1  0  0  0
 65144  1  0  0  0
 68 80  1  0  0  0
 71 72  1  0  0  0
 71 73  2  0  0  0
 71 75  1  0  0  0
 72 74  2  0  0  0
 72 81  1  0  0  0
 73 76  1  0  0  0
 73 83  1  0  0  0
 74 77  1  0  0  0
 74 83  1  0  0  0
 75145  1  0  0  0
 75146  1  0  0  0
 75147  1  0  0  0
 76148  1  0  0  0
 76149  1  0  0  0
 76150  1  0  0  0
 77151  1  0  0  0
 77152  1  0  0  0
 77153  1  0  0  0
 78154  1  0  0  0
 78155  1  0  0  0
 78156  1  0  0  0
 78 82  1  0  0  0
 79 82  1  0  0  0
 79 84  1  0  0  0
 79157  1  0  0  0
 79158  1  0  0  0
 80 81  1  0  0  0
 80159  1  0  0  0
 80160  1  0  0  0
 81 85  1  0  0  0
 81161  1  0  0  0
 82 83  1  0  0  0
 82162  1  0  0  0
 84163  1  0  0  0
 85164  1  0  0  0
M  ISO  4   1 100  68 101  80 101  84 100
M  END
> <chiral flag>
0

> <version>
0

> <s_m_source_file>
/data/baiqing/PycharmProjects/Reinvent-master-3.2/result/LINK_invent/BTK/process_docking_weight1_custom_sum_contain_oxygen_bond_distance_aromatic_linkinvent_7_9_3/rearranged_h_0156.sdf

> <i_m_source_file_index>
81

> <r_mmod_Potential_Energy-OPLS-2005>
145.912170410156

> <r_mmod_Stretch_Energy-OPLS-2005>
135.72151184082

> <r_mmod_Bend_Energy-OPLS-2005>
192.005157470703

> <r_mmod_Torsional_Energy-OPLS-2005>
262.322204589844

> <r_mmod_Improper_Torsional_Energy-OPLS-2005>
7.20105504989624

> <r_mmod_Van_der_Waal_Energy-OPLS-2005>
121.306381225586

> <r_mmod_Electrostatic_Energy-OPLS-2005>
-429.020233154297

> <r_mmod_Solvation_Energy-OPLS-2005>
-231.042175292969

> <b_mmod_Minimization_Converged-OPLS-2005>
0

> <r_mmod_RMS_Derivative-OPLS-2005>
4.02277946472168

$$$$
81
                    3D
 Structure written by MMmdl.
163172  0  0  1  0            999 V2000
  -30.6868  -14.6853   20.4792 C   0  0  0  0  0  0
  -30.4148  -12.4313   19.4523 C   0  0  0  0  0  0
  -29.4951  -12.5027   18.2172 C   0  0  0  0  0  0
  -28.0207  -12.3433   18.6352 C   0  0  0  0  0  0
  -27.6390  -13.2352   19.8484 C   0  0  2  0  0  0
  -28.6902  -13.1507   20.9733 C   0  0  0  0  0  0
  -25.2502  -13.8202   20.5710 C   0  0  0  0  0  0
  -24.1796  -13.0442   20.9208 C   0  0  0  0  0  0
  -24.6392  -11.6922   20.8747 C   0  0  0  0  0  0
  -23.9070  -10.4294   21.0405 C   0  0  0  0  0  0
  -24.3623   -9.4212   21.9183 C   0  0  0  0  0  0
  -23.6300   -8.2242   22.0749 C   0  0  0  0  0  0
  -22.4282   -8.0279   21.3543 C   0  0  0  0  0  0
  -21.9919   -9.0254   20.4646 C   0  0  0  0  0  0
  -22.7242  -10.2134   20.3055 C   0  0  0  0  0  0
  -21.6858   -6.0734   22.5279 C   0  0  0  0  0  0
  -21.4015   -6.5638   23.8213 C   0  0  0  0  0  0
  -21.3661   -5.6790   24.9175 C   0  0  0  0  0  0
  -21.6045   -4.3052   24.7223 C   0  0  0  0  0  0
  -21.8820   -3.8144   23.4344 C   0  0  0  0  0  0
  -21.9192   -4.6961   22.3402 C   0  0  0  0  0  0
  -22.7821  -13.5225   21.1866 C   0  0  0  0  0  0
  -22.1664   -4.2147   21.0980 F   0  0  0  0  0  0
  -21.5630   -3.4537   25.7735 F   0  0  0  0  0  0
  -29.9812  -13.5069   20.3749 N   0  0  0  0  0  0
  -26.2930  -12.9419   20.3303 N   0  0  0  0  0  0
  -25.9324  -11.6557   20.5757 N   0  0  0  0  0  0
  -22.0472  -12.8214   22.0423 N   0  0  0  0  0  0
  -25.4199  -15.1922   20.4138 N   0  0  0  0  0  0
  -31.8946  -14.6636   20.2212 O   0  0  0  0  0  0
  -21.6644   -6.8878   21.4241 O   0  0  0  0  0  0
  -22.3505  -14.5530   20.6715 O   0  0  0  0  0  0
  -24.6302  -31.8591   23.2037 C   0  0  0  0  0  0
  -25.9141  -32.4772   23.8362 C   0  0  1  0  0  0
  -27.2058  -27.2852   20.1100 C   0  0  0  0  0  0
  -25.5948  -33.8574   24.2280 N   0  0  0  0  0  0
  -23.4236  -30.4876   21.5482 C   0  0  2  0  0  0
  -24.8653  -28.9474   20.1102 C   0  0  0  0  0  0
  -22.7494  -29.4627   22.4928 C   0  0  0  0  0  0
  -18.0290  -28.1383   22.8489 C   0  0  0  0  0  0
  -24.1491  -36.7288   23.2637 C   0  0  0  0  0  0
  -25.9713  -30.7796   21.3816 C   0  0  0  0  0  0
  -26.0411  -29.4079   20.7163 C   0  0  0  0  0  0
  -27.2163  -28.5905   20.7049 C   0  0  0  0  0  0
  -26.0001  -26.8958   19.4770 C   0  0  0  0  0  0
  -24.8488  -27.6981   19.4814 C   0  0  0  0  0  0
  -23.6383  -29.8330   20.1611 C   0  0  0  0  0  0
  -25.4115  -36.3078   24.0328 C   0  0  1  0  0  0
  -20.5895  -28.3692   23.1277 C   0  0  2  0  0  0
  -20.6781  -26.9415   22.5408 C   0  0  0  0  0  0
  -19.5754  -26.6383   21.5216 C   0  0  0  0  0  0
  -18.1935  -26.7927   22.1626 C   0  0  0  0  0  0
  -19.1545  -28.8853   23.2876 C   0  0  0  0  0  0
  -18.9463  -30.1456   23.8893 C   0  0  0  0  0  0
  -17.6462  -30.6585   24.0561 C   0  0  0  0  0  0
  -25.9059  -34.9447   23.5100 C   0  0  0  0  0  0
  -16.5355  -29.9082   23.6331 C   0  0  0  0  0  0
  -16.7278  -28.6499   23.0355 C   0  0  0  0  0  0
  -26.4505  -31.6590   25.0744 C   0  0  0  0  0  0
  -25.3721  -31.3749   26.1462 C   0  0  0  0  0  0
  -27.0343  -30.2999   24.6235 C   0  0  0  0  0  0
  -27.6055  -32.4328   25.7518 C   0  0  0  0  0  0
  -27.5582  -37.1799   24.8460 C   0  0  0  0  0  0
  -21.4205  -29.3046   22.3669 N   0  0  0  0  0  0
  -26.4288  -37.3777   23.9412 N   0  0  0  0  0  0
  -24.6941  -31.0587   22.1003 N   0  0  0  0  0  0
  -23.4212  -28.8156   23.3002 O   0  0  0  0  0  0
  -28.2933  -26.3839   20.1614 O   0  0  0  0  0  0
  -26.5624  -34.8916   22.4665 O   0  0  0  0  0  0
  -23.5457  -32.1404   23.7349 O   0  0  0  0  0  0
  -28.7028  -22.4269   20.4954 C   0  0  0  0  0  0
  -29.0511  -23.7822   20.1223 C   0  0  0  0  0  0
  -29.6691  -21.3543   20.5003 C   0  0  0  0  0  0
  -30.3909  -23.9762   19.7251 C   0  0  0  0  0  0
  -30.9777  -21.7368   20.1260 C   0  0  0  0  0  0
  -29.8668  -18.2397   19.2081 C   0  0  0  0  0  0
  -28.3758  -17.7673   21.1364 C   0  0  0  0  0  0
  -30.7432  -17.0349   19.6980 C   0  0  0  0  0  0
  -29.3348  -16.5794   21.5392 C   0  0  0  0  0  0
  -28.9449  -18.9273   20.2512 C   0  0  0  0  0  0
  -30.8956  -25.3190   19.2324 C   0  0  0  0  0  0
  -32.1379  -20.7609   20.1883 C   0  0  0  0  0  0
  -27.9733  -24.9298   20.0066 C   0  0  0  0  0  0
  -31.3150  -22.9880   19.7355 N   0  0  0  0  0  0
  -30.0338  -15.9210   20.4051 N   0  0  0  0  0  0
  -29.4634  -20.0587   21.0313 O   0  0  0  0  0  0
  -31.4568  -12.5272   19.1429 H   0  0  0  0  0  0
  -30.3390  -11.4555   19.9349 H   0  0  0  0  0  0
  -29.7672  -11.7301   17.4964 H   0  0  0  0  0  0
  -29.6317  -13.4588   17.7087 H   0  0  0  0  0  0
  -27.8649  -11.2936   18.8857 H   0  0  0  0  0  0
  -27.3630  -12.5525   17.7907 H   0  0  0  0  0  0
  -27.6377  -14.2628   19.4830 H   0  0  0  0  0  0
  -28.7277  -12.1432   21.3906 H   0  0  0  0  0  0
  -28.4294  -13.8003   21.8040 H   0  0  0  0  0  0
  -25.2767   -9.5692   22.4760 H   0  0  0  0  0  0
  -24.0009   -7.4634   22.7471 H   0  0  0  0  0  0
  -21.0845   -8.8776   19.8956 H   0  0  0  0  0  0
  -22.3700  -10.9674   19.6165 H   0  0  0  0  0  0
  -21.2011   -7.6147   23.9717 H   0  0  0  0  0  0
  -21.1487   -6.0521   25.9080 H   0  0  0  0  0  0
  -22.0598   -2.7605   23.2843 H   0  0  0  0  0  0
  -22.4095  -11.9875   22.4808 H   0  0  0  0  0  0
  -21.1089  -13.1238   22.2629 H   0  0  0  0  0  0
  -24.6568  -15.8498   20.5285 H   0  0  0  0  0  0
  -26.2796  -15.6283   20.1076 H   0  0  0  0  0  0
  -26.7207  -32.5422   23.1103 H   0  0  0  0  0  0
  -25.0095  -33.9716   25.0425 H   0  0  0  0  0  0
  -22.7186  -31.3099   21.4096 H   0  0  0  0  0  0
  -23.3757  -35.9616   23.3289 H   0  0  0  0  0  0
  -24.3584  -36.8921   22.2054 H   0  0  0  0  0  0
  -23.7236  -37.6484   23.6665 H   0  0  0  0  0  0
  -26.1136  -31.5458   20.6184 H   0  0  0  0  0  0
  -26.8475  -30.8189   22.0172 H   0  0  0  0  0  0
  -28.1163  -28.9385   21.1923 H   0  0  0  0  0  0
  -25.8911  -25.9484   18.9750 H   0  0  0  0  0  0
  -23.9484  -27.3402   19.0003 H   0  0  0  0  0  0
  -23.7646  -30.6144   19.4108 H   0  0  0  0  0  0
  -22.7554  -29.2703   19.8524 H   0  0  0  0  0  0
  -25.1293  -36.1924   25.0821 H   0  0  0  0  0  0
  -20.9987  -28.3263   24.1399 H   0  0  0  0  0  0
  -20.5690  -26.2303   23.3609 H   0  0  0  0  0  0
  -21.6646  -26.7446   22.1195 H   0  0  0  0  0  0
  -19.6917  -25.6293   21.1248 H   0  0  0  0  0  0
  -19.6692  -27.3191   20.6744 H   0  0  0  0  0  0
  -17.4208  -26.6676   21.4026 H   0  0  0  0  0  0
  -18.0332  -26.0067   22.9020 H   0  0  0  0  0  0
  -19.7936  -30.7271   24.2264 H   0  0  0  0  0  0
  -17.5016  -31.6266   24.5162 H   0  0  0  0  0  0
  -15.5354  -30.2981   23.7659 H   0  0  0  0  0  0
  -15.8677  -28.0816   22.7074 H   0  0  0  0  0  0
  -24.5898  -30.7097   25.7795 H   0  0  0  0  0  0
  -24.8913  -32.2925   26.4861 H   0  0  0  0  0  0
  -25.8033  -30.8946   27.0255 H   0  0  0  0  0  0
  -26.2933  -29.6755   24.1233 H   0  0  0  0  0  0
  -27.3984  -29.7256   25.4765 H   0  0  0  0  0  0
  -27.8830  -30.4259   23.9509 H   0  0  0  0  0  0
  -27.2655  -33.3624   26.2092 H   0  0  0  0  0  0
  -28.3869  -32.6895   25.0355 H   0  0  0  0  0  0
  -28.0719  -31.8458   26.5440 H   0  0  0  0  0  0
  -28.2586  -38.0110   24.7522 H   0  0  0  0  0  0
  -28.1090  -36.2641   24.6261 H   0  0  0  0  0  0
  -27.2305  -37.1416   25.8864 H   0  0  0  0  0  0
  -20.9385  -29.8783   21.6889 H   0  0  0  0  0  0
  -26.0166  -38.2850   24.1421 H   0  0  0  0  0  0
  -27.6890  -22.2121   20.8005 H   0  0  0  0  0  0
  -29.2221  -17.8497   18.4191 H   0  0  0  0  0  0
  -30.4875  -18.9834   18.7112 H   0  0  0  0  0  0
  -27.9216  -18.1922   22.0320 H   0  0  0  0  0  0
  -27.5457  -17.3241   20.5856 H   0  0  0  0  0  0
  -31.5372  -17.4105   20.3460 H   0  0  0  0  0  0
  -31.2492  -16.6383   18.8152 H   0  0  0  0  0  0
  -28.7605  -15.8553   22.1106 H   0  0  0  0  0  0
  -30.0883  -16.9540   22.2339 H   0  0  0  0  0  0
  -28.1033  -19.3550   19.7027 H   0  0  0  0  0  0
  -30.2611  -25.6980   18.4309 H   0  0  0  0  0  0
  -31.9120  -25.2517   18.8439 H   0  0  0  0  0  0
  -30.8965  -26.0451   20.0453 H   0  0  0  0  0  0
  -31.9289  -19.9251   20.8553 H   0  0  0  0  0  0
  -33.0377  -21.2525   20.5584 H   0  0  0  0  0  0
  -32.3530  -20.3628   19.1975 H   0  0  0  0  0  0
  -27.1633  -24.6809   20.6946 H   0  0  0  0  0  0
  -27.5915  -24.7800   18.9975 H   0  0  0  0  0  0
  1 25  1  0  0  0
  1 30  2  0  0  0
  1 85  1  0  0  0
  2  3  1  0  0  0
  2 25  1  0  0  0
  2 87  1  0  0  0
  2 88  1  0  0  0
  3  4  1  0  0  0
  3 89  1  0  0  0
  3 90  1  0  0  0
  4  5  1  0  0  0
  4 91  1  0  0  0
  4 92  1  0  0  0
  5  6  1  0  0  0
  5 26  1  0  0  0
  5 93  1  0  0  0
  6 25  1  0  0  0
  6 94  1  0  0  0
  6 95  1  0  0  0
  7  8  2  0  0  0
  7 26  1  0  0  0
  7 29  1  0  0  0
  8  9  1  0  0  0
  8 22  1  0  0  0
  9 10  1  0  0  0
  9 27  2  0  0  0
 10 11  2  0  0  0
 10 15  1  0  0  0
 11 12  1  0  0  0
 11 96  1  0  0  0
 12 13  2  0  0  0
 12 97  1  0  0  0
 13 14  1  0  0  0
 13 31  1  0  0  0
 14 15  2  0  0  0
 14 98  1  0  0  0
 15 99  1  0  0  0
 16 17  2  0  0  0
 16 21  1  0  0  0
 16 31  1  0  0  0
 17 18  1  0  0  0
 17100  1  0  0  0
 18 19  2  0  0  0
 18101  1  0  0  0
 19 20  1  0  0  0
 19 24  1  0  0  0
 20 21  2  0  0  0
 20102  1  0  0  0
 21 23  1  0  0  0
 22 28  1  0  0  0
 22 32  2  0  0  0
 26 27  1  0  0  0
 28103  1  0  0  0
 28104  1  0  0  0
 29105  1  0  0  0
 29106  1  0  0  0
 33 34  1  0  0  0
 33 66  1  0  0  0
 33 70  2  0  0  0
 34 36  1  0  0  0
 34 59  1  0  0  0
 34107  1  0  0  0
 35 44  2  0  0  0
 35 45  1  0  0  0
 35 68  1  0  0  0
 36 56  1  0  0  0
 36108  1  0  0  0
 37 39  1  0  0  0
 37 47  1  0  0  0
 37 66  1  0  0  0
 37109  1  0  0  0
 38 43  2  0  0  0
 38 46  1  0  0  0
 38 47  1  0  0  0
 39 64  1  0  0  0
 39 67  2  0  0  0
 40 52  1  0  0  0
 40 53  2  0  0  0
 40 58  1  0  0  0
 41110  1  0  0  0
 41111  1  0  0  0
 41112  1  0  0  0
 41 48  1  0  0  0
 42 43  1  0  0  0
 42 66  1  0  0  0
 42113  1  0  0  0
 42114  1  0  0  0
 43 44  1  0  0  0
 44115  1  0  0  0
 45 46  2  0  0  0
 45116  1  0  0  0
 46117  1  0  0  0
 47118  1  0  0  0
 47119  1  0  0  0
 48 56  1  0  0  0
 48 65  1  0  0  0
 48120  1  0  0  0
 49 50  1  0  0  0
 49 53  1  0  0  0
 49 64  1  0  0  0
 49121  1  0  0  0
 50 51  1  0  0  0
 50122  1  0  0  0
 50123  1  0  0  0
 51 52  1  0  0  0
 51124  1  0  0  0
 51125  1  0  0  0
 52126  1  0  0  0
 52127  1  0  0  0
 53 54  1  0  0  0
 54 55  2  0  0  0
 54128  1  0  0  0
 55 57  1  0  0  0
 55129  1  0  0  0
 56 69  2  0  0  0
 57 58  2  0  0  0
 57130  1  0  0  0
 58131  1  0  0  0
 59 60  1  0  0  0
 59 61  1  0  0  0
 59 62  1  0  0  0
 60132  1  0  0  0
 60133  1  0  0  0
 60134  1  0  0  0
 61135  1  0  0  0
 61136  1  0  0  0
 61137  1  0  0  0
 62138  1  0  0  0
 62139  1  0  0  0
 62140  1  0  0  0
 63 65  1  0  0  0
 63141  1  0  0  0
 63142  1  0  0  0
 63143  1  0  0  0
 64144  1  0  0  0
 65145  1  0  0  0
 68 83  1  0  0  0
 71 72  2  0  0  0
 71 73  1  0  0  0
 71146  1  0  0  0
 72 74  1  0  0  0
 72 83  1  0  0  0
 73 75  2  0  0  0
 73 86  1  0  0  0
 74 81  1  0  0  0
 74 84  2  0  0  0
 75 82  1  0  0  0
 75 84  1  0  0  0
 76 78  1  0  0  0
 76 80  1  0  0  0
 76147  1  0  0  0
 76148  1  0  0  0
 77 79  1  0  0  0
 77 80  1  0  0  0
 77149  1  0  0  0
 77150  1  0  0  0
 78 85  1  0  0  0
 78151  1  0  0  0
 78152  1  0  0  0
 79 85  1  0  0  0
 79153  1  0  0  0
 79154  1  0  0  0
 80 86  1  0  0  0
 80155  1  0  0  0
 81156  1  0  0  0
 81157  1  0  0  0
 81158  1  0  0  0
 82159  1  0  0  0
 82160  1  0  0  0
 82161  1  0  0  0
 83162  1  0  0  0
 83163  1  0  0  0
M  ISO  4   1 100  68 101  83 101  85 100
M  END
> <chiral flag>
0

> <version>
0

> <s_m_source_file>
/data/baiqing/PycharmProjects/Reinvent-master-3.2/result/LINK_invent/BTK/process_docking_weight1_custom_sum_contain_oxygen_bond_distance_aromatic_linkinvent_7_9_3/rearranged_h_0156.sdf

> <i_m_source_file_index>
82

> <r_mmod_Potential_Energy-OPLS-2005>
248.860122680664

> <r_mmod_Stretch_Energy-OPLS-2005>
97.8945846557617

> <r_mmod_Bend_Energy-OPLS-2005>
189.149139404297

> <r_mmod_Torsional_Energy-OPLS-2005>
349.917877197266

> <r_mmod_Improper_Torsional_Energy-OPLS-2005>
19.7601547241211

> <r_mmod_Van_der_Waal_Energy-OPLS-2005>
153.508361816406

> <r_mmod_Electrostatic_Energy-OPLS-2005>
-425.226593017578

> <r_mmod_Solvation_Energy-OPLS-2005>
-208.486770629883

> <b_mmod_Minimization_Converged-OPLS-2005>
0

> <r_mmod_RMS_Derivative-OPLS-2005>
0.694708168506622

$$$$
82
                    3D
 Structure written by MMmdl.
178188  0  0  1  0            999 V2000
  -30.7793  -14.4648   20.5140 C   0  0  0  0  0  0
  -30.3952  -12.2957   19.4146 C   0  0  0  0  0  0
  -29.4812  -12.5110   18.1932 C   0  0  0  0  0  0
  -28.0025  -12.3468   18.5999 C   0  0  0  0  0  0
  -27.6352  -13.1835   19.8513 C   0  0  2  0  0  0
  -28.7001  -13.0753   20.9752 C   0  0  0  0  0  0
  -25.2525  -13.8056   20.5678 C   0  0  0  0  0  0
  -24.1774  -13.0367   20.9194 C   0  0  0  0  0  0
  -24.6321  -11.6838   20.8774 C   0  0  0  0  0  0
  -23.9010  -10.4257   21.0454 C   0  0  0  0  0  0
  -24.3589   -9.4190   21.9231 C   0  0  0  0  0  0
  -23.6273   -8.2219   22.0807 C   0  0  0  0  0  0
  -22.4257   -8.0258   21.3584 C   0  0  0  0  0  0
  -21.9873   -9.0226   20.4685 C   0  0  0  0  0  0
  -22.7197  -10.2101   20.3084 C   0  0  0  0  0  0
  -21.6841   -6.0710   22.5305 C   0  0  0  0  0  0
  -21.3973   -6.5626   23.8224 C   0  0  0  0  0  0
  -21.3640   -5.6791   24.9193 C   0  0  0  0  0  0
  -21.6046   -4.3047   24.7265 C   0  0  0  0  0  0
  -21.8837   -3.8133   23.4389 C   0  0  0  0  0  0
  -21.9220   -4.6941   22.3438 C   0  0  0  0  0  0
  -22.7809  -13.5202   21.1859 C   0  0  0  0  0  0
  -22.1712   -4.2120   21.1013 F   0  0  0  0  0  0
  -21.5627   -3.4527   25.7770 F   0  0  0  0  0  0
  -30.0354  -13.3264   20.3970 N   0  0  0  0  0  0
  -26.2888  -12.9157   20.3336 N   0  0  0  0  0  0
  -25.9235  -11.6363   20.5786 N   0  0  0  0  0  0
  -22.0447  -12.8199   22.0404 N   0  0  0  0  0  0
  -25.4321  -15.1761   20.4094 N   0  0  0  0  0  0
  -31.9503  -14.5414   20.1388 O   0  0  0  0  0  0
  -21.6660   -6.8844   21.4256 O   0  0  0  0  0  0
  -22.3534  -14.5554   20.6742 O   0  0  0  0  0  0
  -24.6103  -31.8724   23.2110 C   0  0  0  0  0  0
  -25.9002  -32.4831   23.8410 C   0  0  1  0  0  0
  -27.2461  -27.4746   20.0831 C   0  0  0  0  0  0
  -25.5907  -33.8635   24.2356 N   0  0  0  0  0  0
  -23.3956  -30.4954   21.5511 C   0  0  2  0  0  0
  -24.8404  -28.9621   20.1179 C   0  0  0  0  0  0
  -22.7376  -29.4676   22.5011 C   0  0  0  0  0  0
  -18.0250  -28.1390   22.8482 C   0  0  0  0  0  0
  -24.1465  -36.7260   23.2645 C   0  0  0  0  0  0
  -25.9191  -30.8488   21.3562 C   0  0  0  0  0  0
  -25.9951  -29.4820   20.7119 C   0  0  0  0  0  0
  -27.1921  -28.7404   20.7042 C   0  0  0  0  0  0
  -26.0628  -26.9481   19.5104 C   0  0  0  0  0  0
  -24.8654  -27.6901   19.5218 C   0  0  0  0  0  0
  -23.6014  -29.8245   20.1659 C   0  0  0  0  0  0
  -25.4086  -36.3113   24.0366 C   0  0  1  0  0  0
  -20.5847  -28.3634   23.1353 C   0  0  2  0  0  0
  -20.6732  -26.9380   22.5433 C   0  0  0  0  0  0
  -19.5738  -26.6388   21.5211 C   0  0  0  0  0  0
  -18.1894  -26.7954   22.1571 C   0  0  0  0  0  0
  -19.1505  -28.8825   23.2910 C   0  0  0  0  0  0
  -18.9447  -30.1442   23.8884 C   0  0  0  0  0  0
  -17.6458  -30.6599   24.0558 C   0  0  0  0  0  0
  -25.9029  -34.9495   23.5157 C   0  0  0  0  0  0
  -16.5335  -29.9102   23.6356 C   0  0  0  0  0  0
  -16.7247  -28.6532   23.0344 C   0  0  0  0  0  0
  -26.4446  -31.6602   25.0716 C   0  0  0  0  0  0
  -25.3730  -31.3687   26.1498 C   0  0  0  0  0  0
  -27.0281  -30.3078   24.6025 C   0  0  0  0  0  0
  -27.6018  -32.4314   25.7503 C   0  0  0  0  0  0
  -27.5584  -37.1759   24.8461 C   0  0  0  0  0  0
  -21.4116  -29.3023   22.3764 N   0  0  0  0  0  0
  -26.4244  -37.3817   23.9481 N   0  0  0  0  0  0
  -24.6594  -31.0867   22.0971 N   0  0  0  0  0  0
  -23.4186  -28.8235   23.3026 O   0  0  0  0  0  0
  -28.4595  -26.8190   20.1061 O   0  0  0  0  0  0
  -26.5578  -34.8942   22.4699 O   0  0  0  0  0  0
  -23.5306  -32.1451   23.7526 O   0  0  0  0  0  0
  -31.6249  -19.8394   18.8384 C   0  0  0  0  0  0
  -30.5852  -19.8497   19.7951 C   0  0  0  0  0  0
  -31.9364  -20.9861   18.0794 C   0  0  0  0  0  0
  -31.1591  -22.1586   18.2182 C   0  0  0  0  0  0
  -30.0975  -22.1875   19.1669 C   0  0  0  0  0  0
  -29.8572  -21.0559   20.0033 C   0  0  0  0  0  0
  -29.5100  -21.4646   23.4871 C   0  0  0  0  0  0
  -30.6085  -22.1180   22.6850 C   0  0  0  0  0  0
  -29.6547  -17.5423   19.4458 C   0  0  0  0  0  0
  -31.3090  -17.8247   21.2800 C   0  0  0  0  0  0
  -29.1644  -16.2347   20.0761 C   0  0  0  0  0  0
  -30.7977  -16.4991   21.9141 C   0  0  0  0  0  0
  -30.1953  -18.5271   20.4837 C   0  0  0  0  0  0
  -29.2052  -22.0296   22.1157 C   0  0  0  0  0  0
  -33.0668  -20.9201   17.0613 C   0  0  0  0  0  0
  -31.4490  -23.3343   17.2766 C   0  0  0  0  0  0
  -29.0967  -23.3467   19.1354 C   0  0  0  0  0  0
  -29.5329  -24.6851   19.7679 C   0  0  0  0  0  0
  -28.7741  -25.8514   19.1110 C   0  0  0  0  0  0
  -30.1506  -15.5814   20.9519 N   0  0  0  0  0  0
  -28.8915  -21.1140   21.0243 N   0  0  0  0  0  0
  -31.4444  -12.3317   19.1193 H   0  0  0  0  0  0
  -30.2320  -11.3031   19.8381 H   0  0  0  0  0  0
  -29.7365  -11.8123   17.3947 H   0  0  0  0  0  0
  -29.6448  -13.5097   17.7861 H   0  0  0  0  0  0
  -27.8130  -11.2885   18.7815 H   0  0  0  0  0  0
  -27.3575  -12.6310   17.7672 H   0  0  0  0  0  0
  -27.5959  -14.1984   19.4950 H   0  0  0  0  0  0
  -28.6795  -12.0860   21.4329 H   0  0  0  0  0  0
  -28.4709  -13.7795   21.7740 H   0  0  0  0  0  0
  -25.2741   -9.5687   22.4768 H   0  0  0  0  0  0
  -24.0022   -7.4600   22.7499 H   0  0  0  0  0  0
  -21.0817   -8.8725   19.8948 H   0  0  0  0  0  0
  -22.3688  -10.9628   19.6168 H   0  0  0  0  0  0
  -21.1919   -7.6122   23.9692 H   0  0  0  0  0  0
  -21.1425   -6.0534   25.9095 H   0  0  0  0  0  0
  -22.0615   -2.7596   23.2909 H   0  0  0  0  0  0
  -22.3992  -11.9759   22.4652 H   0  0  0  0  0  0
  -21.1100  -13.1271   22.2713 H   0  0  0  0  0  0
  -24.6775  -15.8495   20.5116 H   0  0  0  0  0  0
  -26.3056  -15.5941   20.1186 H   0  0  0  0  0  0
  -26.7073  -32.5572   23.1178 H   0  0  0  0  0  0
  -25.0142  -33.9815   25.0559 H   0  0  0  0  0  0
  -22.6832  -31.3116   21.4123 H   0  0  0  0  0  0
  -23.3816  -35.9502   23.3227 H   0  0  0  0  0  0
  -24.3591  -36.8940   22.2079 H   0  0  0  0  0  0
  -23.7091  -37.6384   23.6698 H   0  0  0  0  0  0
  -26.0255  -31.6089   20.5815 H   0  0  0  0  0  0
  -26.8111  -30.9057   21.9673 H   0  0  0  0  0  0
  -28.0823  -29.1443   21.1661 H   0  0  0  0  0  0
  -26.0180  -25.9642   19.0685 H   0  0  0  0  0  0
  -23.9718  -27.2753   19.0754 H   0  0  0  0  0  0
  -23.7056  -30.5959   19.4016 H   0  0  0  0  0  0
  -22.7267  -29.2409   19.8714 H   0  0  0  0  0  0
  -25.1228  -36.1965   25.0857 H   0  0  0  0  0  0
  -20.9942  -28.3172   24.1482 H   0  0  0  0  0  0
  -20.5640  -26.2229   23.3601 H   0  0  0  0  0  0
  -21.6604  -26.7432   22.1232 H   0  0  0  0  0  0
  -19.6886  -25.6304   21.1241 H   0  0  0  0  0  0
  -19.6733  -27.3187   20.6737 H   0  0  0  0  0  0
  -17.4210  -26.6761   21.3928 H   0  0  0  0  0  0
  -18.0220  -26.0085   22.8946 H   0  0  0  0  0  0
  -19.7936  -30.7244   24.2233 H   0  0  0  0  0  0
  -17.5042  -31.6287   24.5145 H   0  0  0  0  0  0
  -15.5335  -30.2991   23.7736 H   0  0  0  0  0  0
  -15.8643  -28.0881   22.7026 H   0  0  0  0  0  0
  -24.5924  -30.6993   25.7852 H   0  0  0  0  0  0
  -24.8899  -32.2835   26.4939 H   0  0  0  0  0  0
  -25.8141  -30.8893   27.0243 H   0  0  0  0  0  0
  -26.2785  -29.6848   24.1126 H   0  0  0  0  0  0
  -27.4156  -29.7293   25.4410 H   0  0  0  0  0  0
  -27.8577  -30.4439   23.9076 H   0  0  0  0  0  0
  -27.2638  -33.3641   26.2022 H   0  0  0  0  0  0
  -28.3877  -32.6804   25.0357 H   0  0  0  0  0  0
  -28.0623  -31.8462   26.5469 H   0  0  0  0  0  0
  -28.2509  -38.0146   24.7678 H   0  0  0  0  0  0
  -28.1158  -36.2694   24.6045 H   0  0  0  0  0  0
  -27.2362  -37.1117   25.8867 H   0  0  0  0  0  0
  -20.9247  -29.8768   21.7030 H   0  0  0  0  0  0
  -26.0135  -38.2876   24.1589 H   0  0  0  0  0  0
  -32.1759  -18.9285   18.6536 H   0  0  0  0  0  0
  -29.1466  -22.0085   24.3586 H   0  0  0  0  0  0
  -29.5665  -20.3844   23.6097 H   0  0  0  0  0  0
  -31.3844  -21.4669   22.2800 H   0  0  0  0  0  0
  -30.9568  -23.0923   23.0223 H   0  0  0  0  0  0
  -28.8342  -18.0014   18.8929 H   0  0  0  0  0  0
  -30.4270  -17.3102   18.7107 H   0  0  0  0  0  0
  -32.1640  -17.6126   20.6367 H   0  0  0  0  0  0
  -31.6705  -18.4844   22.0700 H   0  0  0  0  0  0
  -28.9587  -15.6157   19.2085 H   0  0  0  0  0  0
  -28.2317  -16.3757   20.6244 H   0  0  0  0  0  0
  -30.0670  -16.7158   22.6959 H   0  0  0  0  0  0
  -31.6280  -16.0004   22.4202 H   0  0  0  0  0  0
  -29.3877  -18.7029   21.1908 H   0  0  0  0  0  0
  -28.6028  -22.9371   22.0772 H   0  0  0  0  0  0
  -33.6683  -20.0219   17.1829 H   0  0  0  0  0  0
  -33.7412  -21.7684   17.1717 H   0  0  0  0  0  0
  -32.6700  -20.9328   16.0446 H   0  0  0  0  0  0
  -31.2524  -23.0395   16.2459 H   0  0  0  0  0  0
  -32.4911  -23.6461   17.3437 H   0  0  0  0  0  0
  -30.8551  -24.2238   17.4675 H   0  0  0  0  0  0
  -28.1390  -23.0530   19.5633 H   0  0  0  0  0  0
  -28.8621  -23.4972   18.0816 H   0  0  0  0  0  0
  -30.6078  -24.8536   19.6755 H   0  0  0  0  0  0
  -29.3288  -24.6684   20.8392 H   0  0  0  0  0  0
  -27.9121  -25.4664   18.5745 H   0  0  0  0  0  0
  -29.3912  -26.3258   18.3448 H   0  0  0  0  0  0
  -28.5597  -20.2112   21.3438 H   0  0  0  0  0  0
  1 25  1  0  0  0
  1 30  2  0  0  0
  1 90  1  0  0  0
  2  3  1  0  0  0
  2 25  1  0  0  0
  2 92  1  0  0  0
  2 93  1  0  0  0
  3  4  1  0  0  0
  3 94  1  0  0  0
  3 95  1  0  0  0
  4  5  1  0  0  0
  4 96  1  0  0  0
  4 97  1  0  0  0
  5  6  1  0  0  0
  5 26  1  0  0  0
  5 98  1  0  0  0
  6 25  1  0  0  0
  6 99  1  0  0  0
  6100  1  0  0  0
  7  8  2  0  0  0
  7 26  1  0  0  0
  7 29  1  0  0  0
  8  9  1  0  0  0
  8 22  1  0  0  0
  9 10  1  0  0  0
  9 27  2  0  0  0
 10 11  2  0  0  0
 10 15  1  0  0  0
 11 12  1  0  0  0
 11101  1  0  0  0
 12 13  2  0  0  0
 12102  1  0  0  0
 13 14  1  0  0  0
 13 31  1  0  0  0
 14 15  2  0  0  0
 14103  1  0  0  0
 15104  1  0  0  0
 16 17  2  0  0  0
 16 21  1  0  0  0
 16 31  1  0  0  0
 17 18  1  0  0  0
 17105  1  0  0  0
 18 19  2  0  0  0
 18106  1  0  0  0
 19 20  1  0  0  0
 19 24  1  0  0  0
 20 21  2  0  0  0
 20107  1  0  0  0
 21 23  1  0  0  0
 22 28  1  0  0  0
 22 32  2  0  0  0
 26 27  1  0  0  0
 28108  1  0  0  0
 28109  1  0  0  0
 29110  1  0  0  0
 29111  1  0  0  0
 33 34  1  0  0  0
 33 66  1  0  0  0
 33 70  2  0  0  0
 34 36  1  0  0  0
 34 59  1  0  0  0
 34112  1  0  0  0
 35 44  2  0  0  0
 35 45  1  0  0  0
 35 68  1  0  0  0
 36 56  1  0  0  0
 36113  1  0  0  0
 37 39  1  0  0  0
 37 47  1  0  0  0
 37 66  1  0  0  0
 37114  1  0  0  0
 38 43  2  0  0  0
 38 46  1  0  0  0
 38 47  1  0  0  0
 39 64  1  0  0  0
 39 67  2  0  0  0
 40 52  1  0  0  0
 40 53  2  0  0  0
 40 58  1  0  0  0
 41115  1  0  0  0
 41116  1  0  0  0
 41117  1  0  0  0
 41 48  1  0  0  0
 42 43  1  0  0  0
 42 66  1  0  0  0
 42118  1  0  0  0
 42119  1  0  0  0
 43 44  1  0  0  0
 44120  1  0  0  0
 45 46  2  0  0  0
 45121  1  0  0  0
 46122  1  0  0  0
 47123  1  0  0  0
 47124  1  0  0  0
 48 56  1  0  0  0
 48 65  1  0  0  0
 48125  1  0  0  0
 49 50  1  0  0  0
 49 53  1  0  0  0
 49 64  1  0  0  0
 49126  1  0  0  0
 50 51  1  0  0  0
 50127  1  0  0  0
 50128  1  0  0  0
 51 52  1  0  0  0
 51129  1  0  0  0
 51130  1  0  0  0
 52131  1  0  0  0
 52132  1  0  0  0
 53 54  1  0  0  0
 54 55  2  0  0  0
 54133  1  0  0  0
 55 57  1  0  0  0
 55134  1  0  0  0
 56 69  2  0  0  0
 57 58  2  0  0  0
 57135  1  0  0  0
 58136  1  0  0  0
 59 60  1  0  0  0
 59 61  1  0  0  0
 59 62  1  0  0  0
 60137  1  0  0  0
 60138  1  0  0  0
 60139  1  0  0  0
 61140  1  0  0  0
 61141  1  0  0  0
 61142  1  0  0  0
 62143  1  0  0  0
 62144  1  0  0  0
 62145  1  0  0  0
 63 65  1  0  0  0
 63146  1  0  0  0
 63147  1  0  0  0
 63148  1  0  0  0
 64149  1  0  0  0
 65150  1  0  0  0
 68 89  1  0  0  0
 71 72  2  0  0  0
 71 73  1  0  0  0
 71151  1  0  0  0
 72 76  1  0  0  0
 72 83  1  0  0  0
 73 74  2  0  0  0
 73 85  1  0  0  0
 74 75  1  0  0  0
 74 86  1  0  0  0
 75 76  2  0  0  0
 75 87  1  0  0  0
 76 91  1  0  0  0
 77 78  1  0  0  0
 77 84  1  0  0  0
 77152  1  0  0  0
 77153  1  0  0  0
 78 84  1  0  0  0
 78154  1  0  0  0
 78155  1  0  0  0
 79 81  1  0  0  0
 79 83  1  0  0  0
 79156  1  0  0  0
 79157  1  0  0  0
 80 82  1  0  0  0
 80 83  1  0  0  0
 80158  1  0  0  0
 80159  1  0  0  0
 81 90  1  0  0  0
 81160  1  0  0  0
 81161  1  0  0  0
 82 90  1  0  0  0
 82162  1  0  0  0
 82163  1  0  0  0
 83164  1  0  0  0
 84 91  1  0  0  0
 84165  1  0  0  0
 85166  1  0  0  0
 85167  1  0  0  0
 85168  1  0  0  0
 86169  1  0  0  0
 86170  1  0  0  0
 86171  1  0  0  0
 87 88  1  0  0  0
 87172  1  0  0  0
 87173  1  0  0  0
 88 89  1  0  0  0
 88174  1  0  0  0
 88175  1  0  0  0
 89176  1  0  0  0
 89177  1  0  0  0
 91178  1  0  0  0
M  ISO  4   1 100  68 101  89 101  90 100
M  END
> <chiral flag>
0

> <version>
0

> <s_m_source_file>
/data/baiqing/PycharmProjects/Reinvent-master-3.2/result/LINK_invent/BTK/process_docking_weight1_custom_sum_contain_oxygen_bond_distance_aromatic_linkinvent_7_9_3/rearranged_h_0156.sdf

> <i_m_source_file_index>
83

> <r_mmod_Potential_Energy-OPLS-2005>
239.466064453125

> <r_mmod_Stretch_Energy-OPLS-2005>
42.0798301696777

> <r_mmod_Bend_Energy-OPLS-2005>
121.645721435547

> <r_mmod_Torsional_Energy-OPLS-2005>
392.579956054688

> <r_mmod_Improper_Torsional_Energy-OPLS-2005>
10.2229528427124

> <r_mmod_Van_der_Waal_Energy-OPLS-2005>
175.569595336914

> <r_mmod_Electrostatic_Energy-OPLS-2005>
-320.676422119141

> <r_mmod_Solvation_Energy-OPLS-2005>
-203.078338623047

> <b_mmod_Minimization_Converged-OPLS-2005>
0

> <r_mmod_RMS_Derivative-OPLS-2005>
4.87227296829224

$$$$
83
                    3D
 Structure written by MMmdl.
169178  0  0  1  0            999 V2000
  -30.6670  -14.7127   20.4820 C   0  0  0  0  0  0
  -30.4340  -12.4445   19.4463 C   0  0  0  0  0  0
  -29.5007  -12.4834   18.2141 C   0  0  0  0  0  0
  -28.0314  -12.2869   18.6408 C   0  0  0  0  0  0
  -27.6446  -13.1907   19.8396 C   0  0  2  0  0  0
  -28.7063  -13.0963   20.9679 C   0  0  0  0  0  0
  -25.2551  -13.8077   20.5609 C   0  0  0  0  0  0
  -24.1843  -13.0397   20.9246 C   0  0  0  0  0  0
  -24.6396  -11.6869   20.8827 C   0  0  0  0  0  0
  -23.9050  -10.4265   21.0484 C   0  0  0  0  0  0
  -24.3603   -9.4174   21.9242 C   0  0  0  0  0  0
  -23.6281   -8.2213   22.0778 C   0  0  0  0  0  0
  -22.4259   -8.0266   21.3555 C   0  0  0  0  0  0
  -21.9901   -9.0254   20.4654 C   0  0  0  0  0  0
  -22.7242  -10.2132   20.3095 C   0  0  0  0  0  0
  -21.6840   -6.0724   22.5293 C   0  0  0  0  0  0
  -21.3982   -6.5628   23.8224 C   0  0  0  0  0  0
  -21.3657   -5.6793   24.9189 C   0  0  0  0  0  0
  -21.6048   -4.3058   24.7248 C   0  0  0  0  0  0
  -21.8818   -3.8142   23.4367 C   0  0  0  0  0  0
  -21.9190   -4.6952   22.3417 C   0  0  0  0  0  0
  -22.7865  -13.5235   21.1875 C   0  0  0  0  0  0
  -22.1665   -4.2143   21.0999 F   0  0  0  0  0  0
  -21.5646   -3.4535   25.7762 F   0  0  0  0  0  0
  -29.9833  -13.5131   20.3762 N   0  0  0  0  0  0
  -26.2950  -12.9218   20.3263 N   0  0  0  0  0  0
  -25.9299  -11.6412   20.5820 N   0  0  0  0  0  0
  -22.0451  -12.8261   22.0414 N   0  0  0  0  0  0
  -25.4133  -15.1772   20.3782 N   0  0  0  0  0  0
  -31.8631  -14.7129   20.1652 O   0  0  0  0  0  0
  -21.6614   -6.8872   21.4255 O   0  0  0  0  0  0
  -22.3571  -14.5538   20.6687 O   0  0  0  0  0  0
  -24.6238  -31.8571   23.2080 C   0  0  0  0  0  0
  -25.9098  -32.4796   23.8381 C   0  0  1  0  0  0
  -27.2128  -27.2892   20.1168 C   0  0  0  0  0  0
  -25.5957  -33.8607   24.2323 N   0  0  0  0  0  0
  -23.4247  -30.4784   21.5477 C   0  0  2  0  0  0
  -24.8707  -28.9405   20.0963 C   0  0  0  0  0  0
  -22.7528  -29.4596   22.4967 C   0  0  0  0  0  0
  -18.0350  -28.1318   22.8471 C   0  0  0  0  0  0
  -24.1497  -36.7276   23.2640 C   0  0  0  0  0  0
  -25.9594  -30.7702   21.3941 C   0  0  0  0  0  0
  -26.0312  -29.3984   20.7318 C   0  0  0  0  0  0
  -27.1972  -28.5728   20.7556 C   0  0  0  0  0  0
  -26.0694  -26.9421   19.3757 C   0  0  0  0  0  0
  -24.8941  -27.7152   19.4083 C   0  0  0  0  0  0
  -23.6363  -29.8195   20.1585 C   0  0  0  0  0  0
  -25.4122  -36.3077   24.0331 C   0  0  1  0  0  0
  -20.5940  -28.3681   23.1310 C   0  0  2  0  0  0
  -20.6905  -26.9526   22.5162 C   0  0  0  0  0  0
  -19.5812  -26.6509   21.5046 C   0  0  0  0  0  0
  -18.1998  -26.7932   22.1501 C   0  0  0  0  0  0
  -19.1567  -28.8757   23.2965 C   0  0  0  0  0  0
  -18.9497  -30.1292   23.9131 C   0  0  0  0  0  0
  -17.6476  -30.6435   24.0720 C   0  0  0  0  0  0
  -25.9052  -34.9468   23.5111 C   0  0  0  0  0  0
  -16.5390  -29.9029   23.6234 C   0  0  0  0  0  0
  -16.7312  -28.6481   23.0219 C   0  0  0  0  0  0
  -26.4511  -31.6605   25.0742 C   0  0  0  0  0  0
  -25.3753  -31.3718   26.1471 C   0  0  0  0  0  0
  -27.0373  -30.3037   24.6227 C   0  0  0  0  0  0
  -27.6080  -32.4346   25.7491 C   0  0  0  0  0  0
  -27.5584  -37.1795   24.8478 C   0  0  0  0  0  0
  -21.4173  -29.3255   22.3940 N   0  0  0  0  0  0
  -26.4306  -37.3762   23.9407 N   0  0  0  0  0  0
  -24.6885  -31.0537   22.1082 N   0  0  0  0  0  0
  -23.4255  -28.7930   23.2845 O   0  0  0  0  0  0
  -28.3124  -26.4164   20.2222 O   0  0  0  0  0  0
  -26.5596  -34.8918   22.4659 O   0  0  0  0  0  0
  -23.5390  -32.1429   23.7360 O   0  0  0  0  0  0
  -28.1683  -21.4349   20.9992 C   0  0  0  0  0  0
  -28.0777  -20.1396   21.6715 C   0  0  0  0  0  0
  -27.2985  -22.5571   21.3307 C   0  0  0  0  0  0
  -27.1078  -20.0248   22.7216 C   0  0  0  0  0  0
  -26.1591  -21.0470   22.9523 C   0  0  0  0  0  0
  -26.2773  -22.2881   22.2974 C   0  0  0  0  0  0
  -28.0605  -17.5952   20.9462 C   0  0  0  0  0  0
  -30.1184  -18.6696   20.4292 C   0  0  0  0  0  0
  -28.7179  -16.2271   21.2770 C   0  0  0  0  0  0
  -30.8361  -17.2387   20.5225 C   0  0  0  0  0  0
  -28.9160  -18.8047   21.3880 C   0  0  0  0  0  0
  -27.0211  -18.8032   23.6476 C   0  0  0  0  0  0
  -24.9736  -20.7955   23.9036 C   0  0  0  0  0  0
  -28.2729  -24.9327   19.9639 C   0  0  0  0  0  0
  -27.1618  -24.0038   20.6377 C   0  0  1  0  0  0
  -30.0304  -15.9591   20.6478 N   0  0  0  0  0  0
  -25.2963  -23.2397   22.5961 N   0  0  0  0  0  0
  -26.0738  -23.9407   19.7278 O   0  0  0  0  0  0
  -31.4726  -12.5624   19.1304 H   0  0  0  0  0  0
  -30.3966  -11.4637   19.9227 H   0  0  0  0  0  0
  -29.7888  -11.7145   17.4923 H   0  0  0  0  0  0
  -29.6072  -13.4393   17.6992 H   0  0  0  0  0  0
  -27.9021  -11.2388   18.9131 H   0  0  0  0  0  0
  -27.3634  -12.4684   17.7992 H   0  0  0  0  0  0
  -27.6394  -14.1908   19.4138 H   0  0  0  0  0  0
  -28.7712  -12.0697   21.3286 H   0  0  0  0  0  0
  -28.4596  -13.6707   21.8589 H   0  0  0  0  0  0
  -25.2733   -9.5645   22.4824 H   0  0  0  0  0  0
  -23.9979   -7.4591   22.7487 H   0  0  0  0  0  0
  -21.0842   -8.8795   19.8954 H   0  0  0  0  0  0
  -22.3721  -10.9685   19.6206 H   0  0  0  0  0  0
  -21.1929   -7.6127   23.9738 H   0  0  0  0  0  0
  -21.1493   -6.0507   25.9107 H   0  0  0  0  0  0
  -22.0595   -2.7600   23.2871 H   0  0  0  0  0  0
  -22.3975  -11.9885   22.4803 H   0  0  0  0  0  0
  -21.1080  -13.1359   22.2570 H   0  0  0  0  0  0
  -24.6321  -15.8197   20.4683 H   0  0  0  0  0  0
  -26.2446  -15.6089   19.9980 H   0  0  0  0  0  0
  -26.7120  -32.5455   23.1073 H   0  0  0  0  0  0
  -25.0174  -33.9799   25.0523 H   0  0  0  0  0  0
  -22.7195  -31.3009   21.4125 H   0  0  0  0  0  0
  -23.3775  -35.9591   23.3303 H   0  0  0  0  0  0
  -24.3591  -36.8877   22.2049 H   0  0  0  0  0  0
  -23.7245  -37.6479   23.6652 H   0  0  0  0  0  0
  -26.0927  -31.5369   20.6288 H   0  0  0  0  0  0
  -26.8375  -30.8127   22.0284 H   0  0  0  0  0  0
  -28.0739  -28.9086   21.2918 H   0  0  0  0  0  0
  -26.0875  -26.0874   18.7204 H   0  0  0  0  0  0
  -24.0245  -27.3931   18.8549 H   0  0  0  0  0  0
  -23.7429  -30.6035   19.4035 H   0  0  0  0  0  0
  -22.7553  -29.2405   19.8775 H   0  0  0  0  0  0
  -25.1294  -36.1915   25.0819 H   0  0  0  0  0  0
  -21.0074  -28.3095   24.1407 H   0  0  0  0  0  0
  -20.6073  -26.2248   23.3224 H   0  0  0  0  0  0
  -21.6728  -26.7818   22.0641 H   0  0  0  0  0  0
  -19.7037  -25.6479   21.0886 H   0  0  0  0  0  0
  -19.6618  -27.3427   20.6653 H   0  0  0  0  0  0
  -17.4282  -26.6791   21.3849 H   0  0  0  0  0  0
  -18.0357  -25.9970   22.8733 H   0  0  0  0  0  0
  -19.7945  -30.7012   24.2697 H   0  0  0  0  0  0
  -17.5004  -31.5988   24.5549 H   0  0  0  0  0  0
  -15.5426  -30.2980   23.7412 H   0  0  0  0  0  0
  -15.8733  -28.0896   22.6765 H   0  0  0  0  0  0
  -24.5945  -30.7056   25.7795 H   0  0  0  0  0  0
  -24.8933  -32.2855   26.4943 H   0  0  0  0  0  0
  -25.8083  -30.8866   27.0224 H   0  0  0  0  0  0
  -26.2952  -29.6763   24.1281 H   0  0  0  0  0  0
  -27.4079  -29.7331   25.4752 H   0  0  0  0  0  0
  -27.8819  -30.4346   23.9466 H   0  0  0  0  0  0
  -27.2737  -33.3662   26.2078 H   0  0  0  0  0  0
  -28.3879  -32.6887   25.0301 H   0  0  0  0  0  0
  -28.0772  -31.8475   26.5389 H   0  0  0  0  0  0
  -28.2583  -38.0104   24.7506 H   0  0  0  0  0  0
  -28.1091  -36.2628   24.6318 H   0  0  0  0  0  0
  -27.2304  -37.1449   25.8884 H   0  0  0  0  0  0
  -20.9286  -29.9558   21.7749 H   0  0  0  0  0  0
  -26.0176  -38.2833   24.1401 H   0  0  0  0  0  0
  -28.8971  -21.5559   20.2085 H   0  0  0  0  0  0
  -27.0781  -17.5898   21.4118 H   0  0  0  0  0  0
  -27.8318  -17.6578   19.8810 H   0  0  0  0  0  0
  -29.8003  -18.8589   19.4030 H   0  0  0  0  0  0
  -30.8563  -19.4381   20.6612 H   0  0  0  0  0  0
  -27.9803  -15.5081   20.9734 H   0  0  0  0  0  0
  -28.8287  -16.1178   22.3561 H   0  0  0  0  0  0
  -31.4939  -17.2511   21.3925 H   0  0  0  0  0  0
  -31.5048  -17.1612   19.6631 H   0  0  0  0  0  0
  -29.3813  -18.5877   22.3474 H   0  0  0  0  0  0
  -27.9340  -18.2234   23.7369 H   0  0  0  0  0  0
  -26.2147  -18.1341   23.3389 H   0  0  0  0  0  0
  -26.8155  -19.1203   24.6681 H   0  0  0  0  0  0
  -24.6644  -19.7511   23.9368 H   0  0  0  0  0  0
  -24.0653  -21.3298   23.6127 H   0  0  0  0  0  0
  -25.2386  -21.0939   24.9167 H   0  0  0  0  0  0
  -28.3250  -24.7563   18.8864 H   0  0  0  0  0  0
  -29.2305  -24.5725   20.3387 H   0  0  0  0  0  0
  -26.8711  -24.6622   21.4535 H   0  0  0  0  0  0
  -25.0072  -23.7890   21.7945 H   0  0  0  0  0  0
  -24.4790  -22.8872   23.0803 H   0  0  0  0  0  0
  -25.7459  -24.8322   19.6525 H   0  0  0  0  0  0
  1 25  1  0  0  0
  1 30  2  0  0  0
  1 86  1  0  0  0
  2  3  1  0  0  0
  2 25  1  0  0  0
  2 89  1  0  0  0
  2 90  1  0  0  0
  3  4  1  0  0  0
  3 91  1  0  0  0
  3 92  1  0  0  0
  4  5  1  0  0  0
  4 93  1  0  0  0
  4 94  1  0  0  0
  5  6  1  0  0  0
  5 26  1  0  0  0
  5 95  1  0  0  0
  6 25  1  0  0  0
  6 96  1  0  0  0
  6 97  1  0  0  0
  7  8  2  0  0  0
  7 26  1  0  0  0
  7 29  1  0  0  0
  8  9  1  0  0  0
  8 22  1  0  0  0
  9 10  1  0  0  0
  9 27  2  0  0  0
 10 11  2  0  0  0
 10 15  1  0  0  0
 11 12  1  0  0  0
 11 98  1  0  0  0
 12 13  2  0  0  0
 12 99  1  0  0  0
 13 14  1  0  0  0
 13 31  1  0  0  0
 14 15  2  0  0  0
 14100  1  0  0  0
 15101  1  0  0  0
 16 17  2  0  0  0
 16 21  1  0  0  0
 16 31  1  0  0  0
 17 18  1  0  0  0
 17102  1  0  0  0
 18 19  2  0  0  0
 18103  1  0  0  0
 19 20  1  0  0  0
 19 24  1  0  0  0
 20 21  2  0  0  0
 20104  1  0  0  0
 21 23  1  0  0  0
 22 28  1  0  0  0
 22 32  2  0  0  0
 26 27  1  0  0  0
 28105  1  0  0  0
 28106  1  0  0  0
 29107  1  0  0  0
 29108  1  0  0  0
 33 34  1  0  0  0
 33 66  1  0  0  0
 33 70  2  0  0  0
 34 36  1  0  0  0
 34 59  1  0  0  0
 34109  1  0  0  0
 35 44  2  0  0  0
 35 45  1  0  0  0
 35 68  1  0  0  0
 36 56  1  0  0  0
 36110  1  0  0  0
 37 39  1  0  0  0
 37 47  1  0  0  0
 37 66  1  0  0  0
 37111  1  0  0  0
 38 43  2  0  0  0
 38 46  1  0  0  0
 38 47  1  0  0  0
 39 64  1  0  0  0
 39 67  2  0  0  0
 40 52  1  0  0  0
 40 53  2  0  0  0
 40 58  1  0  0  0
 41112  1  0  0  0
 41113  1  0  0  0
 41114  1  0  0  0
 41 48  1  0  0  0
 42 43  1  0  0  0
 42 66  1  0  0  0
 42115  1  0  0  0
 42116  1  0  0  0
 43 44  1  0  0  0
 44117  1  0  0  0
 45 46  2  0  0  0
 45118  1  0  0  0
 46119  1  0  0  0
 47120  1  0  0  0
 47121  1  0  0  0
 48 56  1  0  0  0
 48 65  1  0  0  0
 48122  1  0  0  0
 49 50  1  0  0  0
 49 53  1  0  0  0
 49 64  1  0  0  0
 49123  1  0  0  0
 50 51  1  0  0  0
 50124  1  0  0  0
 50125  1  0  0  0
 51 52  1  0  0  0
 51126  1  0  0  0
 51127  1  0  0  0
 52128  1  0  0  0
 52129  1  0  0  0
 53 54  1  0  0  0
 54 55  2  0  0  0
 54130  1  0  0  0
 55 57  1  0  0  0
 55131  1  0  0  0
 56 69  2  0  0  0
 57 58  2  0  0  0
 57132  1  0  0  0
 58133  1  0  0  0
 59 60  1  0  0  0
 59 61  1  0  0  0
 59 62  1  0  0  0
 60134  1  0  0  0
 60135  1  0  0  0
 60136  1  0  0  0
 61137  1  0  0  0
 61138  1  0  0  0
 61139  1  0  0  0
 62140  1  0  0  0
 62141  1  0  0  0
 62142  1  0  0  0
 63 65  1  0  0  0
 63143  1  0  0  0
 63144  1  0  0  0
 63145  1  0  0  0
 64146  1  0  0  0
 65147  1  0  0  0
 68 84  1  0  0  0
 71 72  2  0  0  0
 71 73  1  0  0  0
 71148  1  0  0  0
 72 74  1  0  0  0
 72 81  1  0  0  0
 73 76  2  0  0  0
 73 85  1  0  0  0
 74 75  2  0  0  0
 74 82  1  0  0  0
 75 76  1  0  0  0
 75 83  1  0  0  0
 76 87  1  0  0  0
 77 79  1  0  0  0
 77 81  1  0  0  0
 77149  1  0  0  0
 77150  1  0  0  0
 78 80  1  0  0  0
 78 81  1  0  0  0
 78151  1  0  0  0
 78152  1  0  0  0
 79 86  1  0  0  0
 79153  1  0  0  0
 79154  1  0  0  0
 80 86  1  0  0  0
 80155  1  0  0  0
 80156  1  0  0  0
 81157  1  0  0  0
 82158  1  0  0  0
 82159  1  0  0  0
 82160  1  0  0  0
 83161  1  0  0  0
 83162  1  0  0  0
 83163  1  0  0  0
 84 85  1  0  0  0
 84164  1  0  0  0
 84165  1  0  0  0
 85 88  1  0  0  0
 85166  1  0  0  0
 87167  1  0  0  0
 87168  1  0  0  0
 88169  1  0  0  0
M  ISO  4   1 100  68 101  84 101  86 100
M  END
> <chiral flag>
0

> <version>
0

> <s_m_source_file>
/data/baiqing/PycharmProjects/Reinvent-master-3.2/result/LINK_invent/BTK/process_docking_weight1_custom_sum_contain_oxygen_bond_distance_aromatic_linkinvent_7_9_3/rearranged_h_0156.sdf

> <i_m_source_file_index>
84

> <r_mmod_Potential_Energy-OPLS-2005>
489.913757324219

> <r_mmod_Stretch_Energy-OPLS-2005>
132.027450561523

> <r_mmod_Bend_Energy-OPLS-2005>
274.522186279297

> <r_mmod_Torsional_Energy-OPLS-2005>
323.338500976562

> <r_mmod_Improper_Torsional_Energy-OPLS-2005>
13.8857021331787

> <r_mmod_Van_der_Waal_Energy-OPLS-2005>
196.747467041016

> <r_mmod_Electrostatic_Energy-OPLS-2005>
-309.953735351562

> <r_mmod_Solvation_Energy-OPLS-2005>
-215.495742797852

> <b_mmod_Minimization_Converged-OPLS-2005>
0

> <r_mmod_RMS_Derivative-OPLS-2005>
6.27526569366455

$$$$
84
                    3D
 Structure written by MMmdl.
160169  0  0  1  0            999 V2000
  -30.5295  -15.0070   20.4309 C   0  0  0  0  0  0
  -30.4405  -12.6394   19.4839 C   0  0  0  0  0  0
  -29.5188  -12.5464   18.2471 C   0  0  0  0  0  0
  -28.0538  -12.3239   18.6688 C   0  0  0  0  0  0
  -27.6243  -13.2561   19.8322 C   0  0  2  0  0  0
  -28.6715  -13.3084   20.9625 C   0  0  0  0  0  0
  -25.2437  -13.8221   20.5722 C   0  0  0  0  0  0
  -24.1768  -13.0431   20.9244 C   0  0  0  0  0  0
  -24.6405  -11.6926   20.8767 C   0  0  0  0  0  0
  -23.9095  -10.4294   21.0404 C   0  0  0  0  0  0
  -24.3637   -9.4207   21.9181 C   0  0  0  0  0  0
  -23.6305   -8.2244   22.0750 C   0  0  0  0  0  0
  -22.4285   -8.0285   21.3540 C   0  0  0  0  0  0
  -21.9923   -9.0265   20.4645 C   0  0  0  0  0  0
  -22.7263  -10.2140   20.3056 C   0  0  0  0  0  0
  -21.6854   -6.0743   22.5280 C   0  0  0  0  0  0
  -21.4015   -6.5643   23.8216 C   0  0  0  0  0  0
  -21.3662   -5.6791   24.9174 C   0  0  0  0  0  0
  -21.6044   -4.3054   24.7218 C   0  0  0  0  0  0
  -21.8821   -3.8150   23.4338 C   0  0  0  0  0  0
  -21.9192   -4.6970   22.3396 C   0  0  0  0  0  0
  -22.7788  -13.5199   21.1891 C   0  0  0  0  0  0
  -22.1662   -4.2151   21.0975 F   0  0  0  0  0  0
  -21.5631   -3.4540   25.7734 F   0  0  0  0  0  0
  -29.9293  -13.7464   20.3444 N   0  0  0  0  0  0
  -26.2867  -12.9474   20.3240 N   0  0  0  0  0  0
  -25.9335  -11.6597   20.5729 N   0  0  0  0  0  0
  -22.0443  -12.8191   22.0453 N   0  0  0  0  0  0
  -25.4067  -15.1957   20.4158 N   0  0  0  0  0  0
  -31.7493  -15.0384   20.2347 O   0  0  0  0  0  0
  -21.6641   -6.8887   21.4243 O   0  0  0  0  0  0
  -22.3469  -14.5501   20.6736 O   0  0  0  0  0  0
  -24.6456  -31.8418   23.1831 C   0  0  0  0  0  0
  -25.9213  -32.4688   23.8243 C   0  0  1  0  0  0
  -27.2224  -27.1096   20.1668 C   0  0  0  0  0  0
  -25.5961  -33.8494   24.2167 N   0  0  0  0  0  0
  -23.4512  -30.4567   21.5299 C   0  0  2  0  0  0
  -24.9002  -28.8675   20.1195 C   0  0  0  0  0  0
  -22.7586  -29.4529   22.4856 C   0  0  0  0  0  0
  -18.0311  -28.1391   22.8486 C   0  0  0  0  0  0
  -24.1490  -36.7242   23.2640 C   0  0  0  0  0  0
  -26.0080  -30.7072   21.3836 C   0  0  0  0  0  0
  -26.0796  -29.3123   20.7320 C   0  0  0  0  0  0
  -27.2440  -28.4529   20.7276 C   0  0  0  0  0  0
  -26.0152  -26.7610   19.5302 C   0  0  0  0  0  0
  -24.8816  -27.6059   19.5029 C   0  0  0  0  0  0
  -23.6797  -29.7760   20.1538 C   0  0  0  0  0  0
  -25.4128  -36.3033   24.0316 C   0  0  1  0  0  0
  -20.5928  -28.3713   23.1239 C   0  0  2  0  0  0
  -20.6785  -26.9406   22.5418 C   0  0  0  0  0  0
  -19.5763  -26.6371   21.5218 C   0  0  0  0  0  0
  -18.1944  -26.7936   22.1622 C   0  0  0  0  0  0
  -19.1571  -28.8870   23.2852 C   0  0  0  0  0  0
  -18.9485  -30.1468   23.8872 C   0  0  0  0  0  0
  -17.6481  -30.6587   24.0554 C   0  0  0  0  0  0
  -25.9082  -34.9411   23.5049 C   0  0  0  0  0  0
  -16.5370  -29.9079   23.6333 C   0  0  0  0  0  0
  -16.7294  -28.6496   23.0359 C   0  0  0  0  0  0
  -26.4516  -31.6578   25.0702 C   0  0  0  0  0  0
  -25.3687  -31.3783   26.1388 C   0  0  0  0  0  0
  -27.0378  -30.2979   24.6291 C   0  0  0  0  0  0
  -27.6046  -32.4343   25.7492 C   0  0  0  0  0  0
  -27.5581  -37.1777   24.8462 C   0  0  0  0  0  0
  -21.4275  -29.3039   22.3612 N   0  0  0  0  0  0
  -26.4286  -37.3757   23.9413 N   0  0  0  0  0  0
  -24.7218  -31.0245   22.0874 N   0  0  0  0  0  0
  -23.4213  -28.8085   23.3024 O   0  0  0  0  0  0
  -28.2998  -26.1473   20.1373 O   0  0  0  0  0  0
  -26.5662  -34.8917   22.4625 O   0  0  0  0  0  0
  -23.5569  -32.1297   23.7041 O   0  0  0  0  0  0
  -31.6447  -20.9817   20.1894 C   0  0  0  0  0  0
  -28.9490  -20.3853   20.4252 C   0  0  0  0  0  0
  -31.2468  -19.6607   20.4705 C   0  0  0  0  0  0
  -29.9161  -19.2426   20.5378 C   0  0  0  0  0  0
  -30.7157  -22.0360   20.0179 C   0  0  0  0  0  0
  -29.3123  -21.8300   20.1760 C   0  0  0  0  0  0
  -32.1997  -18.6063   20.9608 C   0  0  0  0  0  0
  -31.3107  -17.7229   21.8493 C   0  0  0  0  0  0
  -29.9266  -17.6842   21.1555 C   0  0  2  0  0  0
  -31.6595  -23.4606   18.1418 C   0  0  0  0  0  0
  -31.3132  -23.3879   19.6351 C   0  0  0  0  0  0
  -28.3204  -23.1492   19.8899 C   0  0  0  0  0  0
  -28.2296  -24.6700   20.6674 C   0  0  0  0  0  0
  -29.7510  -16.2133   20.5352 N   0  0  0  0  0  0
  -31.4677  -12.8177   19.1626 H   0  0  0  0  0  0
  -30.4572  -11.6964   20.0316 H   0  0  0  0  0  0
  -29.8475  -11.7452   17.5842 H   0  0  0  0  0  0
  -29.5946  -13.4691   17.6695 H   0  0  0  0  0  0
  -27.9537  -11.2827   18.9749 H   0  0  0  0  0  0
  -27.3892  -12.4557   17.8138 H   0  0  0  0  0  0
  -27.5762  -14.2546   19.3972 H   0  0  0  0  0  0
  -28.7821  -12.3376   21.4485 H   0  0  0  0  0  0
  -28.3639  -14.0114   21.7383 H   0  0  0  0  0  0
  -25.2780   -9.5678   22.4758 H   0  0  0  0  0  0
  -24.0014   -7.4627   22.7461 H   0  0  0  0  0  0
  -21.0856   -8.8792   19.8943 H   0  0  0  0  0  0
  -22.3725  -10.9685   19.6167 H   0  0  0  0  0  0
  -21.2011   -7.6149   23.9720 H   0  0  0  0  0  0
  -21.1482   -6.0518   25.9077 H   0  0  0  0  0  0
  -22.0597   -2.7612   23.2835 H   0  0  0  0  0  0
  -22.4074  -11.9864   22.4860 H   0  0  0  0  0  0
  -21.1049  -13.1198   22.2644 H   0  0  0  0  0  0
  -24.6322  -15.8416   20.5299 H   0  0  0  0  0  0
  -26.2422  -15.6442   20.0651 H   0  0  0  0  0  0
  -26.7280  -32.5282   23.0971 H   0  0  0  0  0  0
  -25.0126  -33.9609   25.0329 H   0  0  0  0  0  0
  -22.7544  -31.2823   21.3691 H   0  0  0  0  0  0
  -23.3773  -35.9553   23.3294 H   0  0  0  0  0  0
  -24.3577  -36.8880   22.2055 H   0  0  0  0  0  0
  -23.7227  -37.6426   23.6685 H   0  0  0  0  0  0
  -26.1663  -31.4585   20.6087 H   0  0  0  0  0  0
  -26.8766  -30.7603   22.0291 H   0  0  0  0  0  0
  -28.1510  -28.7999   21.2009 H   0  0  0  0  0  0
  -25.9415  -25.7937   19.0541 H   0  0  0  0  0  0
  -23.9808  -27.2585   19.0152 H   0  0  0  0  0  0
  -23.8252  -30.5446   19.3939 H   0  0  0  0  0  0
  -22.7928  -29.2211   19.8413 H   0  0  0  0  0  0
  -25.1321  -36.1849   25.0811 H   0  0  0  0  0  0
  -21.0023  -28.3293   24.1361 H   0  0  0  0  0  0
  -20.5654  -26.2324   23.3642 H   0  0  0  0  0  0
  -21.6652  -26.7388   22.1228 H   0  0  0  0  0  0
  -19.6913  -25.6274   21.1266 H   0  0  0  0  0  0
  -19.6708  -27.3162   20.6732 H   0  0  0  0  0  0
  -17.4217  -26.6699   21.4016 H   0  0  0  0  0  0
  -18.0319  -26.0079   22.9015 H   0  0  0  0  0  0
  -19.7957  -30.7296   24.2229 H   0  0  0  0  0  0
  -17.5026  -31.6266   24.5159 H   0  0  0  0  0  0
  -15.5365  -30.2961   23.7677 H   0  0  0  0  0  0
  -15.8701  -28.0795   22.7087 H   0  0  0  0  0  0
  -24.5898  -30.7092   25.7709 H   0  0  0  0  0  0
  -24.8832  -32.2964   26.4706 H   0  0  0  0  0  0
  -25.7962  -30.9039   27.0231 H   0  0  0  0  0  0
  -26.2997  -29.6714   24.1272 H   0  0  0  0  0  0
  -27.3963  -29.7276   25.4869 H   0  0  0  0  0  0
  -27.8918  -30.4224   23.9632 H   0  0  0  0  0  0
  -27.2653  -33.3686   26.1983 H   0  0  0  0  0  0
  -28.3908  -32.6831   25.0350 H   0  0  0  0  0  0
  -28.0658  -31.8516   26.5479 H   0  0  0  0  0  0
  -28.2583  -38.0088   24.7529 H   0  0  0  0  0  0
  -28.1098  -36.2624   24.6268 H   0  0  0  0  0  0
  -27.2305  -37.1385   25.8865 H   0  0  0  0  0  0
  -20.9491  -29.8754   21.6792 H   0  0  0  0  0  0
  -26.0151  -38.2823   24.1429 H   0  0  0  0  0  0
  -32.7032  -21.2012   20.1428 H   0  0  0  0  0  0
  -27.9014  -20.1569   20.5677 H   0  0  0  0  0  0
  -33.0397  -19.0296   21.5136 H   0  0  0  0  0  0
  -32.5899  -18.0472   20.1098 H   0  0  0  0  0  0
  -31.1851  -18.2472   22.7988 H   0  0  0  0  0  0
  -31.7597  -16.7677   22.1121 H   0  0  0  0  0  0
  -29.1673  -17.7035   21.9380 H   0  0  0  0  0  0
  -32.1201  -24.4174   17.8930 H   0  0  0  0  0  0
  -30.7673  -23.3502   17.5237 H   0  0  0  0  0  0
  -32.3595  -22.6747   17.8565 H   0  0  0  0  0  0
  -30.6719  -24.2231   19.8956 H   0  0  0  0  0  0
  -32.2192  -23.5472   20.2220 H   0  0  0  0  0  0
  -27.3081  -22.7465   19.9169 H   0  0  0  0  0  0
  -28.4660  -23.3738   18.8330 H   0  0  0  0  0  0
  -29.0153  -24.6450   21.4227 H   0  0  0  0  0  0
  -27.3235  -24.6373   21.2736 H   0  0  0  0  0  0
  -28.7715  -16.0000   20.4281 H   0  0  0  0  0  0
  1 25  1  0  0  0
  1 30  2  0  0  0
  1 84  1  0  0  0
  2  3  1  0  0  0
  2 25  1  0  0  0
  2 85  1  0  0  0
  2 86  1  0  0  0
  3  4  1  0  0  0
  3 87  1  0  0  0
  3 88  1  0  0  0
  4  5  1  0  0  0
  4 89  1  0  0  0
  4 90  1  0  0  0
  5  6  1  0  0  0
  5 26  1  0  0  0
  5 91  1  0  0  0
  6 25  1  0  0  0
  6 92  1  0  0  0
  6 93  1  0  0  0
  7  8  2  0  0  0
  7 26  1  0  0  0
  7 29  1  0  0  0
  8  9  1  0  0  0
  8 22  1  0  0  0
  9 10  1  0  0  0
  9 27  2  0  0  0
 10 11  2  0  0  0
 10 15  1  0  0  0
 11 12  1  0  0  0
 11 94  1  0  0  0
 12 13  2  0  0  0
 12 95  1  0  0  0
 13 14  1  0  0  0
 13 31  1  0  0  0
 14 15  2  0  0  0
 14 96  1  0  0  0
 15 97  1  0  0  0
 16 17  2  0  0  0
 16 21  1  0  0  0
 16 31  1  0  0  0
 17 18  1  0  0  0
 17 98  1  0  0  0
 18 19  2  0  0  0
 18 99  1  0  0  0
 19 20  1  0  0  0
 19 24  1  0  0  0
 20 21  2  0  0  0
 20100  1  0  0  0
 21 23  1  0  0  0
 22 28  1  0  0  0
 22 32  2  0  0  0
 26 27  1  0  0  0
 28101  1  0  0  0
 28102  1  0  0  0
 29103  1  0  0  0
 29104  1  0  0  0
 33 34  1  0  0  0
 33 66  1  0  0  0
 33 70  2  0  0  0
 34 36  1  0  0  0
 34 59  1  0  0  0
 34105  1  0  0  0
 35 44  2  0  0  0
 35 45  1  0  0  0
 35 68  1  0  0  0
 36 56  1  0  0  0
 36106  1  0  0  0
 37 39  1  0  0  0
 37 47  1  0  0  0
 37 66  1  0  0  0
 37107  1  0  0  0
 38 43  2  0  0  0
 38 46  1  0  0  0
 38 47  1  0  0  0
 39 64  1  0  0  0
 39 67  2  0  0  0
 40 52  1  0  0  0
 40 53  2  0  0  0
 40 58  1  0  0  0
 41108  1  0  0  0
 41109  1  0  0  0
 41110  1  0  0  0
 41 48  1  0  0  0
 42 43  1  0  0  0
 42 66  1  0  0  0
 42111  1  0  0  0
 42112  1  0  0  0
 43 44  1  0  0  0
 44113  1  0  0  0
 45 46  2  0  0  0
 45114  1  0  0  0
 46115  1  0  0  0
 47116  1  0  0  0
 47117  1  0  0  0
 48 56  1  0  0  0
 48 65  1  0  0  0
 48118  1  0  0  0
 49 50  1  0  0  0
 49 53  1  0  0  0
 49 64  1  0  0  0
 49119  1  0  0  0
 50 51  1  0  0  0
 50120  1  0  0  0
 50121  1  0  0  0
 51 52  1  0  0  0
 51122  1  0  0  0
 51123  1  0  0  0
 52124  1  0  0  0
 52125  1  0  0  0
 53 54  1  0  0  0
 54 55  2  0  0  0
 54126  1  0  0  0
 55 57  1  0  0  0
 55127  1  0  0  0
 56 69  2  0  0  0
 57 58  2  0  0  0
 57128  1  0  0  0
 58129  1  0  0  0
 59 60  1  0  0  0
 59 61  1  0  0  0
 59 62  1  0  0  0
 60130  1  0  0  0
 60131  1  0  0  0
 60132  1  0  0  0
 61133  1  0  0  0
 61134  1  0  0  0
 61135  1  0  0  0
 62136  1  0  0  0
 62137  1  0  0  0
 62138  1  0  0  0
 63 65  1  0  0  0
 63139  1  0  0  0
 63140  1  0  0  0
 63141  1  0  0  0
 64142  1  0  0  0
 65143  1  0  0  0
 68 83  1  0  0  0
 71 73  2  0  0  0
 71 75  1  0  0  0
 71144  1  0  0  0
 72 74  2  0  0  0
 72 76  1  0  0  0
 72145  1  0  0  0
 73 74  1  0  0  0
 73 77  1  0  0  0
 74 79  1  0  0  0
 75 76  2  0  0  0
 75 81  1  0  0  0
 76 82  1  0  0  0
 77 78  1  0  0  0
 77146  1  0  0  0
 77147  1  0  0  0
 78 79  1  0  0  0
 78148  1  0  0  0
 78149  1  0  0  0
 79 84  1  0  0  0
 79150  1  0  0  0
 80 81  1  0  0  0
 80151  1  0  0  0
 80152  1  0  0  0
 80153  1  0  0  0
 81154  1  0  0  0
 81155  1  0  0  0
 82 83  1  0  0  0
 82156  1  0  0  0
 82157  1  0  0  0
 83158  1  0  0  0
 83159  1  0  0  0
 84160  1  0  0  0
M  ISO  4   1 100  68 101  83 101  84 100
M  END
> <chiral flag>
0

> <version>
0

> <s_m_source_file>
/data/baiqing/PycharmProjects/Reinvent-master-3.2/result/LINK_invent/BTK/process_docking_weight1_custom_sum_contain_oxygen_bond_distance_aromatic_linkinvent_7_9_3/rearranged_h_0156.sdf

> <i_m_source_file_index>
85

> <r_mmod_Potential_Energy-OPLS-2005>
719.986450195312

> <r_mmod_Stretch_Energy-OPLS-2005>
313.739562988281

> <r_mmod_Bend_Energy-OPLS-2005>
396.892395019531

> <r_mmod_Torsional_Energy-OPLS-2005>
266.503784179688

> <r_mmod_Improper_Torsional_Energy-OPLS-2005>
11.5757293701172

> <r_mmod_Van_der_Waal_Energy-OPLS-2005>
126.891120910645

> <r_mmod_Electrostatic_Energy-OPLS-2005>
-405.678680419922

> <r_mmod_Solvation_Energy-OPLS-2005>
-210.644744873047

> <b_mmod_Minimization_Converged-OPLS-2005>
0

> <r_mmod_RMS_Derivative-OPLS-2005>
1.53953731060028

$$$$
85
                    3D
 Structure written by MMmdl.
170179  0  0  1  0            999 V2000
  -30.7260  -14.4601   20.5475 C   0  0  0  0  0  0
  -30.4166  -12.2931   19.4285 C   0  0  0  0  0  0
  -29.4947  -12.4920   18.2090 C   0  0  0  0  0  0
  -28.0166  -12.3644   18.6193 C   0  0  0  0  0  0
  -27.6617  -13.2130   19.8710 C   0  0  2  0  0  0
  -28.7047  -13.0111   20.9956 C   0  0  0  0  0  0
  -25.2600  -13.8188   20.5687 C   0  0  0  0  0  0
  -24.1855  -13.0454   20.9174 C   0  0  0  0  0  0
  -24.6412  -11.6926   20.8741 C   0  0  0  0  0  0
  -23.9080  -10.4310   21.0405 C   0  0  0  0  0  0
  -24.3626   -9.4225   21.9179 C   0  0  0  0  0  0
  -23.6301   -8.2262   22.0743 C   0  0  0  0  0  0
  -22.4285   -8.0292   21.3536 C   0  0  0  0  0  0
  -21.9925   -9.0271   20.4644 C   0  0  0  0  0  0
  -22.7254  -10.2150   20.3056 C   0  0  0  0  0  0
  -21.6862   -6.0746   22.5285 C   0  0  0  0  0  0
  -21.4024   -6.5640   23.8219 C   0  0  0  0  0  0
  -21.3663   -5.6785   24.9174 C   0  0  0  0  0  0
  -21.6047   -4.3047   24.7221 C   0  0  0  0  0  0
  -21.8818   -3.8146   23.4332 C   0  0  0  0  0  0
  -21.9192   -4.6976   22.3401 C   0  0  0  0  0  0
  -22.7874  -13.5261   21.1818 C   0  0  0  0  0  0
  -22.1658   -4.2160   21.0976 F   0  0  0  0  0  0
  -21.5621   -3.4528   25.7725 F   0  0  0  0  0  0
  -30.0367  -13.2931   20.4385 N   0  0  0  0  0  0
  -26.3039  -12.9367   20.3362 N   0  0  0  0  0  0
  -25.9346  -11.6521   20.5763 N   0  0  0  0  0  0
  -22.0493  -12.8288   22.0374 N   0  0  0  0  0  0
  -25.4308  -15.1906   20.4115 N   0  0  0  0  0  0
  -31.8600  -14.6097   20.0870 O   0  0  0  0  0  0
  -21.6638   -6.8897   21.4248 O   0  0  0  0  0  0
  -22.3558  -14.5552   20.6628 O   0  0  0  0  0  0
  -24.6152  -31.8690   23.2141 C   0  0  0  0  0  0
  -25.9053  -32.4811   23.8439 C   0  0  1  0  0  0
  -27.2258  -27.4525   20.0792 C   0  0  0  0  0  0
  -25.5917  -33.8616   24.2375 N   0  0  0  0  0  0
  -23.4024  -30.4968   21.5538 C   0  0  2  0  0  0
  -24.8472  -28.9697   20.1099 C   0  0  0  0  0  0
  -22.7422  -29.4669   22.5000 C   0  0  0  0  0  0
  -18.0277  -28.1377   22.8493 C   0  0  0  0  0  0
  -24.1477  -36.7302   23.2644 C   0  0  0  0  0  0
  -25.9331  -30.8371   21.3679 C   0  0  0  0  0  0
  -26.0096  -29.4778   20.7054 C   0  0  0  0  0  0
  -27.2075  -28.7268   20.6871 C   0  0  0  0  0  0
  -26.0528  -26.9625   19.4686 C   0  0  0  0  0  0
  -24.8616  -27.7086   19.4905 C   0  0  0  0  0  0
  -23.6108  -29.8367   20.1650 C   0  0  0  0  0  0
  -25.4092  -36.3114   24.0370 C   0  0  1  0  0  0
  -20.5865  -28.3657   23.1331 C   0  0  2  0  0  0
  -20.6741  -26.9389   22.5431 C   0  0  0  0  0  0
  -19.5728  -26.6380   21.5212 C   0  0  0  0  0  0
  -18.1912  -26.7921   22.1628 C   0  0  0  0  0  0
  -19.1526  -28.8829   23.2914 C   0  0  0  0  0  0
  -18.9459  -30.1424   23.8944 C   0  0  0  0  0  0
  -17.6464  -30.6571   24.0582 C   0  0  0  0  0  0
  -25.9026  -34.9477   23.5166 C   0  0  0  0  0  0
  -16.5354  -29.9104   23.6293 C   0  0  0  0  0  0
  -16.7267  -28.6518   23.0318 C   0  0  0  0  0  0
  -26.4476  -31.6558   25.0741 C   0  0  0  0  0  0
  -25.3758  -31.3631   26.1496 C   0  0  0  0  0  0
  -27.0310  -30.3011   24.6073 C   0  0  0  0  0  0
  -27.6093  -32.4212   25.7489 C   0  0  0  0  0  0
  -27.5581  -37.1803   24.8477 C   0  0  0  0  0  0
  -21.4150  -29.3052   22.3763 N   0  0  0  0  0  0
  -26.4287  -37.3793   23.9421 N   0  0  0  0  0  0
  -24.6688  -31.0807   22.1040 N   0  0  0  0  0  0
  -23.4204  -28.8197   23.3020 O   0  0  0  0  0  0
  -28.3427  -26.6496   20.1235 O   0  0  0  0  0  0
  -26.5572  -34.8919   22.4713 O   0  0  0  0  0  0
  -23.5346  -32.1482   23.7515 O   0  0  0  0  0  0
  -27.8031  -21.5786   23.2507 C   0  0  0  0  0  0
  -29.3507  -20.5377   21.6859 C   0  0  0  0  0  0
  -28.0049  -22.8487   22.6820 C   0  0  0  0  0  0
  -29.5649  -21.8266   21.0892 C   0  0  0  0  0  0
  -28.8632  -22.9946   21.5471 C   0  0  0  0  0  0
  -28.4575  -20.4255   22.7787 C   0  0  0  0  0  0
  -31.2399  -18.8442   22.1882 C   0  0  0  0  0  0
  -31.5119  -17.3568   21.9052 C   0  0  0  0  0  0
  -29.3680  -17.9687   20.9030 C   0  0  0  0  0  0
  -30.1337  -19.2795   21.2161 C   0  0  1  0  0  0
  -30.4902  -16.9122   20.8411 C   0  0  2  0  0  0
  -27.2908  -23.9874   23.4019 C   0  0  0  0  0  0
  -30.5966  -21.9526   19.9612 C   0  0  0  0  0  0
  -27.2524  -19.0192   24.3324 C   0  0  0  0  0  0
  -29.0985  -24.3429   20.7969 C   0  0  0  0  0  0
  -28.1333  -25.5307   21.0012 C   0  0  0  0  0  0
  -30.0396  -15.5190   21.0170 N   0  0  0  0  0  0
  -28.3016  -19.1981   23.3883 O   0  0  0  0  0  0
  -31.4627  -12.3731   19.1261 H   0  0  0  0  0  0
  -30.3026  -11.2874   19.8361 H   0  0  0  0  0  0
  -29.7303  -11.7571   17.4382 H   0  0  0  0  0  0
  -29.6722  -13.4715   17.7613 H   0  0  0  0  0  0
  -27.8226  -11.3101   18.8185 H   0  0  0  0  0  0
  -27.3713  -12.6369   17.7826 H   0  0  0  0  0  0
  -27.7021  -14.2587   19.5630 H   0  0  0  0  0  0
  -28.6776  -11.9846   21.3647 H   0  0  0  0  0  0
  -28.4753  -13.6391   21.8572 H   0  0  0  0  0  0
  -25.2778   -9.5691   22.4743 H   0  0  0  0  0  0
  -24.0008   -7.4655   22.7466 H   0  0  0  0  0  0
  -21.0843   -8.8810   19.8953 H   0  0  0  0  0  0
  -22.3728  -10.9687   19.6151 H   0  0  0  0  0  0
  -21.2028   -7.6149   23.9735 H   0  0  0  0  0  0
  -21.1481   -6.0505   25.9079 H   0  0  0  0  0  0
  -22.0592   -2.7612   23.2827 H   0  0  0  0  0  0
  -22.4084  -11.9988   22.4856 H   0  0  0  0  0  0
  -21.1095  -13.1318   22.2500 H   0  0  0  0  0  0
  -24.6634  -15.8443   20.5220 H   0  0  0  0  0  0
  -26.2877  -15.6349   20.1075 H   0  0  0  0  0  0
  -26.7115  -32.5517   23.1192 H   0  0  0  0  0  0
  -25.0125  -33.9779   25.0562 H   0  0  0  0  0  0
  -22.6917  -31.3151   21.4185 H   0  0  0  0  0  0
  -23.3755  -35.9623   23.3320 H   0  0  0  0  0  0
  -24.3595  -36.8884   22.2056 H   0  0  0  0  0  0
  -23.7200  -37.6509   23.6627 H   0  0  0  0  0  0
  -26.0506  -31.6071   20.6051 H   0  0  0  0  0  0
  -26.8213  -30.8802   21.9877 H   0  0  0  0  0  0
  -28.1020  -29.1094   21.1592 H   0  0  0  0  0  0
  -26.0558  -25.9893   18.9970 H   0  0  0  0  0  0
  -23.9669  -27.3074   19.0341 H   0  0  0  0  0  0
  -23.7272  -30.6190   19.4142 H   0  0  0  0  0  0
  -22.7336  -29.2642   19.8577 H   0  0  0  0  0  0
  -25.1253  -36.2012   25.0869 H   0  0  0  0  0  0
  -20.9956  -28.3204   24.1451 H   0  0  0  0  0  0
  -20.5575  -26.2286   23.3628 H   0  0  0  0  0  0
  -21.6621  -26.7373   22.1274 H   0  0  0  0  0  0
  -19.6871  -25.6292   21.1237 H   0  0  0  0  0  0
  -19.6663  -27.3194   20.6744 H   0  0  0  0  0  0
  -17.4174  -26.6682   21.4032 H   0  0  0  0  0  0
  -18.0306  -26.0053   22.9014 H   0  0  0  0  0  0
  -19.7939  -30.7212   24.2359 H   0  0  0  0  0  0
  -17.5025  -31.6248   24.5188 H   0  0  0  0  0  0
  -15.5359  -30.3029   23.7562 H   0  0  0  0  0  0
  -15.8677  -28.0858   22.6988 H   0  0  0  0  0  0
  -24.5949  -30.6948   25.7844 H   0  0  0  0  0  0
  -24.8912  -32.2759   26.4985 H   0  0  0  0  0  0
  -25.8148  -30.8782   27.0222 H   0  0  0  0  0  0
  -26.2821  -29.6707   24.1258 H   0  0  0  0  0  0
  -27.4269  -29.7286   25.4476 H   0  0  0  0  0  0
  -27.8573  -30.4380   23.9095 H   0  0  0  0  0  0
  -27.2792  -33.3530   26.2103 H   0  0  0  0  0  0
  -28.3881  -32.6729   25.0285 H   0  0  0  0  0  0
  -28.0767  -31.8273   26.5355 H   0  0  0  0  0  0
  -28.2613  -38.0086   24.7514 H   0  0  0  0  0  0
  -28.1064  -36.2625   24.6310 H   0  0  0  0  0  0
  -27.2319  -37.1459   25.8886 H   0  0  0  0  0  0
  -20.9295  -29.8898   21.7104 H   0  0  0  0  0  0
  -26.0207  -38.2888   24.1397 H   0  0  0  0  0  0
  -27.1421  -21.5090   24.1004 H   0  0  0  0  0  0
  -32.1343  -19.4588   22.0774 H   0  0  0  0  0  0
  -30.9094  -18.9534   23.2206 H   0  0  0  0  0  0
  -31.4006  -16.7833   22.8261 H   0  0  0  0  0  0
  -32.5341  -17.2014   21.5548 H   0  0  0  0  0  0
  -28.8084  -18.0352   19.9692 H   0  0  0  0  0  0
  -28.6636  -17.6879   21.6807 H   0  0  0  0  0  0
  -30.6250  -19.4934   20.2710 H   0  0  0  0  0  0
  -30.9606  -17.0144   19.8598 H   0  0  0  0  0  0
  -26.8066  -23.6390   24.3140 H   0  0  0  0  0  0
  -26.4935  -24.4217   22.8008 H   0  0  0  0  0  0
  -27.9903  -24.7564   23.7261 H   0  0  0  0  0  0
  -31.5283  -21.4522   20.2277 H   0  0  0  0  0  0
  -30.9020  -22.9680   19.7226 H   0  0  0  0  0  0
  -30.2086  -21.5033   19.0465 H   0  0  0  0  0  0
  -27.2216  -17.9738   24.6395 H   0  0  0  0  0  0
  -26.2787  -19.2625   23.9042 H   0  0  0  0  0  0
  -27.4118  -19.6156   25.2313 H   0  0  0  0  0  0
  -29.0441  -24.1240   19.7305 H   0  0  0  0  0  0
  -30.1162  -24.6790   20.9956 H   0  0  0  0  0  0
  -28.2356  -25.9401   22.0026 H   0  0  0  0  0  0
  -27.1213  -25.1425   20.8876 H   0  0  0  0  0  0
  -29.1076  -15.3530   21.3660 H   0  0  0  0  0  0
  1 25  1  0  0  0
  1 30  2  0  0  0
  1 87  1  0  0  0
  2  3  1  0  0  0
  2 25  1  0  0  0
  2 89  1  0  0  0
  2 90  1  0  0  0
  3  4  1  0  0  0
  3 91  1  0  0  0
  3 92  1  0  0  0
  4  5  1  0  0  0
  4 93  1  0  0  0
  4 94  1  0  0  0
  5  6  1  0  0  0
  5 26  1  0  0  0
  5 95  1  0  0  0
  6 25  1  0  0  0
  6 96  1  0  0  0
  6 97  1  0  0  0
  7  8  2  0  0  0
  7 26  1  0  0  0
  7 29  1  0  0  0
  8  9  1  0  0  0
  8 22  1  0  0  0
  9 10  1  0  0  0
  9 27  2  0  0  0
 10 11  2  0  0  0
 10 15  1  0  0  0
 11 12  1  0  0  0
 11 98  1  0  0  0
 12 13  2  0  0  0
 12 99  1  0  0  0
 13 14  1  0  0  0
 13 31  1  0  0  0
 14 15  2  0  0  0
 14100  1  0  0  0
 15101  1  0  0  0
 16 17  2  0  0  0
 16 21  1  0  0  0
 16 31  1  0  0  0
 17 18  1  0  0  0
 17102  1  0  0  0
 18 19  2  0  0  0
 18103  1  0  0  0
 19 20  1  0  0  0
 19 24  1  0  0  0
 20 21  2  0  0  0
 20104  1  0  0  0
 21 23  1  0  0  0
 22 28  1  0  0  0
 22 32  2  0  0  0
 26 27  1  0  0  0
 28105  1  0  0  0
 28106  1  0  0  0
 29107  1  0  0  0
 29108  1  0  0  0
 33 34  1  0  0  0
 33 66  1  0  0  0
 33 70  2  0  0  0
 34 36  1  0  0  0
 34 59  1  0  0  0
 34109  1  0  0  0
 35 44  2  0  0  0
 35 45  1  0  0  0
 35 68  1  0  0  0
 36 56  1  0  0  0
 36110  1  0  0  0
 37 39  1  0  0  0
 37 47  1  0  0  0
 37 66  1  0  0  0
 37111  1  0  0  0
 38 43  2  0  0  0
 38 46  1  0  0  0
 38 47  1  0  0  0
 39 64  1  0  0  0
 39 67  2  0  0  0
 40 52  1  0  0  0
 40 53  2  0  0  0
 40 58  1  0  0  0
 41112  1  0  0  0
 41113  1  0  0  0
 41114  1  0  0  0
 41 48  1  0  0  0
 42 43  1  0  0  0
 42 66  1  0  0  0
 42115  1  0  0  0
 42116  1  0  0  0
 43 44  1  0  0  0
 44117  1  0  0  0
 45 46  2  0  0  0
 45118  1  0  0  0
 46119  1  0  0  0
 47120  1  0  0  0
 47121  1  0  0  0
 48 56  1  0  0  0
 48 65  1  0  0  0
 48122  1  0  0  0
 49 50  1  0  0  0
 49 53  1  0  0  0
 49 64  1  0  0  0
 49123  1  0  0  0
 50 51  1  0  0  0
 50124  1  0  0  0
 50125  1  0  0  0
 51 52  1  0  0  0
 51126  1  0  0  0
 51127  1  0  0  0
 52128  1  0  0  0
 52129  1  0  0  0
 53 54  1  0  0  0
 54 55  2  0  0  0
 54130  1  0  0  0
 55 57  1  0  0  0
 55131  1  0  0  0
 56 69  2  0  0  0
 57 58  2  0  0  0
 57132  1  0  0  0
 58133  1  0  0  0
 59 60  1  0  0  0
 59 61  1  0  0  0
 59 62  1  0  0  0
 60134  1  0  0  0
 60135  1  0  0  0
 60136  1  0  0  0
 61137  1  0  0  0
 61138  1  0  0  0
 61139  1  0  0  0
 62140  1  0  0  0
 62141  1  0  0  0
 62142  1  0  0  0
 63 65  1  0  0  0
 63143  1  0  0  0
 63144  1  0  0  0
 63145  1  0  0  0
 64146  1  0  0  0
 65147  1  0  0  0
 68 86  1  0  0  0
 71 73  2  0  0  0
 71 76  1  0  0  0
 71148  1  0  0  0
 72 74  1  0  0  0
 72 76  2  0  0  0
 72 80  1  0  0  0
 73 75  1  0  0  0
 73 82  1  0  0  0
 74 75  2  0  0  0
 74 83  1  0  0  0
 75 85  1  0  0  0
 76 88  1  0  0  0
 77 78  1  0  0  0
 77 80  1  0  0  0
 77149  1  0  0  0
 77150  1  0  0  0
 78 81  1  0  0  0
 78151  1  0  0  0
 78152  1  0  0  0
 79 80  1  0  0  0
 79 81  1  0  0  0
 79153  1  0  0  0
 79154  1  0  0  0
 80155  1  0  0  0
 81 87  1  0  0  0
 81156  1  0  0  0
 82157  1  0  0  0
 82158  1  0  0  0
 82159  1  0  0  0
 83160  1  0  0  0
 83161  1  0  0  0
 83162  1  0  0  0
 84 88  1  0  0  0
 84163  1  0  0  0
 84164  1  0  0  0
 84165  1  0  0  0
 85 86  1  0  0  0
 85166  1  0  0  0
 85167  1  0  0  0
 86168  1  0  0  0
 86169  1  0  0  0
 87170  1  0  0  0
M  ISO  4   1 100  68 101  86 101  87 100
M  END
> <chiral flag>
0

> <version>
0

> <s_m_source_file>
/data/baiqing/PycharmProjects/Reinvent-master-3.2/result/LINK_invent/BTK/process_docking_weight1_custom_sum_contain_oxygen_bond_distance_aromatic_linkinvent_7_9_3/rearranged_h_0156.sdf

> <i_m_source_file_index>
86

> <r_mmod_Potential_Energy-OPLS-2005>
73.4499664306641

> <r_mmod_Stretch_Energy-OPLS-2005>
48.0613021850586

> <r_mmod_Bend_Energy-OPLS-2005>
147.226638793945

> <r_mmod_Torsional_Energy-OPLS-2005>
266.151336669922

> <r_mmod_Improper_Torsional_Energy-OPLS-2005>
4.68371486663818

> <r_mmod_Van_der_Waal_Energy-OPLS-2005>
185.34358215332

> <r_mmod_Electrostatic_Energy-OPLS-2005>
-389.89794921875

> <r_mmod_Solvation_Energy-OPLS-2005>
-202.917144775391

> <b_mmod_Minimization_Converged-OPLS-2005>
0

> <r_mmod_RMS_Derivative-OPLS-2005>
2.31249785423279

$$$$
86
                    3D
 Structure written by MMmdl.
173183  0  0  1  0            999 V2000
  -30.7424  -14.5459   20.6305 C   0  0  0  0  0  0
  -30.4290  -12.3821   19.4467 C   0  0  0  0  0  0
  -29.5098  -12.5499   18.2210 C   0  0  0  0  0  0
  -28.0323  -12.3783   18.6175 C   0  0  0  0  0  0
  -27.6602  -13.2207   19.8649 C   0  0  2  0  0  0
  -28.6951  -13.0478   20.9957 C   0  0  0  0  0  0
  -25.2597  -13.8200   20.5656 C   0  0  0  0  0  0
  -24.1862  -13.0437   20.9128 C   0  0  0  0  0  0
  -24.6448  -11.6919   20.8686 C   0  0  0  0  0  0
  -23.9118  -10.4298   21.0363 C   0  0  0  0  0  0
  -24.3655   -9.4222   21.9154 C   0  0  0  0  0  0
  -23.6313   -8.2260   22.0753 C   0  0  0  0  0  0
  -22.4293   -8.0301   21.3544 C   0  0  0  0  0  0
  -21.9930   -9.0274   20.4642 C   0  0  0  0  0  0
  -22.7274  -10.2144   20.3029 C   0  0  0  0  0  0
  -21.6857   -6.0745   22.5289 C   0  0  0  0  0  0
  -21.4017   -6.5640   23.8225 C   0  0  0  0  0  0
  -21.3665   -5.6788   24.9183 C   0  0  0  0  0  0
  -21.6039   -4.3052   24.7217 C   0  0  0  0  0  0
  -21.8834   -3.8153   23.4337 C   0  0  0  0  0  0
  -21.9202   -4.6972   22.3400 C   0  0  0  0  0  0
  -22.7890  -13.5217   21.1786 C   0  0  0  0  0  0
  -22.1664   -4.2165   21.0972 F   0  0  0  0  0  0
  -21.5630   -3.4534   25.7722 F   0  0  0  0  0  0
  -30.0309  -13.3799   20.4638 N   0  0  0  0  0  0
  -26.3031  -12.9393   20.3283 N   0  0  0  0  0  0
  -25.9371  -11.6537   20.5689 N   0  0  0  0  0  0
  -22.0528  -12.8221   22.0360 N   0  0  0  0  0  0
  -25.4305  -15.1918   20.4126 N   0  0  0  0  0  0
  -31.8019  -14.7173   20.0191 O   0  0  0  0  0  0
  -21.6650   -6.8898   21.4250 O   0  0  0  0  0  0
  -22.3571  -14.5511   20.6643 O   0  0  0  0  0  0
  -24.6220  -31.8638   23.2071 C   0  0  0  0  0  0
  -25.9092  -32.4790   23.8376 C   0  0  1  0  0  0
  -27.2186  -27.3605   20.1018 C   0  0  0  0  0  0
  -25.5906  -33.8594   24.2299 N   0  0  0  0  0  0
  -23.4117  -30.4905   21.5491 C   0  0  2  0  0  0
  -24.8511  -28.9518   20.1112 C   0  0  0  0  0  0
  -22.7450  -29.4655   22.4961 C   0  0  0  0  0  0
  -18.0286  -28.1390   22.8484 C   0  0  0  0  0  0
  -24.1491  -36.7310   23.2637 C   0  0  0  0  0  0
  -25.9484  -30.8044   21.3731 C   0  0  0  0  0  0
  -26.0170  -29.4353   20.7169 C   0  0  0  0  0  0
  -27.1998  -28.6470   20.7076 C   0  0  0  0  0  0
  -26.0311  -26.9238   19.4661 C   0  0  0  0  0  0
  -24.8587  -27.6995   19.4808 C   0  0  0  0  0  0
  -23.6201  -29.8284   20.1631 C   0  0  0  0  0  0
  -25.4112  -36.3096   24.0329 C   0  0  1  0  0  0
  -20.5885  -28.3687   23.1298 C   0  0  2  0  0  0
  -20.6780  -26.9410   22.5430 C   0  0  0  0  0  0
  -19.5765  -26.6399   21.5220 C   0  0  0  0  0  0
  -18.1935  -26.7931   22.1623 C   0  0  0  0  0  0
  -19.1527  -28.8858   23.2884 C   0  0  0  0  0  0
  -18.9456  -30.1464   23.8903 C   0  0  0  0  0  0
  -17.6456  -30.6584   24.0576 C   0  0  0  0  0  0
  -25.9051  -34.9461   23.5127 C   0  0  0  0  0  0
  -16.5356  -29.9091   23.6332 C   0  0  0  0  0  0
  -16.7270  -28.6515   23.0340 C   0  0  0  0  0  0
  -26.4503  -31.6590   25.0739 C   0  0  0  0  0  0
  -25.3734  -31.3720   26.1469 C   0  0  0  0  0  0
  -27.0344  -30.3013   24.6182 C   0  0  0  0  0  0
  -27.6062  -32.4327   25.7502 C   0  0  0  0  0  0
  -27.5585  -37.1809   24.8465 C   0  0  0  0  0  0
  -21.4167  -29.3047   22.3694 N   0  0  0  0  0  0
  -26.4297  -37.3783   23.9406 N   0  0  0  0  0  0
  -24.6788  -31.0696   22.0993 N   0  0  0  0  0  0
  -23.4190  -28.8193   23.3018 O   0  0  0  0  0  0
  -28.3818  -26.5897   20.1406 O   0  0  0  0  0  0
  -26.5612  -34.8929   22.4694 O   0  0  0  0  0  0
  -23.5406  -32.1419   23.7445 O   0  0  0  0  0  0
  -29.7439  -21.8638   20.5855 C   0  0  0  0  0  0
  -27.9079  -20.6891   21.1157 C   0  0  0  0  0  0
  -29.2674  -20.5716   20.7231 C   0  0  0  0  0  0
  -27.6263  -22.0026   21.2509 C   0  0  0  0  0  0
  -26.7599  -19.8081   21.4694 C   0  0  0  0  0  0
  -25.6217  -20.8463   21.6979 C   0  0  0  0  0  0
  -30.9262  -16.2855   23.5778 C   0  0  0  0  0  0
  -31.1795  -17.4425   22.6256 C   0  0  0  0  0  0
  -30.0030  -15.3346   22.8201 C   0  0  0  0  0  0
  -30.6381  -17.0071   21.2490 C   0  0  1  0  0  0
  -26.2585  -22.2796   21.7845 C   0  0  0  0  0  0
  -25.4504  -23.3051   20.9717 C   0  0  0  0  0  0
  -26.3160  -22.7376   23.2506 C   0  0  0  0  0  0
  -29.5168  -18.0119   20.7984 C   0  0  0  0  0  0
  -28.8760  -24.2655   21.0583 C   0  0  0  0  0  0
  -28.3677  -25.1468   19.8691 C   0  0  0  0  0  0
  -28.7358  -22.7865   20.9349 N   0  0  0  0  0  0
  -30.2128  -15.5669   21.3853 N   0  0  0  0  0  0
  -30.0232  -19.3842   20.5432 N   0  0  0  0  0  0
  -31.4736  -12.4784   19.1430 H   0  0  0  0  0  0
  -30.3462  -11.3743   19.8547 H   0  0  0  0  0  0
  -29.7829  -11.8379   17.4412 H   0  0  0  0  0  0
  -29.6548  -13.5412   17.7884 H   0  0  0  0  0  0
  -27.8555  -11.3192   18.8086 H   0  0  0  0  0  0
  -27.3910  -12.6508   17.7785 H   0  0  0  0  0  0
  -27.6904  -14.2639   19.5515 H   0  0  0  0  0  0
  -28.6899  -12.0246   21.3709 H   0  0  0  0  0  0
  -28.3967  -13.6633   21.8388 H   0  0  0  0  0  0
  -25.2819   -9.5693   22.4711 H   0  0  0  0  0  0
  -24.0039   -7.4653   22.7472 H   0  0  0  0  0  0
  -21.0864   -8.8784   19.8938 H   0  0  0  0  0  0
  -22.3740  -10.9672   19.6120 H   0  0  0  0  0  0
  -21.2016   -7.6153   23.9729 H   0  0  0  0  0  0
  -21.1462   -6.0513   25.9084 H   0  0  0  0  0  0
  -22.0611   -2.7617   23.2830 H   0  0  0  0  0  0
  -22.4163  -11.9899   22.4762 H   0  0  0  0  0  0
  -21.1124  -13.1230   22.2488 H   0  0  0  0  0  0
  -24.6628  -15.8474   20.5263 H   0  0  0  0  0  0
  -26.2953  -15.6389   20.1334 H   0  0  0  0  0  0
  -26.7151  -32.5482   23.1123 H   0  0  0  0  0  0
  -25.0042  -33.9740   25.0438 H   0  0  0  0  0  0
  -22.7048  -31.3109   21.4116 H   0  0  0  0  0  0
  -23.3749  -35.9647   23.3306 H   0  0  0  0  0  0
  -24.3582  -36.8940   22.2052 H   0  0  0  0  0  0
  -23.7253  -37.6522   23.6655 H   0  0  0  0  0  0
  -26.0775  -31.5671   20.6034 H   0  0  0  0  0  0
  -26.8312  -30.8515   21.9992 H   0  0  0  0  0  0
  -28.0959  -29.0112   21.1889 H   0  0  0  0  0  0
  -25.9634  -25.9903   18.9326 H   0  0  0  0  0  0
  -23.9680  -27.3309   18.9908 H   0  0  0  0  0  0
  -23.7333  -30.6067   19.4067 H   0  0  0  0  0  0
  -22.7367  -29.2592   19.8642 H   0  0  0  0  0  0
  -25.1292  -36.1952   25.0817 H   0  0  0  0  0  0
  -20.9978  -28.3262   24.1414 H   0  0  0  0  0  0
  -20.5693  -26.2283   23.3622 H   0  0  0  0  0  0
  -21.6643  -26.7452   22.1214 H   0  0  0  0  0  0
  -19.6918  -25.6314   21.1237 H   0  0  0  0  0  0
  -19.6712  -27.3216   20.6752 H   0  0  0  0  0  0
  -17.4220  -26.6680   21.4018 H   0  0  0  0  0  0
  -18.0340  -26.0084   22.9030 H   0  0  0  0  0  0
  -19.7933  -30.7277   24.2270 H   0  0  0  0  0  0
  -17.5008  -31.6255   24.5186 H   0  0  0  0  0  0
  -15.5351  -30.2993   23.7656 H   0  0  0  0  0  0
  -15.8668  -28.0848   22.7035 H   0  0  0  0  0  0
  -24.5890  -30.7097   25.7803 H   0  0  0  0  0  0
  -24.8941  -32.2884   26.4917 H   0  0  0  0  0  0
  -25.8051  -30.8882   27.0233 H   0  0  0  0  0  0
  -26.2917  -29.6750   24.1226 H   0  0  0  0  0  0
  -27.4076  -29.7293   25.4687 H   0  0  0  0  0  0
  -27.8773  -30.4330   23.9386 H   0  0  0  0  0  0
  -27.2667  -33.3621   26.2095 H   0  0  0  0  0  0
  -28.3848  -32.6899   25.0304 H   0  0  0  0  0  0
  -28.0748  -31.8436   26.5403 H   0  0  0  0  0  0
  -28.2600  -38.0106   24.7512 H   0  0  0  0  0  0
  -28.1080  -36.2643   24.6282 H   0  0  0  0  0  0
  -27.2306  -37.1460   25.8866 H   0  0  0  0  0  0
  -20.9320  -29.8771   21.6918 H   0  0  0  0  0  0
  -26.0191  -38.2866   24.1389 H   0  0  0  0  0  0
  -30.7278  -22.2255   20.3150 H   0  0  0  0  0  0
  -26.9882  -19.2602   22.3845 H   0  0  0  0  0  0
  -26.5343  -19.0971   20.6729 H   0  0  0  0  0  0
  -24.9986  -20.5923   22.5561 H   0  0  0  0  0  0
  -24.9671  -20.7967   20.8260 H   0  0  0  0  0  0
  -30.4791  -16.6191   24.5155 H   0  0  0  0  0  0
  -31.8686  -15.7928   23.8199 H   0  0  0  0  0  0
  -32.2413  -17.6905   22.5799 H   0  0  0  0  0  0
  -30.6675  -18.3362   22.9884 H   0  0  0  0  0  0
  -28.9616  -15.5611   23.0506 H   0  0  0  0  0  0
  -30.1964  -14.3061   23.1346 H   0  0  0  0  0  0
  -31.4466  -17.0827   20.5214 H   0  0  0  0  0  0
  -25.4268  -23.0601   19.9102 H   0  0  0  0  0  0
  -25.8566  -24.3089   21.0869 H   0  0  0  0  0  0
  -24.4193  -23.3491   21.3239 H   0  0  0  0  0  0
  -26.8132  -22.0006   23.8813 H   0  0  0  0  0  0
  -25.3140  -22.8957   23.6495 H   0  0  0  0  0  0
  -26.8539  -23.6771   23.3612 H   0  0  0  0  0  0
  -28.7407  -18.0351   21.5638 H   0  0  0  0  0  0
  -29.0390  -17.6532   19.8877 H   0  0  0  0  0  0
  -28.3525  -24.5701   21.9620 H   0  0  0  0  0  0
  -29.9263  -24.4918   21.2425 H   0  0  0  0  0  0
  -27.4047  -24.7551   19.5692 H   0  0  0  0  0  0
  -29.0172  -24.9762   19.0106 H   0  0  0  0  0  0
  -31.0223  -19.4825   20.3805 H   0  0  0  0  0  0
  1 25  1  0  0  0
  1 30  2  0  0  0
  1 88  1  0  0  0
  2  3  1  0  0  0
  2 25  1  0  0  0
  2 90  1  0  0  0
  2 91  1  0  0  0
  3  4  1  0  0  0
  3 92  1  0  0  0
  3 93  1  0  0  0
  4  5  1  0  0  0
  4 94  1  0  0  0
  4 95  1  0  0  0
  5  6  1  0  0  0
  5 26  1  0  0  0
  5 96  1  0  0  0
  6 25  1  0  0  0
  6 97  1  0  0  0
  6 98  1  0  0  0
  7  8  2  0  0  0
  7 26  1  0  0  0
  7 29  1  0  0  0
  8  9  1  0  0  0
  8 22  1  0  0  0
  9 10  1  0  0  0
  9 27  2  0  0  0
 10 11  2  0  0  0
 10 15  1  0  0  0
 11 12  1  0  0  0
 11 99  1  0  0  0
 12 13  2  0  0  0
 12100  1  0  0  0
 13 14  1  0  0  0
 13 31  1  0  0  0
 14 15  2  0  0  0
 14101  1  0  0  0
 15102  1  0  0  0
 16 17  2  0  0  0
 16 21  1  0  0  0
 16 31  1  0  0  0
 17 18  1  0  0  0
 17103  1  0  0  0
 18 19  2  0  0  0
 18104  1  0  0  0
 19 20  1  0  0  0
 19 24  1  0  0  0
 20 21  2  0  0  0
 20105  1  0  0  0
 21 23  1  0  0  0
 22 28  1  0  0  0
 22 32  2  0  0  0
 26 27  1  0  0  0
 28106  1  0  0  0
 28107  1  0  0  0
 29108  1  0  0  0
 29109  1  0  0  0
 33 34  1  0  0  0
 33 66  1  0  0  0
 33 70  2  0  0  0
 34 36  1  0  0  0
 34 59  1  0  0  0
 34110  1  0  0  0
 35 44  2  0  0  0
 35 45  1  0  0  0
 35 68  1  0  0  0
 36 56  1  0  0  0
 36111  1  0  0  0
 37 39  1  0  0  0
 37 47  1  0  0  0
 37 66  1  0  0  0
 37112  1  0  0  0
 38 43  2  0  0  0
 38 46  1  0  0  0
 38 47  1  0  0  0
 39 64  1  0  0  0
 39 67  2  0  0  0
 40 52  1  0  0  0
 40 53  2  0  0  0
 40 58  1  0  0  0
 41113  1  0  0  0
 41114  1  0  0  0
 41115  1  0  0  0
 41 48  1  0  0  0
 42 43  1  0  0  0
 42 66  1  0  0  0
 42116  1  0  0  0
 42117  1  0  0  0
 43 44  1  0  0  0
 44118  1  0  0  0
 45 46  2  0  0  0
 45119  1  0  0  0
 46120  1  0  0  0
 47121  1  0  0  0
 47122  1  0  0  0
 48 56  1  0  0  0
 48 65  1  0  0  0
 48123  1  0  0  0
 49 50  1  0  0  0
 49 53  1  0  0  0
 49 64  1  0  0  0
 49124  1  0  0  0
 50 51  1  0  0  0
 50125  1  0  0  0
 50126  1  0  0  0
 51 52  1  0  0  0
 51127  1  0  0  0
 51128  1  0  0  0
 52129  1  0  0  0
 52130  1  0  0  0
 53 54  1  0  0  0
 54 55  2  0  0  0
 54131  1  0  0  0
 55 57  1  0  0  0
 55132  1  0  0  0
 56 69  2  0  0  0
 57 58  2  0  0  0
 57133  1  0  0  0
 58134  1  0  0  0
 59 60  1  0  0  0
 59 61  1  0  0  0
 59 62  1  0  0  0
 60135  1  0  0  0
 60136  1  0  0  0
 60137  1  0  0  0
 61138  1  0  0  0
 61139  1  0  0  0
 61140  1  0  0  0
 62141  1  0  0  0
 62142  1  0  0  0
 62143  1  0  0  0
 63 65  1  0  0  0
 63144  1  0  0  0
 63145  1  0  0  0
 63146  1  0  0  0
 64147  1  0  0  0
 65148  1  0  0  0
 68 86  1  0  0  0
 71 73  2  0  0  0
 71 87  1  0  0  0
 71149  1  0  0  0
 72 73  1  0  0  0
 72 74  2  0  0  0
 72 75  1  0  0  0
 73 89  1  0  0  0
 74 81  1  0  0  0
 74 87  1  0  0  0
 75 76  1  0  0  0
 75150  1  0  0  0
 75151  1  0  0  0
 76 81  1  0  0  0
 76152  1  0  0  0
 76153  1  0  0  0
 77 78  1  0  0  0
 77 79  1  0  0  0
 77154  1  0  0  0
 77155  1  0  0  0
 78 80  1  0  0  0
 78156  1  0  0  0
 78157  1  0  0  0
 79 88  1  0  0  0
 79158  1  0  0  0
 79159  1  0  0  0
 80 84  1  0  0  0
 80 88  1  0  0  0
 80160  1  0  0  0
 81 82  1  0  0  0
 81 83  1  0  0  0
 82161  1  0  0  0
 82162  1  0  0  0
 82163  1  0  0  0
 83164  1  0  0  0
 83165  1  0  0  0
 83166  1  0  0  0
 84 89  1  0  0  0
 84167  1  0  0  0
 84168  1  0  0  0
 85 86  1  0  0  0
 85 87  1  0  0  0
 85169  1  0  0  0
 85170  1  0  0  0
 86171  1  0  0  0
 86172  1  0  0  0
 89173  1  0  0  0
M  ISO  4   1 100  68 101  86 101  88 100
M  END
> <chiral flag>
0

> <version>
0

> <s_m_source_file>
/data/baiqing/PycharmProjects/Reinvent-master-3.2/result/LINK_invent/BTK/process_docking_weight1_custom_sum_contain_oxygen_bond_distance_aromatic_linkinvent_7_9_3/rearranged_h_0156.sdf

> <i_m_source_file_index>
87

> <r_mmod_Potential_Energy-OPLS-2005>
262.190582275391

> <r_mmod_Stretch_Energy-OPLS-2005>
66.0114440917969

> <r_mmod_Bend_Energy-OPLS-2005>
257.446472167969

> <r_mmod_Torsional_Energy-OPLS-2005>
371.788024902344

> <r_mmod_Improper_Torsional_Energy-OPLS-2005>
7.45998096466064

> <r_mmod_Van_der_Waal_Energy-OPLS-2005>
119.565238952637

> <r_mmod_Electrostatic_Energy-OPLS-2005>
-383.91064453125

> <r_mmod_Solvation_Energy-OPLS-2005>
-202.195037841797

> <b_mmod_Minimization_Converged-OPLS-2005>
0

> <r_mmod_RMS_Derivative-OPLS-2005>
3.27401685714722

$$$$
87
                    3D
 Structure written by MMmdl.
161170  0  0  1  0            999 V2000
  -30.6113  -14.7882   20.3959 C   0  0  0  0  0  0
  -30.4320  -12.4727   19.4806 C   0  0  0  0  0  0
  -29.5074  -12.5120   18.2419 C   0  0  0  0  0  0
  -28.0319  -12.3408   18.6528 C   0  0  0  0  0  0
  -27.6370  -13.2424   19.8519 C   0  0  2  0  0  0
  -28.6909  -13.2120   20.9838 C   0  0  0  0  0  0
  -25.2479  -13.8218   20.5754 C   0  0  0  0  0  0
  -24.1776  -13.0451   20.9240 C   0  0  0  0  0  0
  -24.6394  -11.6930   20.8773 C   0  0  0  0  0  0
  -23.9062  -10.4305   21.0423 C   0  0  0  0  0  0
  -24.3615   -9.4216   21.9198 C   0  0  0  0  0  0
  -23.6290   -8.2256   22.0769 C   0  0  0  0  0  0
  -22.4276   -8.0283   21.3554 C   0  0  0  0  0  0
  -21.9911   -9.0254   20.4656 C   0  0  0  0  0  0
  -22.7231  -10.2137   20.3070 C   0  0  0  0  0  0
  -21.6847   -6.0730   22.5274 C   0  0  0  0  0  0
  -21.3995   -6.5645   23.8204 C   0  0  0  0  0  0
  -21.3672   -5.6809   24.9177 C   0  0  0  0  0  0
  -21.6059   -4.3061   24.7221 C   0  0  0  0  0  0
  -21.8807   -3.8150   23.4344 C   0  0  0  0  0  0
  -21.9174   -4.6966   22.3393 C   0  0  0  0  0  0
  -22.7789  -13.5207   21.1854 C   0  0  0  0  0  0
  -22.1645   -4.2155   21.0972 F   0  0  0  0  0  0
  -21.5661   -3.4538   25.7742 F   0  0  0  0  0  0
  -29.9896  -13.5549   20.3918 N   0  0  0  0  0  0
  -26.2919  -12.9449   20.3348 N   0  0  0  0  0  0
  -25.9326  -11.6575   20.5813 N   0  0  0  0  0  0
  -22.0444  -12.8204   22.0432 N   0  0  0  0  0  0
  -25.4154  -15.1952   20.4136 N   0  0  0  0  0  0
  -31.8046  -14.8622   20.0946 O   0  0  0  0  0  0
  -21.6648   -6.8877   21.4241 O   0  0  0  0  0  0
  -22.3448  -14.5466   20.6662 O   0  0  0  0  0  0
  -24.6380  -31.8506   23.1966 C   0  0  0  0  0  0
  -25.9194  -32.4716   23.8323 C   0  0  1  0  0  0
  -27.2195  -27.2223   20.1159 C   0  0  0  0  0  0
  -25.5969  -33.8531   24.2225 N   0  0  0  0  0  0
  -23.4333  -30.4719   21.5435 C   0  0  2  0  0  0
  -24.8761  -28.9092   20.1106 C   0  0  0  0  0  0
  -22.7539  -29.4572   22.4942 C   0  0  0  0  0  0
  -18.0296  -28.1388   22.8492 C   0  0  0  0  0  0
  -24.1487  -36.7280   23.2636 C   0  0  0  0  0  0
  -25.9827  -30.7455   21.3823 C   0  0  0  0  0  0
  -26.0510  -29.3675   20.7172 C   0  0  0  0  0  0
  -27.2238  -28.5392   20.7033 C   0  0  0  0  0  0
  -26.0073  -26.8306   19.5014 C   0  0  0  0  0  0
  -24.8609  -27.6499   19.4921 C   0  0  0  0  0  0
  -23.6511  -29.8047   20.1602 C   0  0  0  0  0  0
  -25.4122  -36.3045   24.0307 C   0  0  1  0  0  0
  -20.5895  -28.3687   23.1284 C   0  0  2  0  0  0
  -20.6770  -26.9406   22.5407 C   0  0  0  0  0  0
  -19.5740  -26.6368   21.5218 C   0  0  0  0  0  0
  -18.1925  -26.7937   22.1624 C   0  0  0  0  0  0
  -19.1550  -28.8862   23.2876 C   0  0  0  0  0  0
  -18.9466  -30.1466   23.8890 C   0  0  0  0  0  0
  -17.6458  -30.6591   24.0546 C   0  0  0  0  0  0
  -25.9081  -34.9419   23.5071 C   0  0  0  0  0  0
  -16.5351  -29.9076   23.6332 C   0  0  0  0  0  0
  -16.7279  -28.6488   23.0375 C   0  0  0  0  0  0
  -26.4519  -31.6588   25.0762 C   0  0  0  0  0  0
  -25.3721  -31.3739   26.1470 C   0  0  0  0  0  0
  -27.0372  -30.2995   24.6302 C   0  0  0  0  0  0
  -27.6080  -32.4332   25.7540 C   0  0  0  0  0  0
  -27.5588  -37.1783   24.8457 C   0  0  0  0  0  0
  -21.4240  -29.3035   22.3696 N   0  0  0  0  0  0
  -26.4278  -37.3764   23.9423 N   0  0  0  0  0  0
  -24.7039  -31.0423   22.0964 N   0  0  0  0  0  0
  -23.4221  -28.8123   23.3062 O   0  0  0  0  0  0
  -28.3289  -26.3317   20.1521 O   0  0  0  0  0  0
  -26.5656  -34.8903   22.4641 O   0  0  0  0  0  0
  -23.5522  -32.1370   23.7234 O   0  0  0  0  0  0
  -29.3873  -19.9778   20.0041 C   0  0  0  0  0  0
  -30.7015  -20.1349   22.4246 C   0  0  0  0  0  0
  -29.4404  -21.2985   20.6433 C   0  0  0  0  0  0
  -29.9629  -18.7439   20.5576 C   0  0  0  0  0  0
  -30.1355  -21.3131   21.8839 C   0  0  0  0  0  0
  -30.6358  -18.8711   21.7892 C   0  0  0  0  0  0
  -27.8716  -23.7269   20.7819 C   0  0  0  0  0  0
  -29.5292  -23.9918   19.5956 C   0  0  0  0  0  0
  -28.7926  -22.6635   20.0445 C   0  0  1  0  0  0
  -28.2296  -24.8661   19.7561 C   0  0  2  0  0  0
  -30.3297  -22.5776   22.7037 C   0  0  0  0  0  0
  -32.1542  -17.8744   23.3769 C   0  0  0  0  0  0
  -30.0526  -17.3211   19.8097 C   0  0  0  0  0  0
  -29.8289  -15.9384   20.4638 N   0  0  0  0  0  0
  -31.2356  -17.7400   22.3020 O   0  0  0  0  0  0
  -31.4742  -12.5908   19.1776 H   0  0  0  0  0  0
  -30.3765  -11.5062   19.9854 H   0  0  0  0  0  0
  -29.7915  -11.7364   17.5285 H   0  0  0  0  0  0
  -29.6279  -13.4618   17.7215 H   0  0  0  0  0  0
  -27.8789  -11.2918   18.9085 H   0  0  0  0  0  0
  -27.3752  -12.5461   17.8061 H   0  0  0  0  0  0
  -27.6155  -14.2587   19.4583 H   0  0  0  0  0  0
  -28.7319  -12.2324   21.4639 H   0  0  0  0  0  0
  -28.4321  -13.9266   21.7657 H   0  0  0  0  0  0
  -25.2766   -9.5690   22.4786 H   0  0  0  0  0  0
  -24.0003   -7.4651   22.7480 H   0  0  0  0  0  0
  -21.0859   -8.8741   19.8958 H   0  0  0  0  0  0
  -22.3679  -10.9672   19.6183 H   0  0  0  0  0  0
  -21.1977   -7.6159   23.9697 H   0  0  0  0  0  0
  -21.1513   -6.0556   25.9083 H   0  0  0  0  0  0
  -22.0569   -2.7613   23.2833 H   0  0  0  0  0  0
  -22.4033  -11.9853   22.4818 H   0  0  0  0  0  0
  -21.1063  -13.1241   22.2635 H   0  0  0  0  0  0
  -24.6474  -15.8495   20.5177 H   0  0  0  0  0  0
  -26.2591  -15.6306   20.0646 H   0  0  0  0  0  0
  -26.7259  -32.5307   23.1063 H   0  0  0  0  0  0
  -25.0081  -33.9649   25.0339 H   0  0  0  0  0  0
  -22.7289  -31.2942   21.3997 H   0  0  0  0  0  0
  -23.3755  -35.9603   23.3259 H   0  0  0  0  0  0
  -24.3581  -36.8964   22.2060 H   0  0  0  0  0  0
  -23.7218  -37.6452   23.6707 H   0  0  0  0  0  0
  -26.1335  -31.5046   20.6145 H   0  0  0  0  0  0
  -26.8567  -30.7846   22.0212 H   0  0  0  0  0  0
  -28.1223  -28.8961   21.1851 H   0  0  0  0  0  0
  -25.8999  -25.8615   19.0387 H   0  0  0  0  0  0
  -23.9577  -27.2884   19.0178 H   0  0  0  0  0  0
  -23.7831  -30.5850   19.4091 H   0  0  0  0  0  0
  -22.7649  -29.2483   19.8491 H   0  0  0  0  0  0
  -25.1295  -36.1871   25.0790 H   0  0  0  0  0  0
  -20.9957  -28.3229   24.1418 H   0  0  0  0  0  0
  -20.5658  -26.2299   23.3608 H   0  0  0  0  0  0
  -21.6638  -26.7421   22.1201 H   0  0  0  0  0  0
  -19.6888  -25.6268   21.1274 H   0  0  0  0  0  0
  -19.6689  -27.3161   20.6733 H   0  0  0  0  0  0
  -17.4202  -26.6717   21.4016 H   0  0  0  0  0  0
  -18.0304  -26.0072   22.9001 H   0  0  0  0  0  0
  -19.7940  -30.7296   24.2254 H   0  0  0  0  0  0
  -17.5005  -31.6286   24.5119 H   0  0  0  0  0  0
  -15.5350  -30.2965   23.7660 H   0  0  0  0  0  0
  -15.8682  -28.0783   22.7115 H   0  0  0  0  0  0
  -24.5883  -30.7114   25.7774 H   0  0  0  0  0  0
  -24.8926  -32.2900   26.4929 H   0  0  0  0  0  0
  -25.8003  -30.8870   27.0240 H   0  0  0  0  0  0
  -26.2969  -29.6743   24.1288 H   0  0  0  0  0  0
  -27.3984  -29.7266   25.4856 H   0  0  0  0  0  0
  -27.8884  -30.4276   23.9614 H   0  0  0  0  0  0
  -27.2711  -33.3636   26.2130 H   0  0  0  0  0  0
  -28.3891  -32.6888   25.0368 H   0  0  0  0  0  0
  -28.0763  -31.8455   26.5450 H   0  0  0  0  0  0
  -28.2546  -38.0131   24.7557 H   0  0  0  0  0  0
  -28.1129  -36.2664   24.6196 H   0  0  0  0  0  0
  -27.2324  -37.1326   25.8857 H   0  0  0  0  0  0
  -20.9452  -29.8777   21.6900 H   0  0  0  0  0  0
  -26.0145  -38.2822   24.1452 H   0  0  0  0  0  0
  -28.9127  -19.9101   19.0344 H   0  0  0  0  0  0
  -31.2211  -20.2274   23.3645 H   0  0  0  0  0  0
  -28.2046  -23.9886   21.7838 H   0  0  0  0  0  0
  -26.8170  -23.4543   20.8068 H   0  0  0  0  0  0
  -29.9246  -23.9556   18.5811 H   0  0  0  0  0  0
  -30.3114  -24.3185   20.2739 H   0  0  0  0  0  0
  -28.2228  -22.3198   19.1779 H   0  0  0  0  0  0
  -27.6612  -24.7485   18.8343 H   0  0  0  0  0  0
  -31.0815  -22.4420   23.4806 H   0  0  0  0  0  0
  -29.4076  -22.8642   23.2053 H   0  0  0  0  0  0
  -30.6909  -23.4001   22.0968 H   0  0  0  0  0  0
  -32.5545  -16.8905   23.6221 H   0  0  0  0  0  0
  -31.6778  -18.2627   24.2790 H   0  0  0  0  0  0
  -32.9933  -18.5157   23.1039 H   0  0  0  0  0  0
  -31.0593  -17.2953   19.3895 H   0  0  0  0  0  0
  -29.4009  -17.3710   18.9377 H   0  0  0  0  0  0
  -28.8739  -15.7647   20.7358 H   0  0  0  0  0  0
  1 25  1  0  0  0
  1 30  2  0  0  0
  1 84  1  0  0  0
  2  3  1  0  0  0
  2 25  1  0  0  0
  2 86  1  0  0  0
  2 87  1  0  0  0
  3  4  1  0  0  0
  3 88  1  0  0  0
  3 89  1  0  0  0
  4  5  1  0  0  0
  4 90  1  0  0  0
  4 91  1  0  0  0
  5  6  1  0  0  0
  5 26  1  0  0  0
  5 92  1  0  0  0
  6 25  1  0  0  0
  6 93  1  0  0  0
  6 94  1  0  0  0
  7  8  2  0  0  0
  7 26  1  0  0  0
  7 29  1  0  0  0
  8  9  1  0  0  0
  8 22  1  0  0  0
  9 10  1  0  0  0
  9 27  2  0  0  0
 10 11  2  0  0  0
 10 15  1  0  0  0
 11 12  1  0  0  0
 11 95  1  0  0  0
 12 13  2  0  0  0
 12 96  1  0  0  0
 13 14  1  0  0  0
 13 31  1  0  0  0
 14 15  2  0  0  0
 14 97  1  0  0  0
 15 98  1  0  0  0
 16 17  2  0  0  0
 16 21  1  0  0  0
 16 31  1  0  0  0
 17 18  1  0  0  0
 17 99  1  0  0  0
 18 19  2  0  0  0
 18100  1  0  0  0
 19 20  1  0  0  0
 19 24  1  0  0  0
 20 21  2  0  0  0
 20101  1  0  0  0
 21 23  1  0  0  0
 22 28  1  0  0  0
 22 32  2  0  0  0
 26 27  1  0  0  0
 28102  1  0  0  0
 28103  1  0  0  0
 29104  1  0  0  0
 29105  1  0  0  0
 33 34  1  0  0  0
 33 66  1  0  0  0
 33 70  2  0  0  0
 34 36  1  0  0  0
 34 59  1  0  0  0
 34106  1  0  0  0
 35 44  2  0  0  0
 35 45  1  0  0  0
 35 68  1  0  0  0
 36 56  1  0  0  0
 36107  1  0  0  0
 37 39  1  0  0  0
 37 47  1  0  0  0
 37 66  1  0  0  0
 37108  1  0  0  0
 38 43  2  0  0  0
 38 46  1  0  0  0
 38 47  1  0  0  0
 39 64  1  0  0  0
 39 67  2  0  0  0
 40 52  1  0  0  0
 40 53  2  0  0  0
 40 58  1  0  0  0
 41109  1  0  0  0
 41110  1  0  0  0
 41111  1  0  0  0
 41 48  1  0  0  0
 42 43  1  0  0  0
 42 66  1  0  0  0
 42112  1  0  0  0
 42113  1  0  0  0
 43 44  1  0  0  0
 44114  1  0  0  0
 45 46  2  0  0  0
 45115  1  0  0  0
 46116  1  0  0  0
 47117  1  0  0  0
 47118  1  0  0  0
 48 56  1  0  0  0
 48 65  1  0  0  0
 48119  1  0  0  0
 49 50  1  0  0  0
 49 53  1  0  0  0
 49 64  1  0  0  0
 49120  1  0  0  0
 50 51  1  0  0  0
 50121  1  0  0  0
 50122  1  0  0  0
 51 52  1  0  0  0
 51123  1  0  0  0
 51124  1  0  0  0
 52125  1  0  0  0
 52126  1  0  0  0
 53 54  1  0  0  0
 54 55  2  0  0  0
 54127  1  0  0  0
 55 57  1  0  0  0
 55128  1  0  0  0
 56 69  2  0  0  0
 57 58  2  0  0  0
 57129  1  0  0  0
 58130  1  0  0  0
 59 60  1  0  0  0
 59 61  1  0  0  0
 59 62  1  0  0  0
 60131  1  0  0  0
 60132  1  0  0  0
 60133  1  0  0  0
 61134  1  0  0  0
 61135  1  0  0  0
 61136  1  0  0  0
 62137  1  0  0  0
 62138  1  0  0  0
 62139  1  0  0  0
 63 65  1  0  0  0
 63140  1  0  0  0
 63141  1  0  0  0
 63142  1  0  0  0
 64143  1  0  0  0
 65144  1  0  0  0
 68 80  1  0  0  0
 71 73  2  0  0  0
 71 74  1  0  0  0
 71145  1  0  0  0
 72 75  2  0  0  0
 72 76  1  0  0  0
 72146  1  0  0  0
 73 75  1  0  0  0
 73 79  1  0  0  0
 74 76  2  0  0  0
 74 83  1  0  0  0
 75 81  1  0  0  0
 76 85  1  0  0  0
 77 79  1  0  0  0
 77 80  1  0  0  0
 77147  1  0  0  0
 77148  1  0  0  0
 78 79  1  0  0  0
 78 80  1  0  0  0
 78149  1  0  0  0
 78150  1  0  0  0
 79151  1  0  0  0
 80152  1  0  0  0
 81153  1  0  0  0
 81154  1  0  0  0
 81155  1  0  0  0
 82 85  1  0  0  0
 82156  1  0  0  0
 82157  1  0  0  0
 82158  1  0  0  0
 83 84  1  0  0  0
 83159  1  0  0  0
 83160  1  0  0  0
 84161  1  0  0  0
M  ISO  4   1 100  68 101  80 101  84 100
M  END
> <chiral flag>
0

> <version>
0

> <s_m_source_file>
/data/baiqing/PycharmProjects/Reinvent-master-3.2/result/LINK_invent/BTK/process_docking_weight1_custom_sum_contain_oxygen_bond_distance_aromatic_linkinvent_7_9_3/rearranged_h_0156.sdf

> <i_m_source_file_index>
88

> <r_mmod_Potential_Energy-OPLS-2005>
216.074340820312

> <r_mmod_Stretch_Energy-OPLS-2005>
148.533660888672

> <r_mmod_Bend_Energy-OPLS-2005>
216.866958618164

> <r_mmod_Torsional_Energy-OPLS-2005>
221.10774230957

> <r_mmod_Improper_Torsional_Energy-OPLS-2005>
8.3848876953125

> <r_mmod_Van_der_Waal_Energy-OPLS-2005>
147.310943603516

> <r_mmod_Electrostatic_Energy-OPLS-2005>
-412.364715576172

> <r_mmod_Solvation_Energy-OPLS-2005>
-219.850997924805

> <b_mmod_Minimization_Converged-OPLS-2005>
0

> <r_mmod_RMS_Derivative-OPLS-2005>
3.41895079612732

$$$$
88
                    3D
 Structure written by MMmdl.
175184  0  0  1  0            999 V2000
  -30.7241  -14.4299   20.4755 C   0  0  0  0  0  0
  -30.4117  -12.2411   19.4317 C   0  0  0  0  0  0
  -29.5021  -12.4425   18.2032 C   0  0  0  0  0  0
  -28.0099  -12.3743   18.5993 C   0  0  0  0  0  0
  -27.6587  -13.2082   19.8653 C   0  0  2  0  0  0
  -28.7071  -13.0094   20.9860 C   0  0  0  0  0  0
  -25.2578  -13.8154   20.5646 C   0  0  0  0  0  0
  -24.1834  -13.0419   20.9147 C   0  0  0  0  0  0
  -24.6414  -11.6901   20.8714 C   0  0  0  0  0  0
  -23.9078  -10.4293   21.0384 C   0  0  0  0  0  0
  -24.3614   -9.4199   21.9162 C   0  0  0  0  0  0
  -23.6291   -8.2240   22.0745 C   0  0  0  0  0  0
  -22.4282   -8.0274   21.3533 C   0  0  0  0  0  0
  -21.9909   -9.0252   20.4641 C   0  0  0  0  0  0
  -22.7244  -10.2128   20.3036 C   0  0  0  0  0  0
  -21.6852   -6.0710   22.5263 C   0  0  0  0  0  0
  -21.4024   -6.5604   23.8204 C   0  0  0  0  0  0
  -21.3686   -5.6765   24.9163 C   0  0  0  0  0  0
  -21.6073   -4.3036   24.7216 C   0  0  0  0  0  0
  -21.8816   -3.8115   23.4336 C   0  0  0  0  0  0
  -21.9195   -4.6935   22.3387 C   0  0  0  0  0  0
  -22.7868  -13.5216   21.1828 C   0  0  0  0  0  0
  -22.1634   -4.2115   21.0966 F   0  0  0  0  0  0
  -21.5672   -3.4519   25.7732 F   0  0  0  0  0  0
  -30.0362  -13.2627   20.4133 N   0  0  0  0  0  0
  -26.3022  -12.9312   20.3322 N   0  0  0  0  0  0
  -25.9335  -11.6478   20.5743 N   0  0  0  0  0  0
  -22.0491  -12.8223   22.0401 N   0  0  0  0  0  0
  -25.4315  -15.1875   20.4057 N   0  0  0  0  0  0
  -31.9414  -14.5070   20.2964 O   0  0  0  0  0  0
  -21.6649   -6.8861   21.4227 O   0  0  0  0  0  0
  -22.3537  -14.5511   20.6689 O   0  0  0  0  0  0
  -24.6039  -31.8726   23.2179 C   0  0  0  0  0  0
  -25.8957  -32.4861   23.8429 C   0  0  1  0  0  0
  -27.2355  -27.4975   20.0852 C   0  0  0  0  0  0
  -25.5865  -33.8664   24.2362 N   0  0  0  0  0  0
  -23.3869  -30.4979   21.5570 C   0  0  2  0  0  0
  -24.8350  -28.9684   20.1200 C   0  0  0  0  0  0
  -22.7318  -29.4666   22.5014 C   0  0  0  0  0  0
  -18.0274  -28.1346   22.8518 C   0  0  0  0  0  0
  -24.1478  -36.7308   23.2648 C   0  0  0  0  0  0
  -25.9069  -30.8563   21.3628 C   0  0  0  0  0  0
  -25.9860  -29.4937   20.7162 C   0  0  0  0  0  0
  -27.1859  -28.7628   20.7092 C   0  0  0  0  0  0
  -26.0757  -26.9787   19.4730 C   0  0  0  0  0  0
  -24.8689  -27.7065   19.4986 C   0  0  0  0  0  0
  -23.5927  -29.8281   20.1714 C   0  0  0  0  0  0
  -25.4090  -36.3127   24.0360 C   0  0  1  0  0  0
  -20.5852  -28.3597   23.1369 C   0  0  2  0  0  0
  -20.6743  -26.9354   22.5420 C   0  0  0  0  0  0
  -19.5739  -26.6376   21.5204 C   0  0  0  0  0  0
  -18.1919  -26.7911   22.1624 C   0  0  0  0  0  0
  -19.1519  -28.8787   23.2956 C   0  0  0  0  0  0
  -18.9445  -30.1416   23.8939 C   0  0  0  0  0  0
  -17.6442  -30.6567   24.0568 C   0  0  0  0  0  0
  -25.9009  -34.9500   23.5145 C   0  0  0  0  0  0
  -16.5333  -29.9056   23.6348 C   0  0  0  0  0  0
  -16.7261  -28.6474   23.0370 C   0  0  0  0  0  0
  -26.4441  -31.6638   25.0727 C   0  0  0  0  0  0
  -25.3754  -31.3700   26.1500 C   0  0  0  0  0  0
  -27.0266  -30.3122   24.6008 C   0  0  0  0  0  0
  -27.6046  -32.4329   25.7464 C   0  0  0  0  0  0
  -27.5583  -37.1796   24.8465 C   0  0  0  0  0  0
  -21.4062  -29.3004   22.3775 N   0  0  0  0  0  0
  -26.4276  -37.3801   23.9437 N   0  0  0  0  0  0
  -24.6506  -31.0849   22.1068 N   0  0  0  0  0  0
  -23.4128  -28.8217   23.3022 O   0  0  0  0  0  0
  -28.3778  -26.7412   20.0492 O   0  0  0  0  0  0
  -26.5558  -34.8930   22.4705 O   0  0  0  0  0  0
  -23.5252  -32.1457   23.7618 O   0  0  0  0  0  0
  -29.9835  -23.1909   21.9367 C   0  0  0  0  0  0
  -31.2548  -25.3872   20.7348 C   0  0  0  0  0  0
  -31.1911  -23.0104   21.2410 C   0  0  0  0  0  0
  -29.9877  -25.5406   21.3326 C   0  0  0  0  0  0
  -31.8637  -24.1132   20.6689 C   0  0  0  0  0  0
  -29.3532  -24.4511   21.9673 C   0  0  0  0  0  0
  -31.3077  -19.4217   19.7522 C   0  0  0  0  0  0
  -31.1284  -17.2411   18.7689 C   0  0  0  0  0  0
  -29.3752  -17.9042   20.4123 C   0  0  0  0  0  0
  -30.2594  -15.9850   18.7025 C   0  0  0  0  0  0
  -29.4136  -16.4583   20.9877 C   0  0  0  0  0  0
  -30.0939  -21.4730   18.9934 C   0  0  0  0  0  0
  -33.6736  -24.9680   19.3410 C   0  0  0  0  0  0
  -27.4332  -23.5247   23.0724 C   0  0  0  0  0  0
  -31.6652  -21.5850   21.0332 C   0  0  0  0  0  0
  -29.2485  -26.8490   21.1709 C   0  0  0  0  0  0
  -30.6468  -20.7267   20.2306 C   0  0  2  0  0  0
  -30.6217  -18.2532   19.7030 N   0  0  0  0  0  0
  -29.9785  -15.4710   20.0501 N   0  0  0  0  0  0
  -32.4564  -19.4974   19.2999 O   0  0  0  0  0  0
  -33.0675  -23.8866   20.0352 O   0  0  0  0  0  0
  -28.1175  -24.6560   22.5443 O   0  0  0  0  0  0
  -31.4630  -12.2974   19.1495 H   0  0  0  0  0  0
  -30.2599  -11.2468   19.8567 H   0  0  0  0  0  0
  -29.7237  -11.6844   17.4502 H   0  0  0  0  0  0
  -29.7143  -13.3972   17.7267 H   0  0  0  0  0  0
  -27.7698  -11.3265   18.7656 H   0  0  0  0  0  0
  -27.3920  -12.6922   17.7573 H   0  0  0  0  0  0
  -27.6879  -14.2534   19.5669 H   0  0  0  0  0  0
  -28.6665  -11.9881   21.3696 H   0  0  0  0  0  0
  -28.5096  -13.6653   21.8361 H   0  0  0  0  0  0
  -25.2757   -9.5681   22.4726 H   0  0  0  0  0  0
  -24.0009   -7.4638   22.7453 H   0  0  0  0  0  0
  -21.0846   -8.8770   19.8956 H   0  0  0  0  0  0
  -22.3701  -10.9654   19.6146 H   0  0  0  0  0  0
  -21.1995   -7.6117   23.9686 H   0  0  0  0  0  0
  -21.1530   -6.0492   25.9063 H   0  0  0  0  0  0
  -22.0585   -2.7578   23.2835 H   0  0  0  0  0  0
  -22.4068  -11.9905   22.4870 H   0  0  0  0  0  0
  -21.1115  -13.1287   22.2540 H   0  0  0  0  0  0
  -24.6715  -15.8496   20.5146 H   0  0  0  0  0  0
  -26.2916  -15.6215   20.0904 H   0  0  0  0  0  0
  -26.6996  -32.5579   23.1172 H   0  0  0  0  0  0
  -25.0038  -33.9834   25.0521 H   0  0  0  0  0  0
  -22.6777  -31.3184   21.4218 H   0  0  0  0  0  0
  -23.3765  -35.9620   23.3285 H   0  0  0  0  0  0
  -24.3604  -36.8928   22.2072 H   0  0  0  0  0  0
  -23.7197  -37.6498   23.6657 H   0  0  0  0  0  0
  -26.0012  -31.6196   20.5906 H   0  0  0  0  0  0
  -26.8039  -30.9167   21.9662 H   0  0  0  0  0  0
  -28.0645  -29.1877   21.1718 H   0  0  0  0  0  0
  -26.0978  -26.0126   18.9851 H   0  0  0  0  0  0
  -23.9782  -27.2953   19.0451 H   0  0  0  0  0  0
  -23.7079  -30.6059   19.4164 H   0  0  0  0  0  0
  -22.7160  -29.2513   19.8655 H   0  0  0  0  0  0
  -25.1271  -36.1999   25.0853 H   0  0  0  0  0  0
  -20.9980  -28.3131   24.1480 H   0  0  0  0  0  0
  -20.5628  -26.2186   23.3566 H   0  0  0  0  0  0
  -21.6607  -26.7389   22.1225 H   0  0  0  0  0  0
  -19.6879  -25.6300   21.1200 H   0  0  0  0  0  0
  -19.6699  -27.3202   20.6752 H   0  0  0  0  0  0
  -17.4186  -26.6713   21.4018 H   0  0  0  0  0  0
  -18.0327  -26.0019   22.8985 H   0  0  0  0  0  0
  -19.7920  -30.7250   24.2306 H   0  0  0  0  0  0
  -17.4999  -31.6279   24.5122 H   0  0  0  0  0  0
  -15.5336  -30.2958   23.7677 H   0  0  0  0  0  0
  -15.8672  -28.0804   22.7068 H   0  0  0  0  0  0
  -24.5899  -30.7077   25.7831 H   0  0  0  0  0  0
  -24.8967  -32.2828   26.5044 H   0  0  0  0  0  0
  -25.8145  -30.8795   27.0191 H   0  0  0  0  0  0
  -26.2746  -29.6885   24.1139 H   0  0  0  0  0  0
  -27.4187  -29.7360   25.4395 H   0  0  0  0  0  0
  -27.8516  -30.4534   23.9026 H   0  0  0  0  0  0
  -27.2704  -33.3599   26.2130 H   0  0  0  0  0  0
  -28.3803  -32.6923   25.0252 H   0  0  0  0  0  0
  -28.0761  -31.8391   26.5299 H   0  0  0  0  0  0
  -28.2578  -38.0115   24.7558 H   0  0  0  0  0  0
  -28.1098  -36.2655   24.6219 H   0  0  0  0  0  0
  -27.2318  -37.1348   25.8868 H   0  0  0  0  0  0
  -20.9180  -29.8730   21.7033 H   0  0  0  0  0  0
  -26.0177  -38.2879   24.1468 H   0  0  0  0  0  0
  -29.5201  -22.3182   22.3675 H   0  0  0  0  0  0
  -31.7118  -26.2538   20.2822 H   0  0  0  0  0  0
  -31.2070  -17.6785   17.7724 H   0  0  0  0  0  0
  -32.1389  -16.9572   19.0702 H   0  0  0  0  0  0
  -29.1421  -18.5854   21.2267 H   0  0  0  0  0  0
  -28.5538  -18.0016   19.7004 H   0  0  0  0  0  0
  -30.7939  -15.2582   18.0858 H   0  0  0  0  0  0
  -29.3208  -16.1679   18.1781 H   0  0  0  0  0  0
  -28.4101  -16.1330   21.2683 H   0  0  0  0  0  0
  -29.9957  -16.4670   21.9136 H   0  0  0  0  0  0
  -29.4044  -20.8528   18.4203 H   0  0  0  0  0  0
  -30.9103  -21.7683   18.3313 H   0  0  0  0  0  0
  -29.5462  -22.3753   19.2617 H   0  0  0  0  0  0
  -34.5866  -24.6296   18.8516 H   0  0  0  0  0  0
  -33.9565  -25.7704   20.0228 H   0  0  0  0  0  0
  -33.0059  -25.3626   18.5730 H   0  0  0  0  0  0
  -26.4585  -23.8312   23.4527 H   0  0  0  0  0  0
  -27.9797  -23.0823   23.9063 H   0  0  0  0  0  0
  -27.2632  -22.7596   22.3119 H   0  0  0  0  0  0
  -31.8378  -21.1270   22.0062 H   0  0  0  0  0  0
  -32.6344  -21.6030   20.5366 H   0  0  0  0  0  0
  -29.9460  -27.6767   21.0224 H   0  0  0  0  0  0
  -28.6979  -27.0566   22.0921 H   0  0  0  0  0  0
  -29.8049  -20.5242   20.8856 H   0  0  0  0  0  0
  1 25  1  0  0  0
  1 30  2  0  0  0
  1 89  1  0  0  0
  2  3  1  0  0  0
  2 25  1  0  0  0
  2 93  1  0  0  0
  2 94  1  0  0  0
  3  4  1  0  0  0
  3 95  1  0  0  0
  3 96  1  0  0  0
  4  5  1  0  0  0
  4 97  1  0  0  0
  4 98  1  0  0  0
  5  6  1  0  0  0
  5 26  1  0  0  0
  5 99  1  0  0  0
  6 25  1  0  0  0
  6100  1  0  0  0
  6101  1  0  0  0
  7  8  2  0  0  0
  7 26  1  0  0  0
  7 29  1  0  0  0
  8  9  1  0  0  0
  8 22  1  0  0  0
  9 10  1  0  0  0
  9 27  2  0  0  0
 10 11  2  0  0  0
 10 15  1  0  0  0
 11 12  1  0  0  0
 11102  1  0  0  0
 12 13  2  0  0  0
 12103  1  0  0  0
 13 14  1  0  0  0
 13 31  1  0  0  0
 14 15  2  0  0  0
 14104  1  0  0  0
 15105  1  0  0  0
 16 17  2  0  0  0
 16 21  1  0  0  0
 16 31  1  0  0  0
 17 18  1  0  0  0
 17106  1  0  0  0
 18 19  2  0  0  0
 18107  1  0  0  0
 19 20  1  0  0  0
 19 24  1  0  0  0
 20 21  2  0  0  0
 20108  1  0  0  0
 21 23  1  0  0  0
 22 28  1  0  0  0
 22 32  2  0  0  0
 26 27  1  0  0  0
 28109  1  0  0  0
 28110  1  0  0  0
 29111  1  0  0  0
 29112  1  0  0  0
 33 34  1  0  0  0
 33 66  1  0  0  0
 33 70  2  0  0  0
 34 36  1  0  0  0
 34 59  1  0  0  0
 34113  1  0  0  0
 35 44  2  0  0  0
 35 45  1  0  0  0
 35 68  1  0  0  0
 36 56  1  0  0  0
 36114  1  0  0  0
 37 39  1  0  0  0
 37 47  1  0  0  0
 37 66  1  0  0  0
 37115  1  0  0  0
 38 43  2  0  0  0
 38 46  1  0  0  0
 38 47  1  0  0  0
 39 64  1  0  0  0
 39 67  2  0  0  0
 40 52  1  0  0  0
 40 53  2  0  0  0
 40 58  1  0  0  0
 41116  1  0  0  0
 41117  1  0  0  0
 41118  1  0  0  0
 41 48  1  0  0  0
 42 43  1  0  0  0
 42 66  1  0  0  0
 42119  1  0  0  0
 42120  1  0  0  0
 43 44  1  0  0  0
 44121  1  0  0  0
 45 46  2  0  0  0
 45122  1  0  0  0
 46123  1  0  0  0
 47124  1  0  0  0
 47125  1  0  0  0
 48 56  1  0  0  0
 48 65  1  0  0  0
 48126  1  0  0  0
 49 50  1  0  0  0
 49 53  1  0  0  0
 49 64  1  0  0  0
 49127  1  0  0  0
 50 51  1  0  0  0
 50128  1  0  0  0
 50129  1  0  0  0
 51 52  1  0  0  0
 51130  1  0  0  0
 51131  1  0  0  0
 52132  1  0  0  0
 52133  1  0  0  0
 53 54  1  0  0  0
 54 55  2  0  0  0
 54134  1  0  0  0
 55 57  1  0  0  0
 55135  1  0  0  0
 56 69  2  0  0  0
 57 58  2  0  0  0
 57136  1  0  0  0
 58137  1  0  0  0
 59 60  1  0  0  0
 59 61  1  0  0  0
 59 62  1  0  0  0
 60138  1  0  0  0
 60139  1  0  0  0
 60140  1  0  0  0
 61141  1  0  0  0
 61142  1  0  0  0
 61143  1  0  0  0
 62144  1  0  0  0
 62145  1  0  0  0
 62146  1  0  0  0
 63 65  1  0  0  0
 63147  1  0  0  0
 63148  1  0  0  0
 63149  1  0  0  0
 64150  1  0  0  0
 65151  1  0  0  0
 68 86  1  0  0  0
 71 73  2  0  0  0
 71 76  1  0  0  0
 71152  1  0  0  0
 72 74  1  0  0  0
 72 75  2  0  0  0
 72153  1  0  0  0
 73 75  1  0  0  0
 73 85  1  0  0  0
 74 76  2  0  0  0
 74 86  1  0  0  0
 75 91  1  0  0  0
 76 92  1  0  0  0
 77 87  1  0  0  0
 77 88  1  0  0  0
 77 90  2  0  0  0
 78 80  1  0  0  0
 78 88  1  0  0  0
 78154  1  0  0  0
 78155  1  0  0  0
 79 81  1  0  0  0
 79 88  1  0  0  0
 79156  1  0  0  0
 79157  1  0  0  0
 80 89  1  0  0  0
 80158  1  0  0  0
 80159  1  0  0  0
 81 89  1  0  0  0
 81160  1  0  0  0
 81161  1  0  0  0
 82162  1  0  0  0
 82163  1  0  0  0
 82164  1  0  0  0
 82 87  1  0  0  0
 83 91  1  0  0  0
 83165  1  0  0  0
 83166  1  0  0  0
 83167  1  0  0  0
 84 92  1  0  0  0
 84168  1  0  0  0
 84169  1  0  0  0
 84170  1  0  0  0
 85 87  1  0  0  0
 85171  1  0  0  0
 85172  1  0  0  0
 86173  1  0  0  0
 86174  1  0  0  0
 87175  1  0  0  0
M  ISO  4   1 100  68 101  86 101  89 100
M  END
> <chiral flag>
0

> <version>
0

> <s_m_source_file>
/data/baiqing/PycharmProjects/Reinvent-master-3.2/result/LINK_invent/BTK/process_docking_weight1_custom_sum_contain_oxygen_bond_distance_aromatic_linkinvent_7_9_3/rearranged_h_0156.sdf

> <i_m_source_file_index>
89

> <r_mmod_Potential_Energy-OPLS-2005>
298.713226318359

> <r_mmod_Stretch_Energy-OPLS-2005>
36.903018951416

> <r_mmod_Bend_Energy-OPLS-2005>
116.142951965332

> <r_mmod_Torsional_Energy-OPLS-2005>
433.163879394531

> <r_mmod_Improper_Torsional_Energy-OPLS-2005>
28.4821395874023

> <r_mmod_Van_der_Waal_Energy-OPLS-2005>
196.136016845703

> <r_mmod_Electrostatic_Energy-OPLS-2005>
-303.071685791016

> <r_mmod_Solvation_Energy-OPLS-2005>
-232.186676025391

> <b_mmod_Minimization_Converged-OPLS-2005>
0

> <r_mmod_RMS_Derivative-OPLS-2005>
5.36907386779785

$$$$
89
                    3D
 Structure written by MMmdl.
164172  0  0  1  0            999 V2000
  -30.7270  -14.4568   20.5722 C   0  0  0  0  0  0
  -30.4146  -12.3003   19.4292 C   0  0  0  0  0  0
  -29.4930  -12.4983   18.2089 C   0  0  0  0  0  0
  -28.0143  -12.3653   18.6202 C   0  0  0  0  0  0
  -27.6601  -13.2120   19.8734 C   0  0  2  0  0  0
  -28.7005  -13.0115   20.9987 C   0  0  0  0  0  0
  -25.2587  -13.8177   20.5688 C   0  0  0  0  0  0
  -24.1846  -13.0451   20.9188 C   0  0  0  0  0  0
  -24.6403  -11.6917   20.8747 C   0  0  0  0  0  0
  -23.9071  -10.4303   21.0404 C   0  0  0  0  0  0
  -24.3624   -9.4218   21.9178 C   0  0  0  0  0  0
  -23.6304   -8.2248   22.0745 C   0  0  0  0  0  0
  -22.4283   -8.0282   21.3540 C   0  0  0  0  0  0
  -21.9924   -9.0258   20.4646 C   0  0  0  0  0  0
  -22.7246  -10.2138   20.3055 C   0  0  0  0  0  0
  -21.6857   -6.0745   22.5282 C   0  0  0  0  0  0
  -21.4014   -6.5647   23.8215 C   0  0  0  0  0  0
  -21.3662   -5.6796   24.9175 C   0  0  0  0  0  0
  -21.6041   -4.3056   24.7223 C   0  0  0  0  0  0
  -21.8823   -3.8154   23.4342 C   0  0  0  0  0  0
  -21.9197   -4.6976   22.3401 C   0  0  0  0  0  0
  -22.7868  -13.5249   21.1842 C   0  0  0  0  0  0
  -22.1666   -4.2165   21.0982 F   0  0  0  0  0  0
  -21.5631   -3.4537   25.7729 F   0  0  0  0  0  0
  -30.0322  -13.2966   20.4429 N   0  0  0  0  0  0
  -26.3017  -12.9356   20.3364 N   0  0  0  0  0  0
  -25.9325  -11.6511   20.5767 N   0  0  0  0  0  0
  -22.0514  -12.8243   22.0403 N   0  0  0  0  0  0
  -25.4317  -15.1891   20.4094 N   0  0  0  0  0  0
  -31.8539  -14.6143   20.0982 O   0  0  0  0  0  0
  -21.6644   -6.8880   21.4238 O   0  0  0  0  0  0
  -22.3557  -14.5555   20.6686 O   0  0  0  0  0  0
  -24.6141  -31.8693   23.2093 C   0  0  0  0  0  0
  -25.9038  -32.4822   23.8399 C   0  0  1  0  0  0
  -27.2226  -27.4238   20.1164 C   0  0  0  0  0  0
  -25.5897  -33.8623   24.2322 N   0  0  0  0  0  0
  -23.4018  -30.4927   21.5490 C   0  0  2  0  0  0
  -24.8502  -28.9605   20.1110 C   0  0  0  0  0  0
  -22.7413  -29.4666   22.4974 C   0  0  0  0  0  0
  -18.0278  -28.1367   22.8507 C   0  0  0  0  0  0
  -24.1487  -36.7315   23.2639 C   0  0  0  0  0  0
  -25.9319  -30.8295   21.3682 C   0  0  0  0  0  0
  -26.0079  -29.4614   20.7221 C   0  0  0  0  0  0
  -27.1976  -28.6969   20.7321 C   0  0  0  0  0  0
  -26.0672  -26.9620   19.4551 C   0  0  0  0  0  0
  -24.8750  -27.7079   19.4740 C   0  0  0  0  0  0
  -23.6116  -29.8268   20.1626 C   0  0  0  0  0  0
  -25.4105  -36.3109   24.0334 C   0  0  1  0  0  0
  -20.5868  -28.3650   23.1315 C   0  0  2  0  0  0
  -20.6760  -26.9387   22.5414 C   0  0  0  0  0  0
  -19.5732  -26.6373   21.5217 C   0  0  0  0  0  0
  -18.1915  -26.7912   22.1634 C   0  0  0  0  0  0
  -19.1530  -28.8830   23.2908 C   0  0  0  0  0  0
  -18.9455  -30.1440   23.8907 C   0  0  0  0  0  0
  -17.6457  -30.6576   24.0573 C   0  0  0  0  0  0
  -25.9034  -34.9474   23.5118 C   0  0  0  0  0  0
  -16.5349  -29.9077   23.6326 C   0  0  0  0  0  0
  -16.7266  -28.6491   23.0351 C   0  0  0  0  0  0
  -26.4465  -31.6597   25.0726 C   0  0  0  0  0  0
  -25.3743  -31.3720   26.1487 C   0  0  0  0  0  0
  -27.0286  -30.3034   24.6102 C   0  0  0  0  0  0
  -27.6034  -32.4324   25.7499 C   0  0  0  0  0  0
  -27.5574  -37.1813   24.8464 C   0  0  0  0  0  0
  -21.4140  -29.3025   22.3724 N   0  0  0  0  0  0
  -26.4286  -37.3796   23.9413 N   0  0  0  0  0  0
  -24.6669  -31.0802   22.0988 N   0  0  0  0  0  0
  -23.4194  -28.8222   23.3017 O   0  0  0  0  0  0
  -28.3612  -26.6511   20.1017 O   0  0  0  0  0  0
  -26.5599  -34.8920   22.4679 O   0  0  0  0  0  0
  -23.5330  -32.1445   23.7482 O   0  0  0  0  0  0
  -29.2524  -22.6794   20.0961 C   0  0  0  0  0  0
  -28.6496  -20.7425   22.0177 C   0  0  0  0  0  0
  -29.9073  -21.4312   20.0670 C   0  0  0  0  0  0
  -28.2884  -22.9950   21.0797 C   0  0  0  0  0  0
  -29.5859  -20.4323   21.0077 C   0  0  0  0  0  0
  -28.0163  -22.0180   22.0907 C   0  0  0  0  0  0
  -30.9475  -21.1575   18.9977 C   0  0  0  0  0  0
  -26.2243  -24.4881   21.6872 C   0  0  0  0  0  0
  -26.8969  -21.3663   24.1368 C   0  0  0  0  0  0
  -30.6209  -16.8700   21.0852 C   0  0  0  0  0  0
  -29.5995  -18.0095   21.3077 C   0  0  0  0  0  0
  -28.4617  -25.6186   21.1095 C   0  0  0  0  0  0
  -27.5554  -24.3583   20.9135 C   0  0  1  0  0  0
  -30.0712  -15.5026   21.1072 N   0  0  0  0  0  0
  -27.1479  -22.3287   23.1175 O   0  0  0  0  0  0
  -30.2537  -19.2244   20.9211 O   0  0  0  0  0  0
  -31.4608  -12.3846   19.1282 H   0  0  0  0  0  0
  -30.3030  -11.2945   19.8359 H   0  0  0  0  0  0
  -29.7323  -11.7695   17.4334 H   0  0  0  0  0  0
  -29.6655  -13.4814   17.7683 H   0  0  0  0  0  0
  -27.8221  -11.3101   18.8167 H   0  0  0  0  0  0
  -27.3652  -12.6373   17.7863 H   0  0  0  0  0  0
  -27.6999  -14.2586   19.5689 H   0  0  0  0  0  0
  -28.6713  -11.9856   21.3681 H   0  0  0  0  0  0
  -28.4660  -13.6404   21.8589 H   0  0  0  0  0  0
  -25.2769   -9.5699   22.4747 H   0  0  0  0  0  0
  -24.0025   -7.4646   22.7461 H   0  0  0  0  0  0
  -21.0856   -8.8776   19.8954 H   0  0  0  0  0  0
  -22.3701  -10.9677   19.6165 H   0  0  0  0  0  0
  -21.1994   -7.6153   23.9724 H   0  0  0  0  0  0
  -21.1483   -6.0522   25.9081 H   0  0  0  0  0  0
  -22.0596   -2.7617   23.2835 H   0  0  0  0  0  0
  -22.4130  -11.9911   22.4806 H   0  0  0  0  0  0
  -21.1113  -13.1249   22.2577 H   0  0  0  0  0  0
  -24.6655  -15.8455   20.5133 H   0  0  0  0  0  0
  -26.2846  -15.6251   20.0811 H   0  0  0  0  0  0
  -26.7114  -32.5543   23.1169 H   0  0  0  0  0  0
  -25.0071  -33.9803   25.0482 H   0  0  0  0  0  0
  -22.6891  -31.3083   21.4109 H   0  0  0  0  0  0
  -23.3734  -35.9665   23.3320 H   0  0  0  0  0  0
  -24.3590  -36.8910   22.2050 H   0  0  0  0  0  0
  -23.7242  -37.6527   23.6645 H   0  0  0  0  0  0
  -26.0481  -31.5897   20.5955 H   0  0  0  0  0  0
  -26.8185  -30.8835   21.9870 H   0  0  0  0  0  0
  -28.0884  -29.0763   21.2132 H   0  0  0  0  0  0
  -26.0795  -26.0129   18.9394 H   0  0  0  0  0  0
  -23.9920  -27.3227   18.9847 H   0  0  0  0  0  0
  -23.7184  -30.6033   19.4041 H   0  0  0  0  0  0
  -22.7354  -29.2463   19.8662 H   0  0  0  0  0  0
  -25.1277  -36.1970   25.0827 H   0  0  0  0  0  0
  -20.9978  -28.3211   24.1427 H   0  0  0  0  0  0
  -20.5660  -26.2263   23.3600 H   0  0  0  0  0  0
  -21.6631  -26.7413   22.1214 H   0  0  0  0  0  0
  -19.6884  -25.6286   21.1231 H   0  0  0  0  0  0
  -19.6666  -27.3205   20.6764 H   0  0  0  0  0  0
  -17.4188  -26.6687   21.4032 H   0  0  0  0  0  0
  -18.0309  -26.0046   22.9019 H   0  0  0  0  0  0
  -19.7935  -30.7269   24.2266 H   0  0  0  0  0  0
  -17.5007  -31.6259   24.5168 H   0  0  0  0  0  0
  -15.5350  -30.2980   23.7627 H   0  0  0  0  0  0
  -15.8671  -28.0811   22.7041 H   0  0  0  0  0  0
  -24.5894  -30.7077   25.7846 H   0  0  0  0  0  0
  -24.8966  -32.2890   26.4954 H   0  0  0  0  0  0
  -25.8112  -30.8886   27.0232 H   0  0  0  0  0  0
  -26.2821  -29.6815   24.1144 H   0  0  0  0  0  0
  -27.4031  -29.7250   25.4558 H   0  0  0  0  0  0
  -27.8676  -30.4347   23.9262 H   0  0  0  0  0  0
  -27.2627  -33.3601   26.2112 H   0  0  0  0  0  0
  -28.3835  -32.6922   25.0330 H   0  0  0  0  0  0
  -28.0710  -31.8431   26.5399 H   0  0  0  0  0  0
  -28.2598  -38.0106   24.7511 H   0  0  0  0  0  0
  -28.1058  -36.2635   24.6281 H   0  0  0  0  0  0
  -27.2304  -37.1450   25.8872 H   0  0  0  0  0  0
  -20.9276  -29.8771   21.6989 H   0  0  0  0  0  0
  -26.0166  -38.2873   24.1415 H   0  0  0  0  0  0
  -29.4857  -23.4107   19.3342 H   0  0  0  0  0  0
  -28.4437  -19.9881   22.7592 H   0  0  0  0  0  0
  -31.1495  -22.0443   18.3970 H   0  0  0  0  0  0
  -30.6055  -20.3661   18.3311 H   0  0  0  0  0  0
  -31.8872  -20.8415   19.4524 H   0  0  0  0  0  0
  -26.3879  -24.5558   22.7617 H   0  0  0  0  0  0
  -25.5670  -23.6413   21.4869 H   0  0  0  0  0  0
  -25.6703  -25.3841   21.4241 H   0  0  0  0  0  0
  -26.2393  -21.7961   24.8924 H   0  0  0  0  0  0
  -27.8148  -21.0654   24.6443 H   0  0  0  0  0  0
  -26.3970  -20.4842   23.7345 H   0  0  0  0  0  0
  -31.4204  -16.9448   21.8238 H   0  0  0  0  0  0
  -31.0928  -17.0399   20.1155 H   0  0  0  0  0  0
  -29.2843  -18.0236   22.3509 H   0  0  0  0  0  0
  -28.7144  -17.8620   20.6866 H   0  0  0  0  0  0
  -29.5054  -25.3067   21.0800 H   0  0  0  0  0  0
  -28.3224  -26.0455   22.1033 H   0  0  0  0  0  0
  -27.2818  -24.3482   19.8591 H   0  0  0  0  0  0
  -29.1381  -15.3539   21.4610 H   0  0  0  0  0  0
  1 25  1  0  0  0
  1 30  2  0  0  0
  1 84  1  0  0  0
  2  3  1  0  0  0
  2 25  1  0  0  0
  2 87  1  0  0  0
  2 88  1  0  0  0
  3  4  1  0  0  0
  3 89  1  0  0  0
  3 90  1  0  0  0
  4  5  1  0  0  0
  4 91  1  0  0  0
  4 92  1  0  0  0
  5  6  1  0  0  0
  5 26  1  0  0  0
  5 93  1  0  0  0
  6 25  1  0  0  0
  6 94  1  0  0  0
  6 95  1  0  0  0
  7  8  2  0  0  0
  7 26  1  0  0  0
  7 29  1  0  0  0
  8  9  1  0  0  0
  8 22  1  0  0  0
  9 10  1  0  0  0
  9 27  2  0  0  0
 10 11  2  0  0  0
 10 15  1  0  0  0
 11 12  1  0  0  0
 11 96  1  0  0  0
 12 13  2  0  0  0
 12 97  1  0  0  0
 13 14  1  0  0  0
 13 31  1  0  0  0
 14 15  2  0  0  0
 14 98  1  0  0  0
 15 99  1  0  0  0
 16 17  2  0  0  0
 16 21  1  0  0  0
 16 31  1  0  0  0
 17 18  1  0  0  0
 17100  1  0  0  0
 18 19  2  0  0  0
 18101  1  0  0  0
 19 20  1  0  0  0
 19 24  1  0  0  0
 20 21  2  0  0  0
 20102  1  0  0  0
 21 23  1  0  0  0
 22 28  1  0  0  0
 22 32  2  0  0  0
 26 27  1  0  0  0
 28103  1  0  0  0
 28104  1  0  0  0
 29105  1  0  0  0
 29106  1  0  0  0
 33 34  1  0  0  0
 33 66  1  0  0  0
 33 70  2  0  0  0
 34 36  1  0  0  0
 34 59  1  0  0  0
 34107  1  0  0  0
 35 44  2  0  0  0
 35 45  1  0  0  0
 35 68  1  0  0  0
 36 56  1  0  0  0
 36108  1  0  0  0
 37 39  1  0  0  0
 37 47  1  0  0  0
 37 66  1  0  0  0
 37109  1  0  0  0
 38 43  2  0  0  0
 38 46  1  0  0  0
 38 47  1  0  0  0
 39 64  1  0  0  0
 39 67  2  0  0  0
 40 52  1  0  0  0
 40 53  2  0  0  0
 40 58  1  0  0  0
 41110  1  0  0  0
 41111  1  0  0  0
 41112  1  0  0  0
 41 48  1  0  0  0
 42 43  1  0  0  0
 42 66  1  0  0  0
 42113  1  0  0  0
 42114  1  0  0  0
 43 44  1  0  0  0
 44115  1  0  0  0
 45 46  2  0  0  0
 45116  1  0  0  0
 46117  1  0  0  0
 47118  1  0  0  0
 47119  1  0  0  0
 48 56  1  0  0  0
 48 65  1  0  0  0
 48120  1  0  0  0
 49 50  1  0  0  0
 49 53  1  0  0  0
 49 64  1  0  0  0
 49121  1  0  0  0
 50 51  1  0  0  0
 50122  1  0  0  0
 50123  1  0  0  0
 51 52  1  0  0  0
 51124  1  0  0  0
 51125  1  0  0  0
 52126  1  0  0  0
 52127  1  0  0  0
 53 54  1  0  0  0
 54 55  2  0  0  0
 54128  1  0  0  0
 55 57  1  0  0  0
 55129  1  0  0  0
 56 69  2  0  0  0
 57 58  2  0  0  0
 57130  1  0  0  0
 58131  1  0  0  0
 59 60  1  0  0  0
 59 61  1  0  0  0
 59 62  1  0  0  0
 60132  1  0  0  0
 60133  1  0  0  0
 60134  1  0  0  0
 61135  1  0  0  0
 61136  1  0  0  0
 61137  1  0  0  0
 62138  1  0  0  0
 62139  1  0  0  0
 62140  1  0  0  0
 63 65  1  0  0  0
 63141  1  0  0  0
 63142  1  0  0  0
 63143  1  0  0  0
 64144  1  0  0  0
 65145  1  0  0  0
 68 82  1  0  0  0
 71 73  2  0  0  0
 71 74  1  0  0  0
 71146  1  0  0  0
 72 75  2  0  0  0
 72 76  1  0  0  0
 72147  1  0  0  0
 73 75  1  0  0  0
 73 77  1  0  0  0
 74 76  2  0  0  0
 74 83  1  0  0  0
 75 86  1  0  0  0
 76 85  1  0  0  0
 77148  1  0  0  0
 77149  1  0  0  0
 77150  1  0  0  0
 78151  1  0  0  0
 78152  1  0  0  0
 78153  1  0  0  0
 78 83  1  0  0  0
 79 85  1  0  0  0
 79154  1  0  0  0
 79155  1  0  0  0
 79156  1  0  0  0
 80 81  1  0  0  0
 80 84  1  0  0  0
 80157  1  0  0  0
 80158  1  0  0  0
 81 86  1  0  0  0
 81159  1  0  0  0
 81160  1  0  0  0
 82 83  1  0  0  0
 82161  1  0  0  0
 82162  1  0  0  0
 83163  1  0  0  0
 84164  1  0  0  0
M  ISO  4   1 100  68 101  82 101  84 100
M  END
> <chiral flag>
0

> <version>
0

> <s_m_source_file>
/data/baiqing/PycharmProjects/Reinvent-master-3.2/result/LINK_invent/BTK/process_docking_weight1_custom_sum_contain_oxygen_bond_distance_aromatic_linkinvent_7_9_3/rearranged_h_0156.sdf

> <i_m_source_file_index>
90

> <r_mmod_Potential_Energy-OPLS-2005>
-54.2839050292969

> <r_mmod_Stretch_Energy-OPLS-2005>
43.3049850463867

> <r_mmod_Bend_Energy-OPLS-2005>
120.431259155273

> <r_mmod_Torsional_Energy-OPLS-2005>
240.527252197266

> <r_mmod_Improper_Torsional_Energy-OPLS-2005>
3.75793838500977

> <r_mmod_Van_der_Waal_Energy-OPLS-2005>
166.454803466797

> <r_mmod_Electrostatic_Energy-OPLS-2005>
-431.849487304688

> <r_mmod_Solvation_Energy-OPLS-2005>
-211.015441894531

> <b_mmod_Minimization_Converged-OPLS-2005>
0

> <r_mmod_RMS_Derivative-OPLS-2005>
1.65387558937073

$$$$
90
                    3D
 Structure written by MMmdl.
167176  0  0  1  0            999 V2000
  -30.7036  -14.5479   20.4783 C   0  0  0  0  0  0
  -30.4151  -12.3323   19.4547 C   0  0  0  0  0  0
  -29.4905  -12.4457   18.2266 C   0  0  0  0  0  0
  -28.0218  -12.2864   18.6621 C   0  0  0  0  0  0
  -27.6384  -13.2158   19.8443 C   0  0  2  0  0  0
  -28.6822  -13.1314   20.9778 C   0  0  0  0  0  0
  -25.2491  -13.8180   20.5674 C   0  0  0  0  0  0
  -24.1775  -13.0456   20.9204 C   0  0  0  0  0  0
  -24.6354  -11.6902   20.8799 C   0  0  0  0  0  0
  -23.9076  -10.4288   21.0472 C   0  0  0  0  0  0
  -24.3611   -9.4171   21.9231 C   0  0  0  0  0  0
  -23.6264   -8.2227   22.0804 C   0  0  0  0  0  0
  -22.4269   -8.0272   21.3563 C   0  0  0  0  0  0
  -21.9900   -9.0269   20.4703 C   0  0  0  0  0  0
  -22.7261  -10.2122   20.3100 C   0  0  0  0  0  0
  -21.6841   -6.0725   22.5276 C   0  0  0  0  0  0
  -21.4042   -6.5647   23.8218 C   0  0  0  0  0  0
  -21.3666   -5.6793   24.9177 C   0  0  0  0  0  0
  -21.6062   -4.3070   24.7218 C   0  0  0  0  0  0
  -21.8797   -3.8133   23.4349 C   0  0  0  0  0  0
  -21.9171   -4.6956   22.3389 C   0  0  0  0  0  0
  -22.7802  -13.5234   21.1808 C   0  0  0  0  0  0
  -22.1628   -4.2132   21.0980 F   0  0  0  0  0  0
  -21.5606   -3.4547   25.7733 F   0  0  0  0  0  0
  -29.9983  -13.3907   20.3890 N   0  0  0  0  0  0
  -26.2892  -12.9357   20.3283 N   0  0  0  0  0  0
  -25.9259  -11.6526   20.5827 N   0  0  0  0  0  0
  -22.0446  -12.8298   22.0431 N   0  0  0  0  0  0
  -25.4174  -15.1890   20.3973 N   0  0  0  0  0  0
  -31.9286  -14.5519   20.3075 O   0  0  0  0  0  0
  -21.6633   -6.8867   21.4242 O   0  0  0  0  0  0
  -22.3492  -14.5518   20.6633 O   0  0  0  0  0  0
  -24.6154  -31.8613   23.2092 C   0  0  0  0  0  0
  -25.9079  -32.4757   23.8335 C   0  0  1  0  0  0
  -27.2300  -27.4075   20.0768 C   0  0  0  0  0  0
  -25.5949  -33.8542   24.2302 N   0  0  0  0  0  0
  -23.4012  -30.4915   21.5442 C   0  0  2  0  0  0
  -24.8498  -28.9534   20.1137 C   0  0  0  0  0  0
  -22.7398  -29.4678   22.4916 C   0  0  0  0  0  0
  -18.0283  -28.1329   22.8491 C   0  0  0  0  0  0
  -24.1480  -36.7248   23.2637 C   0  0  0  0  0  0
  -25.9338  -30.8225   21.3653 C   0  0  0  0  0  0
  -26.0148  -29.4556   20.7081 C   0  0  0  0  0  0
  -27.2068  -28.6914   20.6833 C   0  0  0  0  0  0
  -26.0425  -26.9331   19.4749 C   0  0  0  0  0  0
  -24.8625  -27.6950   19.4927 C   0  0  0  0  0  0
  -23.6186  -29.8260   20.1582 C   0  0  0  0  0  0
  -25.4087  -36.3038   24.0349 C   0  0  1  0  0  0
  -20.5879  -28.3654   23.1287 C   0  0  2  0  0  0
  -20.6768  -26.9387   22.5417 C   0  0  0  0  0  0
  -19.5776  -26.6373   21.5178 C   0  0  0  0  0  0
  -18.1947  -26.7892   22.1584 C   0  0  0  0  0  0
  -19.1529  -28.8811   23.2882 C   0  0  0  0  0  0
  -18.9464  -30.1415   23.8889 C   0  0  0  0  0  0
  -17.6469  -30.6558   24.0550 C   0  0  0  0  0  0
  -25.9035  -34.9434   23.5118 C   0  0  0  0  0  0
  -16.5354  -29.9040   23.6340 C   0  0  0  0  0  0
  -16.7280  -28.6444   23.0384 C   0  0  0  0  0  0
  -26.4558  -31.6504   25.0639 C   0  0  0  0  0  0
  -25.3859  -31.3564   26.1404 C   0  0  0  0  0  0
  -27.0366  -30.2943   24.5977 C   0  0  0  0  0  0
  -27.6165  -32.4180   25.7389 C   0  0  0  0  0  0
  -27.5553  -37.1762   24.8489 C   0  0  0  0  0  0
  -21.4130  -29.3016   22.3668 N   0  0  0  0  0  0
  -26.4244  -37.3747   23.9461 N   0  0  0  0  0  0
  -24.6677  -31.0722   22.0978 N   0  0  0  0  0  0
  -23.4177  -28.8233   23.2966 O   0  0  0  0  0  0
  -28.4010  -26.6645   20.0893 O   0  0  0  0  0  0
  -26.5575  -34.8903   22.4664 O   0  0  0  0  0  0
  -23.5374  -32.1389   23.7517 O   0  0  0  0  0  0
  -31.2781  -17.7352   19.7484 C   0  0  0  0  0  0
  -31.0261  -17.5844   21.2448 C   0  0  0  0  0  0
  -29.1424  -21.1217   22.2976 C   0  0  0  0  0  0
  -27.3821  -20.6480   20.5397 C   0  0  0  0  0  0
  -30.5690  -16.5222   19.1182 C   0  0  0  0  0  0
  -29.2358  -22.5711   21.7394 C   0  0  0  0  0  0
  -27.5542  -22.1101   20.0305 C   0  0  0  0  0  0
  -28.6562  -20.0934   21.2394 C   0  0  2  0  0  0
  -29.7550  -16.7347   21.2803 C   0  0  1  0  0  0
  -28.4999  -17.6379   20.9869 C   0  0  0  0  0  0
  -27.6853  -24.4667   21.0445 C   0  0  0  0  0  0
  -28.3612  -25.2292   19.8672 C   0  0  0  0  0  0
  -30.0115  -15.7087   20.2286 N   0  0  0  0  0  0
  -27.9261  -22.9874   21.1699 N   0  3  2  0  0  0
  -28.4181  -18.7995   21.8485 O   0  0  0  0  0  0
  -31.4590  -12.4293   19.1504 H   0  0  0  0  0  0
  -30.3314  -11.3525   19.9284 H   0  0  0  0  0  0
  -29.7433  -11.6789   17.4941 H   0  0  0  0  0  0
  -29.6290  -13.4059   17.7294 H   0  0  0  0  0  0
  -27.9045  -11.2491   18.9799 H   0  0  0  0  0  0
  -27.3462  -12.4208   17.8180 H   0  0  0  0  0  0
  -27.6423  -14.2350   19.4550 H   0  0  0  0  0  0
  -28.6661  -12.1513   21.4555 H   0  0  0  0  0  0
  -28.4609  -13.8620   21.7578 H   0  0  0  0  0  0
  -25.2746   -9.5621   22.4824 H   0  0  0  0  0  0
  -23.9953   -7.4614   22.7550 H   0  0  0  0  0  0
  -21.0799   -8.8808   19.9026 H   0  0  0  0  0  0
  -22.3742  -10.9660   19.6206 H   0  0  0  0  0  0
  -21.2103   -7.6152   23.9713 H   0  0  0  0  0  0
  -21.1512   -6.0542   25.9087 H   0  0  0  0  0  0
  -22.0574   -2.7589   23.2852 H   0  0  0  0  0  0
  -22.4025  -11.9961   22.4835 H   0  0  0  0  0  0
  -21.1108  -13.1449   22.2675 H   0  0  0  0  0  0
  -24.6482  -15.8458   20.4965 H   0  0  0  0  0  0
  -26.2562  -15.6150   20.0236 H   0  0  0  0  0  0
  -26.7114  -32.5506   23.1051 H   0  0  0  0  0  0
  -25.0149  -33.9651   25.0486 H   0  0  0  0  0  0
  -22.6883  -31.3067   21.3988 H   0  0  0  0  0  0
  -23.3731  -35.9589   23.3290 H   0  0  0  0  0  0
  -24.3582  -36.8864   22.2056 H   0  0  0  0  0  0
  -23.7242  -37.6451   23.6645 H   0  0  0  0  0  0
  -26.0492  -31.5936   20.6018 H   0  0  0  0  0  0
  -26.8178  -30.8716   21.9893 H   0  0  0  0  0  0
  -28.1091  -29.0828   21.1339 H   0  0  0  0  0  0
  -25.9985  -25.9803   18.9693 H   0  0  0  0  0  0
  -23.9717  -27.3056   19.0208 H   0  0  0  0  0  0
  -23.7497  -30.5990   19.3982 H   0  0  0  0  0  0
  -22.7379  -29.2572   19.8497 H   0  0  0  0  0  0
  -25.1259  -36.1842   25.0830 H   0  0  0  0  0  0
  -20.9969  -28.3235   24.1402 H   0  0  0  0  0  0
  -20.5599  -26.2286   23.3608 H   0  0  0  0  0  0
  -21.6658  -26.7395   22.1269 H   0  0  0  0  0  0
  -19.6958  -25.6286   21.1205 H   0  0  0  0  0  0
  -19.6713  -27.3186   20.6700 H   0  0  0  0  0  0
  -17.4225  -26.6675   21.3973 H   0  0  0  0  0  0
  -18.0338  -25.9970   22.8912 H   0  0  0  0  0  0
  -19.7948  -30.7227   24.2251 H   0  0  0  0  0  0
  -17.5033  -31.6250   24.5119 H   0  0  0  0  0  0
  -15.5362  -30.2940   23.7639 H   0  0  0  0  0  0
  -15.8678  -28.0733   22.7131 H   0  0  0  0  0  0
  -24.6095  -30.6826   25.7746 H   0  0  0  0  0  0
  -24.8991  -32.2698   26.4832 H   0  0  0  0  0  0
  -25.8308  -30.8772   27.0138 H   0  0  0  0  0  0
  -26.2835  -29.6596   24.1292 H   0  0  0  0  0  0
  -27.4422  -29.7282   25.4363 H   0  0  0  0  0  0
  -27.8564  -30.4206   23.8898 H   0  0  0  0  0  0
  -27.2840  -33.3504   26.1943 H   0  0  0  0  0  0
  -28.4020  -32.6649   25.0232 H   0  0  0  0  0  0
  -28.0760  -31.8265   26.5314 H   0  0  0  0  0  0
  -28.2590  -38.0033   24.7508 H   0  0  0  0  0  0
  -28.1029  -36.2582   24.6332 H   0  0  0  0  0  0
  -27.2302  -37.1442   25.8898 H   0  0  0  0  0  0
  -20.9276  -29.8704   21.6872 H   0  0  0  0  0  0
  -26.0118  -38.2798   24.1523 H   0  0  0  0  0  0
  -32.3464  -17.7450   19.5392 H   0  0  0  0  0  0
  -30.8575  -18.6634   19.3574 H   0  0  0  0  0  0
  -30.9623  -18.5305   21.7847 H   0  0  0  0  0  0
  -31.8420  -17.0228   21.7008 H   0  0  0  0  0  0
  -28.4798  -21.1210   23.1638 H   0  0  0  0  0  0
  -30.1249  -20.8272   22.6682 H   0  0  0  0  0  0
  -27.1198  -20.0072   19.6996 H   0  0  0  0  0  0
  -26.5312  -20.6201   21.2270 H   0  0  0  0  0  0
  -31.2716  -15.9902   18.4707 H   0  0  0  0  0  0
  -29.7603  -16.8419   18.4604 H   0  0  0  0  0  0
  -29.9969  -22.6180   20.9596 H   0  0  0  0  0  0
  -29.5546  -23.2654   22.5194 H   0  0  0  0  0  0
  -26.6418  -22.4617   19.5430 H   0  0  0  0  0  0
  -28.3406  -22.1466   19.2724 H   0  0  0  0  0  0
  -29.4544  -20.0024   20.5015 H   0  0  0  0  0  0
  -29.6306  -16.2639   22.2581 H   0  0  0  0  0  0
  -27.6024  -17.0285   21.0998 H   0  0  0  0  0  0
  -28.4771  -17.9745   19.9499 H   0  0  0  0  0  0
  -26.6074  -24.6205   20.9918 H   0  0  0  0  0  0
  -27.9988  -24.9245   21.9825 H   0  0  0  0  0  0
  -27.8829  -24.9798   18.9210 H   0  0  0  0  0  0
  -29.3932  -24.8958   19.7544 H   0  0  0  0  0  0
  -27.2625  -22.7348   21.8891 H   0  0  0  0  0  0
  1 25  1  0  0  0
  1 30  2  0  0  0
  1 83  1  0  0  0
  2  3  1  0  0  0
  2 25  1  0  0  0
  2 86  1  0  0  0
  2 87  1  0  0  0
  3  4  1  0  0  0
  3 88  1  0  0  0
  3 89  1  0  0  0
  4  5  1  0  0  0
  4 90  1  0  0  0
  4 91  1  0  0  0
  5  6  1  0  0  0
  5 26  1  0  0  0
  5 92  1  0  0  0
  6 25  1  0  0  0
  6 93  1  0  0  0
  6 94  1  0  0  0
  7  8  2  0  0  0
  7 26  1  0  0  0
  7 29  1  0  0  0
  8  9  1  0  0  0
  8 22  1  0  0  0
  9 10  1  0  0  0
  9 27  2  0  0  0
 10 11  2  0  0  0
 10 15  1  0  0  0
 11 12  1  0  0  0
 11 95  1  0  0  0
 12 13  2  0  0  0
 12 96  1  0  0  0
 13 14  1  0  0  0
 13 31  1  0  0  0
 14 15  2  0  0  0
 14 97  1  0  0  0
 15 98  1  0  0  0
 16 17  2  0  0  0
 16 21  1  0  0  0
 16 31  1  0  0  0
 17 18  1  0  0  0
 17 99  1  0  0  0
 18 19  2  0  0  0
 18100  1  0  0  0
 19 20  1  0  0  0
 19 24  1  0  0  0
 20 21  2  0  0  0
 20101  1  0  0  0
 21 23  1  0  0  0
 22 28  1  0  0  0
 22 32  2  0  0  0
 26 27  1  0  0  0
 28102  1  0  0  0
 28103  1  0  0  0
 29104  1  0  0  0
 29105  1  0  0  0
 33 34  1  0  0  0
 33 66  1  0  0  0
 33 70  2  0  0  0
 34 36  1  0  0  0
 34 59  1  0  0  0
 34106  1  0  0  0
 35 44  2  0  0  0
 35 45  1  0  0  0
 35 68  1  0  0  0
 36 56  1  0  0  0
 36107  1  0  0  0
 37 39  1  0  0  0
 37 47  1  0  0  0
 37 66  1  0  0  0
 37108  1  0  0  0
 38 43  2  0  0  0
 38 46  1  0  0  0
 38 47  1  0  0  0
 39 64  1  0  0  0
 39 67  2  0  0  0
 40 52  1  0  0  0
 40 53  2  0  0  0
 40 58  1  0  0  0
 41109  1  0  0  0
 41110  1  0  0  0
 41111  1  0  0  0
 41 48  1  0  0  0
 42 43  1  0  0  0
 42 66  1  0  0  0
 42112  1  0  0  0
 42113  1  0  0  0
 43 44  1  0  0  0
 44114  1  0  0  0
 45 46  2  0  0  0
 45115  1  0  0  0
 46116  1  0  0  0
 47117  1  0  0  0
 47118  1  0  0  0
 48 56  1  0  0  0
 48 65  1  0  0  0
 48119  1  0  0  0
 49 50  1  0  0  0
 49 53  1  0  0  0
 49 64  1  0  0  0
 49120  1  0  0  0
 50 51  1  0  0  0
 50121  1  0  0  0
 50122  1  0  0  0
 51 52  1  0  0  0
 51123  1  0  0  0
 51124  1  0  0  0
 52125  1  0  0  0
 52126  1  0  0  0
 53 54  1  0  0  0
 54 55  2  0  0  0
 54127  1  0  0  0
 55 57  1  0  0  0
 55128  1  0  0  0
 56 69  2  0  0  0
 57 58  2  0  0  0
 57129  1  0  0  0
 58130  1  0  0  0
 59 60  1  0  0  0
 59 61  1  0  0  0
 59 62  1  0  0  0
 60131  1  0  0  0
 60132  1  0  0  0
 60133  1  0  0  0
 61134  1  0  0  0
 61135  1  0  0  0
 61136  1  0  0  0
 62137  1  0  0  0
 62138  1  0  0  0
 62139  1  0  0  0
 63 65  1  0  0  0
 63140  1  0  0  0
 63141  1  0  0  0
 63142  1  0  0  0
 64143  1  0  0  0
 65144  1  0  0  0
 68 82  1  0  0  0
 71 72  1  0  0  0
 71 75  1  0  0  0
 71145  1  0  0  0
 71146  1  0  0  0
 72 79  1  0  0  0
 72147  1  0  0  0
 72148  1  0  0  0
 73 76  1  0  0  0
 73 78  1  0  0  0
 73149  1  0  0  0
 73150  1  0  0  0
 74 77  1  0  0  0
 74 78  1  0  0  0
 74151  1  0  0  0
 74152  1  0  0  0
 75 83  1  0  0  0
 75153  1  0  0  0
 75154  1  0  0  0
 76 84  1  0  0  0
 76155  1  0  0  0
 76156  1  0  0  0
 77 84  1  0  0  0
 77157  1  0  0  0
 77158  1  0  0  0
 78 85  1  0  0  0
 78159  1  0  0  0
 79 80  1  0  0  0
 79 83  1  0  0  0
 79160  1  0  0  0
 80 85  1  0  0  0
 80161  1  0  0  0
 80162  1  0  0  0
 81 82  1  0  0  0
 81163  1  0  0  0
 81164  1  0  0  0
 81 84  1  0  0  0
 82165  1  0  0  0
 82166  1  0  0  0
 84167  1  0  0  0
M  CHG  1  84   1
M  ISO  4   1 100  68 101  82 101  83 100
M  END
> <chiral flag>
0

> <version>
0

> <s_m_source_file>
/data/baiqing/PycharmProjects/Reinvent-master-3.2/result/LINK_invent/BTK/process_docking_weight1_custom_sum_contain_oxygen_bond_distance_aromatic_linkinvent_7_9_3/rearranged_h_0156.sdf

> <i_m_source_file_index>
91

> <r_mmod_Potential_Energy-OPLS-2005>
216.280914306641

> <r_mmod_Stretch_Energy-OPLS-2005>
53.0751037597656

> <r_mmod_Bend_Energy-OPLS-2005>
162.417068481445

> <r_mmod_Torsional_Energy-OPLS-2005>
389.238708496094

> <r_mmod_Improper_Torsional_Energy-OPLS-2005>
22.642204284668

> <r_mmod_Van_der_Waal_Energy-OPLS-2005>
137.114303588867

> <r_mmod_Electrostatic_Energy-OPLS-2005>
-168.096374511719

> <r_mmod_Solvation_Energy-OPLS-2005>
-418.499267578125

> <b_mmod_Minimization_Converged-OPLS-2005>
0

> <r_mmod_RMS_Derivative-OPLS-2005>
5.81051778793335

$$$$
91
                    3D
 Structure written by MMmdl.
167176  0  0  1  0            999 V2000
  -30.6845  -14.6867   20.4779 C   0  0  0  0  0  0
  -30.4138  -12.4308   19.4544 C   0  0  0  0  0  0
  -29.4952  -12.5030   18.2183 C   0  0  0  0  0  0
  -28.0209  -12.3430   18.6358 C   0  0  0  0  0  0
  -27.6388  -13.2358   19.8481 C   0  0  2  0  0  0
  -28.6889  -13.1560   20.9745 C   0  0  0  0  0  0
  -25.2503  -13.8207   20.5709 C   0  0  0  0  0  0
  -24.1797  -13.0445   20.9205 C   0  0  0  0  0  0
  -24.6392  -11.6924   20.8744 C   0  0  0  0  0  0
  -23.9071  -10.4295   21.0400 C   0  0  0  0  0  0
  -24.3626   -9.4212   21.9179 C   0  0  0  0  0  0
  -23.6302   -8.2244   22.0747 C   0  0  0  0  0  0
  -22.4283   -8.0278   21.3541 C   0  0  0  0  0  0
  -21.9918   -9.0253   20.4645 C   0  0  0  0  0  0
  -22.7243  -10.2134   20.3051 C   0  0  0  0  0  0
  -21.6858   -6.0732   22.5279 C   0  0  0  0  0  0
  -21.4017   -6.5634   23.8212 C   0  0  0  0  0  0
  -21.3660   -5.6786   24.9173 C   0  0  0  0  0  0
  -21.6047   -4.3050   24.7220 C   0  0  0  0  0  0
  -21.8821   -3.8140   23.4342 C   0  0  0  0  0  0
  -21.9194   -4.6959   22.3401 C   0  0  0  0  0  0
  -22.7822  -13.5224   21.1866 C   0  0  0  0  0  0
  -22.1666   -4.2145   21.0979 F   0  0  0  0  0  0
  -21.5629   -3.4532   25.7733 F   0  0  0  0  0  0
  -29.9815  -13.5070   20.3768 N   0  0  0  0  0  0
  -26.2929  -12.9422   20.3300 N   0  0  0  0  0  0
  -25.9324  -11.6560   20.5754 N   0  0  0  0  0  0
  -22.0479  -12.8207   22.0425 N   0  0  0  0  0  0
  -25.4204  -15.1925   20.4137 N   0  0  0  0  0  0
  -31.8911  -14.6708   20.2132 O   0  0  0  0  0  0
  -21.6645   -6.8877   21.4241 O   0  0  0  0  0  0
  -22.3503  -14.5529   20.6717 O   0  0  0  0  0  0
  -24.6300  -31.8586   23.2032 C   0  0  0  0  0  0
  -25.9139  -32.4771   23.8359 C   0  0  1  0  0  0
  -27.2078  -27.2837   20.1122 C   0  0  0  0  0  0
  -25.5944  -33.8571   24.2280 N   0  0  0  0  0  0
  -23.4237  -30.4868   21.5475 C   0  0  2  0  0  0
  -24.8658  -28.9451   20.1105 C   0  0  0  0  0  0
  -22.7490  -29.4630   22.4926 C   0  0  0  0  0  0
  -18.0290  -28.1385   22.8487 C   0  0  0  0  0  0
  -24.1489  -36.7289   23.2639 C   0  0  0  0  0  0
  -25.9711  -30.7789   21.3806 C   0  0  0  0  0  0
  -26.0412  -29.4064   20.7167 C   0  0  0  0  0  0
  -27.2167  -28.5896   20.7060 C   0  0  0  0  0  0
  -26.0021  -26.8921   19.4811 C   0  0  0  0  0  0
  -24.8505  -27.6944   19.4835 C   0  0  0  0  0  0
  -23.6383  -29.8304   20.1609 C   0  0  0  0  0  0
  -25.4113  -36.3077   24.0329 C   0  0  1  0  0  0
  -20.5894  -28.3697   23.1273 C   0  0  2  0  0  0
  -20.6780  -26.9419   22.5406 C   0  0  0  0  0  0
  -19.5755  -26.6385   21.5214 C   0  0  0  0  0  0
  -18.1935  -26.7928   22.1625 C   0  0  0  0  0  0
  -19.1543  -28.8856   23.2875 C   0  0  0  0  0  0
  -18.9463  -30.1456   23.8893 C   0  0  0  0  0  0
  -17.6463  -30.6587   24.0560 C   0  0  0  0  0  0
  -25.9055  -34.9448   23.5102 C   0  0  0  0  0  0
  -16.5355  -29.9083   23.6332 C   0  0  0  0  0  0
  -16.7277  -28.6500   23.0356 C   0  0  0  0  0  0
  -26.4504  -31.6586   25.0740 C   0  0  0  0  0  0
  -25.3727  -31.3742   26.1463 C   0  0  0  0  0  0
  -27.0343  -30.2997   24.6228 C   0  0  0  0  0  0
  -27.6053  -32.4326   25.7514 C   0  0  0  0  0  0
  -27.5582  -37.1798   24.8461 C   0  0  0  0  0  0
  -21.4202  -29.3050   22.3665 N   0  0  0  0  0  0
  -26.4286  -37.3777   23.9413 N   0  0  0  0  0  0
  -24.6942  -31.0579   22.1001 N   0  0  0  0  0  0
  -23.4204  -28.8157   23.3003 O   0  0  0  0  0  0
  -28.2997  -26.3876   20.1613 O   0  0  0  0  0  0
  -26.5622  -34.8915   22.4669 O   0  0  0  0  0  0
  -23.5456  -32.1402   23.7344 O   0  0  0  0  0  0
  -28.7839  -22.4521   20.4914 C   0  0  0  0  0  0
  -29.1035  -23.7961   20.0594 C   0  0  0  0  0  0
  -30.4102  -24.0123   19.5502 C   0  0  0  0  0  0
  -31.3789  -22.9662   19.5785 C   0  0  0  0  0  0
  -31.0471  -21.6689   20.0691 C   0  0  0  0  0  0
  -29.7273  -21.3620   20.4857 C   0  0  0  0  0  0
  -29.8208  -18.2401   19.2221 C   0  0  0  0  0  0
  -28.4191  -17.7839   21.2213 C   0  0  0  0  0  0
  -30.7060  -17.0232   19.6687 C   0  0  0  0  0  0
  -29.3872  -16.5876   21.5778 C   0  0  0  0  0  0
  -28.9505  -18.9393   20.3046 C   0  0  0  0  0  0
  -30.7678  -25.3774   18.9625 C   0  0  0  0  0  0
  -32.7925  -23.2571   19.0704 C   0  0  0  0  0  0
  -32.1319  -20.6018   20.1927 C   0  0  0  0  0  0
  -27.9991  -24.9284   19.9971 C   0  0  0  0  0  0
  -30.0235  -15.9185   20.4134 N   0  0  0  0  0  0
  -29.4832  -20.0891   21.0549 O   0  0  0  0  0  0
  -31.4563  -12.5250   19.1459 H   0  0  0  0  0  0
  -30.3357  -11.4554   19.9371 H   0  0  0  0  0  0
  -29.7672  -11.7305   17.4974 H   0  0  0  0  0  0
  -29.6318  -13.4589   17.7098 H   0  0  0  0  0  0
  -27.8649  -11.2935   18.8863 H   0  0  0  0  0  0
  -27.3632  -12.5523   17.7912 H   0  0  0  0  0  0
  -27.6366  -14.2628   19.4810 H   0  0  0  0  0  0
  -28.7250  -12.1521   21.4006 H   0  0  0  0  0  0
  -28.4281  -13.8165   21.7973 H   0  0  0  0  0  0
  -25.2773   -9.5691   22.4750 H   0  0  0  0  0  0
  -24.0013   -7.4633   22.7466 H   0  0  0  0  0  0
  -21.0845   -8.8773   19.8952 H   0  0  0  0  0  0
  -22.3701  -10.9671   19.6156 H   0  0  0  0  0  0
  -21.2014   -7.6145   23.9716 H   0  0  0  0  0  0
  -21.1483   -6.0514   25.9078 H   0  0  0  0  0  0
  -22.0601   -2.7601   23.2840 H   0  0  0  0  0  0
  -22.4109  -11.9869   22.4801 H   0  0  0  0  0  0
  -21.1097  -13.1228   22.2641 H   0  0  0  0  0  0
  -24.6575  -15.8507   20.5288 H   0  0  0  0  0  0
  -26.2800  -15.6284   20.1069 H   0  0  0  0  0  0
  -26.7204  -32.5422   23.1101 H   0  0  0  0  0  0
  -25.0087  -33.9712   25.0422 H   0  0  0  0  0  0
  -22.7193  -31.3096   21.4082 H   0  0  0  0  0  0
  -23.3756  -35.9617   23.3287 H   0  0  0  0  0  0
  -24.3588  -36.8925   22.2057 H   0  0  0  0  0  0
  -23.7233  -37.6484   23.6668 H   0  0  0  0  0  0
  -26.1118  -31.5441   20.6158 H   0  0  0  0  0  0
  -26.8482  -30.8201   22.0152 H   0  0  0  0  0  0
  -28.1161  -28.9386   21.1935 H   0  0  0  0  0  0
  -25.8940  -25.9435   18.9818 H   0  0  0  0  0  0
  -23.9501  -27.3349   19.0037 H   0  0  0  0  0  0
  -23.7631  -30.6113   19.4097 H   0  0  0  0  0  0
  -22.7555  -29.2665   19.8539 H   0  0  0  0  0  0
  -25.1290  -36.1926   25.0822 H   0  0  0  0  0  0
  -20.9988  -28.3272   24.1393 H   0  0  0  0  0  0
  -20.5688  -26.2308   23.3609 H   0  0  0  0  0  0
  -21.6646  -26.7448   22.1196 H   0  0  0  0  0  0
  -19.6918  -25.6295   21.1247 H   0  0  0  0  0  0
  -19.6692  -27.3191   20.6740 H   0  0  0  0  0  0
  -17.4206  -26.6676   21.4027 H   0  0  0  0  0  0
  -18.0335  -26.0069   22.9020 H   0  0  0  0  0  0
  -19.7937  -30.7272   24.2264 H   0  0  0  0  0  0
  -17.5017  -31.6268   24.5162 H   0  0  0  0  0  0
  -15.5354  -30.2985   23.7658 H   0  0  0  0  0  0
  -15.8676  -28.0818   22.7076 H   0  0  0  0  0  0
  -24.5899  -30.7094   25.7798 H   0  0  0  0  0  0
  -24.8926  -32.2916   26.4874 H   0  0  0  0  0  0
  -25.8043  -30.8930   27.0248 H   0  0  0  0  0  0
  -26.2931  -29.6752   24.1230 H   0  0  0  0  0  0
  -27.3992  -29.7252   25.4754 H   0  0  0  0  0  0
  -27.8825  -30.4258   23.9494 H   0  0  0  0  0  0
  -27.2651  -33.3624   26.2083 H   0  0  0  0  0  0
  -28.3868  -32.6891   25.0350 H   0  0  0  0  0  0
  -28.0717  -31.8460   26.5441 H   0  0  0  0  0  0
  -28.2582  -38.0112   24.7524 H   0  0  0  0  0  0
  -28.1092  -36.2643   24.6255 H   0  0  0  0  0  0
  -27.2306  -37.1408   25.8864 H   0  0  0  0  0  0
  -20.9382  -29.8782   21.6881 H   0  0  0  0  0  0
  -26.0165  -38.2848   24.1423 H   0  0  0  0  0  0
  -27.7851  -22.2554   20.8547 H   0  0  0  0  0  0
  -29.1363  -17.8570   18.4641 H   0  0  0  0  0  0
  -30.4258  -18.9774   18.6958 H   0  0  0  0  0  0
  -28.0172  -18.2145   22.1389 H   0  0  0  0  0  0
  -27.5564  -17.3470   20.7172 H   0  0  0  0  0  0
  -31.5382  -17.3865   20.2740 H   0  0  0  0  0  0
  -31.1614  -16.6167   18.7632 H   0  0  0  0  0  0
  -28.8374  -15.8664   22.1778 H   0  0  0  0  0  0
  -30.1774  -16.9574   22.2332 H   0  0  0  0  0  0
  -28.0854  -19.3607   19.7892 H   0  0  0  0  0  0
  -29.9426  -25.7857   18.3805 H   0  0  0  0  0  0
  -31.6094  -25.3532   18.2734 H   0  0  0  0  0  0
  -31.0070  -26.0809   19.7603 H   0  0  0  0  0  0
  -33.1789  -24.1734   19.5175 H   0  0  0  0  0  0
  -32.7795  -23.3821   17.9873 H   0  0  0  0  0  0
  -33.5281  -22.4866   19.2856 H   0  0  0  0  0  0
  -32.9663  -20.9730   20.7877 H   0  0  0  0  0  0
  -32.5033  -20.3149   19.2087 H   0  0  0  0  0  0
  -31.7944  -19.6979   20.6944 H   0  0  0  0  0  0
  -27.2143  -24.6611   20.7067 H   0  0  0  0  0  0
  -27.5870  -24.7811   18.9999 H   0  0  0  0  0  0
  1 25  1  0  0  0
  1 30  2  0  0  0
  1 86  1  0  0  0
  2  3  1  0  0  0
  2 25  1  0  0  0
  2 88  1  0  0  0
  2 89  1  0  0  0
  3  4  1  0  0  0
  3 90  1  0  0  0
  3 91  1  0  0  0
  4  5  1  0  0  0
  4 92  1  0  0  0
  4 93  1  0  0  0
  5  6  1  0  0  0
  5 26  1  0  0  0
  5 94  1  0  0  0
  6 25  1  0  0  0
  6 95  1  0  0  0
  6 96  1  0  0  0
  7  8  2  0  0  0
  7 26  1  0  0  0
  7 29  1  0  0  0
  8  9  1  0  0  0
  8 22  1  0  0  0
  9 10  1  0  0  0
  9 27  2  0  0  0
 10 11  2  0  0  0
 10 15  1  0  0  0
 11 12  1  0  0  0
 11 97  1  0  0  0
 12 13  2  0  0  0
 12 98  1  0  0  0
 13 14  1  0  0  0
 13 31  1  0  0  0
 14 15  2  0  0  0
 14 99  1  0  0  0
 15100  1  0  0  0
 16 17  2  0  0  0
 16 21  1  0  0  0
 16 31  1  0  0  0
 17 18  1  0  0  0
 17101  1  0  0  0
 18 19  2  0  0  0
 18102  1  0  0  0
 19 20  1  0  0  0
 19 24  1  0  0  0
 20 21  2  0  0  0
 20103  1  0  0  0
 21 23  1  0  0  0
 22 28  1  0  0  0
 22 32  2  0  0  0
 26 27  1  0  0  0
 28104  1  0  0  0
 28105  1  0  0  0
 29106  1  0  0  0
 29107  1  0  0  0
 33 34  1  0  0  0
 33 66  1  0  0  0
 33 70  2  0  0  0
 34 36  1  0  0  0
 34 59  1  0  0  0
 34108  1  0  0  0
 35 44  2  0  0  0
 35 45  1  0  0  0
 35 68  1  0  0  0
 36 56  1  0  0  0
 36109  1  0  0  0
 37 39  1  0  0  0
 37 47  1  0  0  0
 37 66  1  0  0  0
 37110  1  0  0  0
 38 43  2  0  0  0
 38 46  1  0  0  0
 38 47  1  0  0  0
 39 64  1  0  0  0
 39 67  2  0  0  0
 40 52  1  0  0  0
 40 53  2  0  0  0
 40 58  1  0  0  0
 41111  1  0  0  0
 41112  1  0  0  0
 41113  1  0  0  0
 41 48  1  0  0  0
 42 43  1  0  0  0
 42 66  1  0  0  0
 42114  1  0  0  0
 42115  1  0  0  0
 43 44  1  0  0  0
 44116  1  0  0  0
 45 46  2  0  0  0
 45117  1  0  0  0
 46118  1  0  0  0
 47119  1  0  0  0
 47120  1  0  0  0
 48 56  1  0  0  0
 48 65  1  0  0  0
 48121  1  0  0  0
 49 50  1  0  0  0
 49 53  1  0  0  0
 49 64  1  0  0  0
 49122  1  0  0  0
 50 51  1  0  0  0
 50123  1  0  0  0
 50124  1  0  0  0
 51 52  1  0  0  0
 51125  1  0  0  0
 51126  1  0  0  0
 52127  1  0  0  0
 52128  1  0  0  0
 53 54  1  0  0  0
 54 55  2  0  0  0
 54129  1  0  0  0
 55 57  1  0  0  0
 55130  1  0  0  0
 56 69  2  0  0  0
 57 58  2  0  0  0
 57131  1  0  0  0
 58132  1  0  0  0
 59 60  1  0  0  0
 59 61  1  0  0  0
 59 62  1  0  0  0
 60133  1  0  0  0
 60134  1  0  0  0
 60135  1  0  0  0
 61136  1  0  0  0
 61137  1  0  0  0
 61138  1  0  0  0
 62139  1  0  0  0
 62140  1  0  0  0
 62141  1  0  0  0
 63 65  1  0  0  0
 63142  1  0  0  0
 63143  1  0  0  0
 63144  1  0  0  0
 64145  1  0  0  0
 65146  1  0  0  0
 68 85  1  0  0  0
 71 72  2  0  0  0
 71 76  1  0  0  0
 71147  1  0  0  0
 72 73  1  0  0  0
 72 85  1  0  0  0
 73 74  2  0  0  0
 73 82  1  0  0  0
 74 75  1  0  0  0
 74 83  1  0  0  0
 75 76  2  0  0  0
 75 84  1  0  0  0
 76 87  1  0  0  0
 77 79  1  0  0  0
 77 81  1  0  0  0
 77148  1  0  0  0
 77149  1  0  0  0
 78 80  1  0  0  0
 78 81  1  0  0  0
 78150  1  0  0  0
 78151  1  0  0  0
 79 86  1  0  0  0
 79152  1  0  0  0
 79153  1  0  0  0
 80 86  1  0  0  0
 80154  1  0  0  0
 80155  1  0  0  0
 81 87  1  0  0  0
 81156  1  0  0  0
 82157  1  0  0  0
 82158  1  0  0  0
 82159  1  0  0  0
 83160  1  0  0  0
 83161  1  0  0  0
 83162  1  0  0  0
 84163  1  0  0  0
 84164  1  0  0  0
 84165  1  0  0  0
 85166  1  0  0  0
 85167  1  0  0  0
M  ISO  4   1 100  68 101  85 101  86 100
M  END
> <chiral flag>
0

> <version>
0

> <s_m_source_file>
/data/baiqing/PycharmProjects/Reinvent-master-3.2/result/LINK_invent/BTK/process_docking_weight1_custom_sum_contain_oxygen_bond_distance_aromatic_linkinvent_7_9_3/rearranged_h_0156.sdf

> <i_m_source_file_index>
92

> <r_mmod_Potential_Energy-OPLS-2005>
392.960815429688

> <r_mmod_Stretch_Energy-OPLS-2005>
103.403266906738

> <r_mmod_Bend_Energy-OPLS-2005>
190.771636962891

> <r_mmod_Torsional_Energy-OPLS-2005>
351.579437255859

> <r_mmod_Improper_Torsional_Energy-OPLS-2005>
19.6229972839355

> <r_mmod_Van_der_Waal_Energy-OPLS-2005>
166.185012817383

> <r_mmod_Electrostatic_Energy-OPLS-2005>
-315.124206542969

> <r_mmod_Solvation_Energy-OPLS-2005>
-195.49089050293

> <b_mmod_Minimization_Converged-OPLS-2005>
0

> <r_mmod_RMS_Derivative-OPLS-2005>
0.76549243927002

$$$$
92
                    3D
 Structure written by MMmdl.
164173  0  0  1  0            999 V2000
  -30.6636  -14.5962   20.5012 C   0  0  0  0  0  0
  -30.4186  -12.3674   19.4527 C   0  0  0  0  0  0
  -29.5041  -12.5023   18.2187 C   0  0  0  0  0  0
  -28.0253  -12.3525   18.6249 C   0  0  0  0  0  0
  -27.6467  -13.2244   19.8543 C   0  0  2  0  0  0
  -28.6872  -13.0998   20.9888 C   0  0  0  0  0  0
  -25.2531  -13.8194   20.5705 C   0  0  0  0  0  0
  -24.1810  -13.0449   20.9183 C   0  0  0  0  0  0
  -24.6397  -11.6924   20.8746 C   0  0  0  0  0  0
  -23.9092  -10.4307   21.0431 C   0  0  0  0  0  0
  -24.3652   -9.4206   21.9203 C   0  0  0  0  0  0
  -23.6313   -8.2245   22.0763 C   0  0  0  0  0  0
  -22.4290   -8.0294   21.3558 C   0  0  0  0  0  0
  -21.9954   -9.0253   20.4635 C   0  0  0  0  0  0
  -22.7290  -10.2133   20.3053 C   0  0  0  0  0  0
  -21.6846   -6.0758   22.5299 C   0  0  0  0  0  0
  -21.4001   -6.5663   23.8235 C   0  0  0  0  0  0
  -21.3661   -5.6808   24.9197 C   0  0  0  0  0  0
  -21.6047   -4.3068   24.7236 C   0  0  0  0  0  0
  -21.8830   -3.8165   23.4360 C   0  0  0  0  0  0
  -21.9193   -4.6989   22.3416 C   0  0  0  0  0  0
  -22.7826  -13.5204   21.1838 C   0  0  0  0  0  0
  -22.1656   -4.2179   21.0991 F   0  0  0  0  0  0
  -21.5635   -3.4547   25.7746 F   0  0  0  0  0  0
  -30.0028  -13.4033   20.4145 N   0  0  0  0  0  0
  -26.2957  -12.9389   20.3279 N   0  0  0  0  0  0
  -25.9315  -11.6541   20.5722 N   0  0  0  0  0  0
  -22.0482  -12.8155   22.0359 N   0  0  0  0  0  0
  -25.4275  -15.1917   20.4162 N   0  0  0  0  0  0
  -31.8509  -14.6930   20.1744 O   0  0  0  0  0  0
  -21.6636   -6.8904   21.4270 O   0  0  0  0  0  0
  -22.3498  -14.5524   20.6713 O   0  0  0  0  0  0
  -24.6238  -31.8659   23.2043 C   0  0  0  0  0  0
  -25.9096  -32.4807   23.8362 C   0  0  1  0  0  0
  -27.2002  -27.3521   20.1058 C   0  0  0  0  0  0
  -25.5912  -33.8610   24.2279 N   0  0  0  0  0  0
  -23.4147  -30.4923   21.5493 C   0  0  2  0  0  0
  -24.8558  -28.9610   20.1041 C   0  0  0  0  0  0
  -22.7462  -29.4671   22.4952 C   0  0  0  0  0  0
  -18.0289  -28.1410   22.8498 C   0  0  0  0  0  0
  -24.1504  -36.7312   23.2627 C   0  0  0  0  0  0
  -25.9536  -30.8083   21.3690 C   0  0  0  0  0  0
  -26.0271  -29.4411   20.7066 C   0  0  0  0  0  0
  -27.2109  -28.6477   20.6995 C   0  0  0  0  0  0
  -26.0158  -26.9273   19.4686 C   0  0  0  0  0  0
  -24.8501  -27.7096   19.4757 C   0  0  0  0  0  0
  -23.6210  -29.8351   20.1615 C   0  0  0  0  0  0
  -25.4130  -36.3116   24.0323 C   0  0  1  0  0  0
  -20.5877  -28.3721   23.1306 C   0  0  2  0  0  0
  -20.6790  -26.9449   22.5418 C   0  0  0  0  0  0
  -19.5757  -26.6401   21.5237 C   0  0  0  0  0  0
  -18.1937  -26.7945   22.1648 C   0  0  0  0  0  0
  -19.1533  -28.8882   23.2898 C   0  0  0  0  0  0
  -18.9457  -30.1477   23.8917 C   0  0  0  0  0  0
  -17.6461  -30.6607   24.0576 C   0  0  0  0  0  0
  -25.9068  -34.9476   23.5107 C   0  0  0  0  0  0
  -16.5360  -29.9109   23.6320 C   0  0  0  0  0  0
  -16.7281  -28.6527   23.0352 C   0  0  0  0  0  0
  -26.4432  -31.6590   25.0728 C   0  0  0  0  0  0
  -25.3632  -31.3741   26.1421 C   0  0  0  0  0  0
  -27.0223  -30.2997   24.6155 C   0  0  0  0  0  0
  -27.5968  -32.4285   25.7577 C   0  0  0  0  0  0
  -27.5604  -37.1825   24.8451 C   0  0  0  0  0  0
  -21.4177  -29.3082   22.3696 N   0  0  0  0  0  0
  -26.4307  -37.3812   23.9406 N   0  0  0  0  0  0
  -24.6831  -31.0693   22.0985 N   0  0  0  0  0  0
  -23.4204  -28.8204   23.3011 O   0  0  0  0  0  0
  -28.2538  -26.4423   20.1773 O   0  0  0  0  0  0
  -26.5648  -34.8940   22.4685 O   0  0  0  0  0  0
  -23.5406  -32.1451   23.7387 O   0  0  0  0  0  0
  -29.3358  -23.3012   21.8136 C   0  0  0  0  0  0
  -28.4469  -21.5826   19.7984 C   0  0  0  0  0  0
  -28.5187  -23.8589   20.7965 C   0  0  0  0  0  0
  -29.6890  -21.9249   21.8435 C   0  0  0  0  0  0
  -28.0912  -22.9682   19.7651 C   0  0  0  0  0  0
  -29.2416  -21.0298   20.8386 C   0  0  0  0  0  0
  -28.8839  -17.7933   19.4263 C   0  0  0  0  0  0
  -28.7904  -17.6006   21.9203 C   0  0  0  0  0  0
  -29.9831  -16.6862   19.4541 C   0  0  0  0  0  0
  -29.9300  -16.5369   21.8318 C   0  0  0  0  0  0
  -28.7120  -18.6037   20.7349 C   0  0  0  0  0  0
  -30.4986  -21.3917   23.0165 C   0  0  0  0  0  0
  -27.2126  -23.4537   18.6217 C   0  0  0  0  0  0
  -27.9207  -25.2891   21.0247 C   0  0  0  0  0  0
  -29.8928  -15.7346   20.5904 N   0  0  0  0  0  0
  -29.6574  -19.6913   20.8928 O   0  0  0  0  0  0
  -31.4660  -12.4634   19.1617 H   0  0  0  0  0  0
  -30.3196  -11.3767   19.8982 H   0  0  0  0  0  0
  -29.7638  -11.7574   17.4648 H   0  0  0  0  0  0
  -29.6560  -13.4783   17.7540 H   0  0  0  0  0  0
  -27.8489  -11.2994   18.8481 H   0  0  0  0  0  0
  -27.3822  -12.5945   17.7796 H   0  0  0  0  0  0
  -27.6610  -14.2579   19.5047 H   0  0  0  0  0  0
  -28.6790  -12.0954   21.4152 H   0  0  0  0  0  0
  -28.4441  -13.7815   21.8046 H   0  0  0  0  0  0
  -25.2819   -9.5664   22.4747 H   0  0  0  0  0  0
  -24.0029   -7.4642   22.7487 H   0  0  0  0  0  0
  -21.0903   -8.8772   19.8909 H   0  0  0  0  0  0
  -22.3795  -10.9656   19.6118 H   0  0  0  0  0  0
  -21.1980   -7.6173   23.9747 H   0  0  0  0  0  0
  -21.1464   -6.0542   25.9107 H   0  0  0  0  0  0
  -22.0604   -2.7624   23.2863 H   0  0  0  0  0  0
  -22.4122  -11.9810   22.4720 H   0  0  0  0  0  0
  -21.1084  -13.1144   22.2567 H   0  0  0  0  0  0
  -24.6677  -15.8538   20.5296 H   0  0  0  0  0  0
  -26.2952  -15.6279   20.1351 H   0  0  0  0  0  0
  -26.7192  -32.5496   23.1142 H   0  0  0  0  0  0
  -24.9988  -33.9762   25.0370 H   0  0  0  0  0  0
  -22.7073  -31.3138   21.4134 H   0  0  0  0  0  0
  -23.3785  -35.9623   23.3260 H   0  0  0  0  0  0
  -24.3593  -36.8962   22.2042 H   0  0  0  0  0  0
  -23.7227  -37.6492   23.6672 H   0  0  0  0  0  0
  -26.0766  -31.5759   20.6033 H   0  0  0  0  0  0
  -26.8393  -30.8575   21.9919 H   0  0  0  0  0  0
  -28.1078  -29.0020   21.1862 H   0  0  0  0  0  0
  -25.9639  -25.9586   18.9986 H   0  0  0  0  0  0
  -23.9521  -27.3355   19.0028 H   0  0  0  0  0  0
  -23.7280  -30.6164   19.4068 H   0  0  0  0  0  0
  -22.7410  -29.2605   19.8656 H   0  0  0  0  0  0
  -25.1299  -36.1974   25.0812 H   0  0  0  0  0  0
  -20.9990  -28.3302   24.1422 H   0  0  0  0  0  0
  -20.5746  -26.2331   23.3607 H   0  0  0  0  0  0
  -21.6656  -26.7504   22.1199 H   0  0  0  0  0  0
  -19.6939  -25.6317   21.1262 H   0  0  0  0  0  0
  -19.6684  -27.3216   20.6762 H   0  0  0  0  0  0
  -17.4207  -26.6706   21.4046 H   0  0  0  0  0  0
  -18.0329  -26.0093   22.9047 H   0  0  0  0  0  0
  -19.7928  -30.7292   24.2297 H   0  0  0  0  0  0
  -17.5016  -31.6288   24.5188 H   0  0  0  0  0  0
  -15.5367  -30.3038   23.7611 H   0  0  0  0  0  0
  -15.8683  -28.0859   22.7050 H   0  0  0  0  0  0
  -24.5777  -30.7143   25.7713 H   0  0  0  0  0  0
  -24.8845  -32.2924   26.4838 H   0  0  0  0  0  0
  -25.7897  -30.8879   27.0206 H   0  0  0  0  0  0
  -26.2802  -29.6871   24.1016 H   0  0  0  0  0  0
  -27.3709  -29.7121   25.4658 H   0  0  0  0  0  0
  -27.8768  -30.4226   23.9496 H   0  0  0  0  0  0
  -27.2526  -33.3539   26.2212 H   0  0  0  0  0  0
  -28.3808  -32.6918   25.0470 H   0  0  0  0  0  0
  -28.0609  -31.8363   26.5477 H   0  0  0  0  0  0
  -28.2565  -38.0178   24.7580 H   0  0  0  0  0  0
  -28.1157  -36.2706   24.6192 H   0  0  0  0  0  0
  -27.2321  -37.1370   25.8849 H   0  0  0  0  0  0
  -20.9348  -29.8788   21.6889 H   0  0  0  0  0  0
  -26.0188  -38.2882   24.1429 H   0  0  0  0  0  0
  -29.6451  -23.9351   22.6330 H   0  0  0  0  0  0
  -28.1024  -20.9348   19.0039 H   0  0  0  0  0  0
  -27.9323  -17.3099   19.2039 H   0  0  0  0  0  0
  -29.0594  -18.4764   18.5939 H   0  0  0  0  0  0
  -28.8642  -18.1526   22.8586 H   0  0  0  0  0  0
  -27.8388  -17.0685   21.9800 H   0  0  0  0  0  0
  -30.9660  -17.1624   19.4574 H   0  0  0  0  0  0
  -29.9251  -16.1239   18.5188 H   0  0  0  0  0  0
  -29.8707  -15.8776   22.7019 H   0  0  0  0  0  0
  -30.8948  -17.0447   21.9024 H   0  0  0  0  0  0
  -27.7118  -19.0402   20.7395 H   0  0  0  0  0  0
  -30.7934  -22.1846   23.7030 H   0  0  0  0  0  0
  -31.4062  -20.8913   22.6762 H   0  0  0  0  0  0
  -29.9085  -20.6703   23.5849 H   0  0  0  0  0  0
  -27.3775  -22.8621   17.7191 H   0  0  0  0  0  0
  -27.4405  -24.4867   18.3608 H   0  0  0  0  0  0
  -26.1550  -23.3761   18.8778 H   0  0  0  0  0  0
  -28.1827  -25.5963   22.0382 H   0  0  0  0  0  0
  -26.8443  -25.1237   21.0698 H   0  0  0  0  0  0
  1 25  1  0  0  0
  1 30  2  0  0  0
  1 85  1  0  0  0
  2  3  1  0  0  0
  2 25  1  0  0  0
  2 87  1  0  0  0
  2 88  1  0  0  0
  3  4  1  0  0  0
  3 89  1  0  0  0
  3 90  1  0  0  0
  4  5  1  0  0  0
  4 91  1  0  0  0
  4 92  1  0  0  0
  5  6  1  0  0  0
  5 26  1  0  0  0
  5 93  1  0  0  0
  6 25  1  0  0  0
  6 94  1  0  0  0
  6 95  1  0  0  0
  7  8  2  0  0  0
  7 26  1  0  0  0
  7 29  1  0  0  0
  8  9  1  0  0  0
  8 22  1  0  0  0
  9 10  1  0  0  0
  9 27  2  0  0  0
 10 11  2  0  0  0
 10 15  1  0  0  0
 11 12  1  0  0  0
 11 96  1  0  0  0
 12 13  2  0  0  0
 12 97  1  0  0  0
 13 14  1  0  0  0
 13 31  1  0  0  0
 14 15  2  0  0  0
 14 98  1  0  0  0
 15 99  1  0  0  0
 16 17  2  0  0  0
 16 21  1  0  0  0
 16 31  1  0  0  0
 17 18  1  0  0  0
 17100  1  0  0  0
 18 19  2  0  0  0
 18101  1  0  0  0
 19 20  1  0  0  0
 19 24  1  0  0  0
 20 21  2  0  0  0
 20102  1  0  0  0
 21 23  1  0  0  0
 22 28  1  0  0  0
 22 32  2  0  0  0
 26 27  1  0  0  0
 28103  1  0  0  0
 28104  1  0  0  0
 29105  1  0  0  0
 29106  1  0  0  0
 33 34  1  0  0  0
 33 66  1  0  0  0
 33 70  2  0  0  0
 34 36  1  0  0  0
 34 59  1  0  0  0
 34107  1  0  0  0
 35 44  2  0  0  0
 35 45  1  0  0  0
 35 68  1  0  0  0
 36 56  1  0  0  0
 36108  1  0  0  0
 37 39  1  0  0  0
 37 47  1  0  0  0
 37 66  1  0  0  0
 37109  1  0  0  0
 38 43  2  0  0  0
 38 46  1  0  0  0
 38 47  1  0  0  0
 39 64  1  0  0  0
 39 67  2  0  0  0
 40 52  1  0  0  0
 40 53  2  0  0  0
 40 58  1  0  0  0
 41110  1  0  0  0
 41111  1  0  0  0
 41112  1  0  0  0
 41 48  1  0  0  0
 42 43  1  0  0  0
 42 66  1  0  0  0
 42113  1  0  0  0
 42114  1  0  0  0
 43 44  1  0  0  0
 44115  1  0  0  0
 45 46  2  0  0  0
 45116  1  0  0  0
 46117  1  0  0  0
 47118  1  0  0  0
 47119  1  0  0  0
 48 56  1  0  0  0
 48 65  1  0  0  0
 48120  1  0  0  0
 49 50  1  0  0  0
 49 53  1  0  0  0
 49 64  1  0  0  0
 49121  1  0  0  0
 50 51  1  0  0  0
 50122  1  0  0  0
 50123  1  0  0  0
 51 52  1  0  0  0
 51124  1  0  0  0
 51125  1  0  0  0
 52126  1  0  0  0
 52127  1  0  0  0
 53 54  1  0  0  0
 54 55  2  0  0  0
 54128  1  0  0  0
 55 57  1  0  0  0
 55129  1  0  0  0
 56 69  2  0  0  0
 57 58  2  0  0  0
 57130  1  0  0  0
 58131  1  0  0  0
 59 60  1  0  0  0
 59 61  1  0  0  0
 59 62  1  0  0  0
 60132  1  0  0  0
 60133  1  0  0  0
 60134  1  0  0  0
 61135  1  0  0  0
 61136  1  0  0  0
 61137  1  0  0  0
 62138  1  0  0  0
 62139  1  0  0  0
 62140  1  0  0  0
 63 65  1  0  0  0
 63141  1  0  0  0
 63142  1  0  0  0
 63143  1  0  0  0
 64144  1  0  0  0
 65145  1  0  0  0
 68 84  1  0  0  0
 71 73  2  0  0  0
 71 74  1  0  0  0
 71146  1  0  0  0
 72 75  2  0  0  0
 72 76  1  0  0  0
 72147  1  0  0  0
 73 75  1  0  0  0
 73 84  1  0  0  0
 74 76  2  0  0  0
 74 82  1  0  0  0
 75 83  1  0  0  0
 76 86  1  0  0  0
 77 79  1  0  0  0
 77 81  1  0  0  0
 77148  1  0  0  0
 77149  1  0  0  0
 78 80  1  0  0  0
 78 81  1  0  0  0
 78150  1  0  0  0
 78151  1  0  0  0
 79 85  1  0  0  0
 79152  1  0  0  0
 79153  1  0  0  0
 80 85  1  0  0  0
 80154  1  0  0  0
 80155  1  0  0  0
 81 86  1  0  0  0
 81156  1  0  0  0
 82157  1  0  0  0
 82158  1  0  0  0
 82159  1  0  0  0
 83160  1  0  0  0
 83161  1  0  0  0
 83162  1  0  0  0
 84163  1  0  0  0
 84164  1  0  0  0
M  ISO  4   1 100  68 101  84 101  85 100
M  END
> <chiral flag>
0

> <version>
0

> <s_m_source_file>
/data/baiqing/PycharmProjects/Reinvent-master-3.2/result/LINK_invent/BTK/process_docking_weight1_custom_sum_contain_oxygen_bond_distance_aromatic_linkinvent_7_9_3/rearranged_h_0156.sdf

> <i_m_source_file_index>
93

> <r_mmod_Potential_Energy-OPLS-2005>
305.675048828125

> <r_mmod_Stretch_Energy-OPLS-2005>
64.3945388793945

> <r_mmod_Bend_Energy-OPLS-2005>
139.448257446289

> <r_mmod_Torsional_Energy-OPLS-2005>
382.279602050781

> <r_mmod_Improper_Torsional_Energy-OPLS-2005>
16.7732257843018

> <r_mmod_Van_der_Waal_Energy-OPLS-2005>
140.388320922852

> <r_mmod_Electrostatic_Energy-OPLS-2005>
-289.587463378906

> <r_mmod_Solvation_Energy-OPLS-2005>
-194.138809204102

> <b_mmod_Minimization_Converged-OPLS-2005>
0

> <r_mmod_RMS_Derivative-OPLS-2005>
3.22018051147461

$$$$
93
                    3D
 Structure written by MMmdl.
168177  0  0  1  0            999 V2000
  -30.6909  -14.4858   20.5570 C   0  0  0  0  0  0
  -30.4275  -12.3087   19.4220 C   0  0  0  0  0  0
  -29.4998  -12.5163   18.2061 C   0  0  0  0  0  0
  -28.0197  -12.3757   18.6149 C   0  0  0  0  0  0
  -27.6646  -13.2070   19.8768 C   0  0  2  0  0  0
  -28.7080  -12.9803   20.9951 C   0  0  0  0  0  0
  -25.2598  -13.8136   20.5668 C   0  0  0  0  0  0
  -24.1842  -13.0429   20.9168 C   0  0  0  0  0  0
  -24.6396  -11.6895   20.8716 C   0  0  0  0  0  0
  -23.9057  -10.4288   21.0385 C   0  0  0  0  0  0
  -24.3601   -9.4212   21.9173 C   0  0  0  0  0  0
  -23.6279   -8.2246   22.0756 C   0  0  0  0  0  0
  -22.4264   -8.0277   21.3547 C   0  0  0  0  0  0
  -21.9892   -9.0252   20.4654 C   0  0  0  0  0  0
  -22.7220  -10.2130   20.3054 C   0  0  0  0  0  0
  -21.6855   -6.0728   22.5276 C   0  0  0  0  0  0
  -21.4017   -6.5631   23.8208 C   0  0  0  0  0  0
  -21.3662   -5.6785   24.9171 C   0  0  0  0  0  0
  -21.6046   -4.3047   24.7221 C   0  0  0  0  0  0
  -21.8818   -3.8142   23.4342 C   0  0  0  0  0  0
  -21.9192   -4.6958   22.3401 C   0  0  0  0  0  0
  -22.7866  -13.5242   21.1826 C   0  0  0  0  0  0
  -22.1660   -4.2146   21.0980 F   0  0  0  0  0  0
  -21.5629   -3.4531   25.7732 F   0  0  0  0  0  0
  -30.0430  -13.2902   20.4488 N   0  0  0  0  0  0
  -26.3041  -12.9316   20.3366 N   0  0  0  0  0  0
  -25.9327  -11.6474   20.5746 N   0  0  0  0  0  0
  -22.0497  -12.8253   22.0387 N   0  0  0  0  0  0
  -25.4330  -15.1832   20.4051 N   0  0  0  0  0  0
  -31.8221  -14.6658   20.0908 O   0  0  0  0  0  0
  -21.6642   -6.8870   21.4240 O   0  0  0  0  0  0
  -22.3562  -14.5554   20.6682 O   0  0  0  0  0  0
  -24.6136  -31.8676   23.2088 C   0  0  0  0  0  0
  -25.9024  -32.4826   23.8397 C   0  0  1  0  0  0
  -27.2433  -27.4421   20.0988 C   0  0  0  0  0  0
  -25.5875  -33.8624   24.2323 N   0  0  0  0  0  0
  -23.4041  -30.4892   21.5478 C   0  0  2  0  0  0
  -24.8567  -28.9557   20.1142 C   0  0  0  0  0  0
  -22.7417  -29.4650   22.4971 C   0  0  0  0  0  0
  -18.0275  -28.1379   22.8492 C   0  0  0  0  0  0
  -24.1482  -36.7325   23.2640 C   0  0  0  0  0  0
  -25.9323  -30.8357   21.3634 C   0  0  0  0  0  0
  -26.0146  -29.4701   20.7121 C   0  0  0  0  0  0
  -27.2132  -28.7198   20.7040 C   0  0  0  0  0  0
  -26.0734  -26.9415   19.4912 C   0  0  0  0  0  0
  -24.8798  -27.6903   19.5006 C   0  0  0  0  0  0
  -23.6160  -29.8201   20.1630 C   0  0  0  0  0  0
  -25.4099  -36.3116   24.0339 C   0  0  1  0  0  0
  -20.5869  -28.3666   23.1311 C   0  0  2  0  0  0
  -20.6758  -26.9400   22.5415 C   0  0  0  0  0  0
  -19.5738  -26.6391   21.5202 C   0  0  0  0  0  0
  -18.1918  -26.7925   22.1618 C   0  0  0  0  0  0
  -19.1526  -28.8839   23.2898 C   0  0  0  0  0  0
  -18.9456  -30.1444   23.8909 C   0  0  0  0  0  0
  -17.6459  -30.6580   24.0573 C   0  0  0  0  0  0
  -25.9030  -34.9481   23.5130 C   0  0  0  0  0  0
  -16.5348  -29.9085   23.6335 C   0  0  0  0  0  0
  -16.7265  -28.6506   23.0348 C   0  0  0  0  0  0
  -26.4450  -31.6607   25.0728 C   0  0  0  0  0  0
  -25.3722  -31.3728   26.1487 C   0  0  0  0  0  0
  -27.0286  -30.3050   24.6110 C   0  0  0  0  0  0
  -27.6032  -32.4326   25.7483 C   0  0  0  0  0  0
  -27.5578  -37.1812   24.8459 C   0  0  0  0  0  0
  -21.4142  -29.3030   22.3713 N   0  0  0  0  0  0
  -26.4285  -37.3800   23.9412 N   0  0  0  0  0  0
  -24.6680  -31.0779   22.0993 N   0  0  0  0  0  0
  -23.4184  -28.8196   23.3019 O   0  0  0  0  0  0
  -28.3772  -26.6605   20.1115 O   0  0  0  0  0  0
  -26.5603  -34.8929   22.4699 O   0  0  0  0  0  0
  -23.5321  -32.1428   23.7475 O   0  0  0  0  0  0
  -28.7703  -17.5359   21.2910 C   0  0  0  0  0  0
  -28.5446  -18.8928   20.9758 C   0  0  0  0  0  0
  -29.5297  -19.5832   20.2251 C   0  0  0  0  0  0
  -30.6953  -18.8608   19.8672 C   0  0  0  0  0  0
  -29.9232  -16.8639   20.8423 C   0  0  0  0  0  0
  -25.9616  -18.8002   21.5318 C   0  0  0  0  0  0
  -26.1501  -19.8161   20.4353 C   0  0  0  0  0  0
  -27.2680  -19.5557   21.4201 C   0  0  0  0  0  0
  -31.8359  -19.5043   19.0981 C   0  0  0  0  0  0
  -29.9247  -24.3219   22.6435 C   0  0  0  0  0  0
  -29.2885  -21.0359   19.7567 C   0  0  0  0  0  0
  -29.6652  -22.1482   20.7685 C   0  0  0  0  0  0
  -28.3875  -25.7491   21.2200 C   0  0  0  0  0  0
  -29.5303  -24.6892   21.1915 C   0  0  2  0  0  0
  -30.8735  -17.5497   20.1615 N   0  0  0  0  0  0
  -29.9643  -15.4659   21.1320 N   0  0  0  0  0  0
  -29.1643  -23.4963   20.3559 N   0  3  0  0  0  0
  -31.4727  -12.4023   19.1215 H   0  0  0  0  0  0
  -30.3212  -11.2955   19.8134 H   0  0  0  0  0  0
  -29.7385  -11.8009   17.4182 H   0  0  0  0  0  0
  -29.6696  -13.5054   17.7769 H   0  0  0  0  0  0
  -27.8232  -11.3192   18.8001 H   0  0  0  0  0  0
  -27.3738  -12.6619   17.7842 H   0  0  0  0  0  0
  -27.7090  -14.2570   19.5851 H   0  0  0  0  0  0
  -28.6848  -11.9406   21.3242 H   0  0  0  0  0  0
  -28.4668  -13.5658   21.8835 H   0  0  0  0  0  0
  -25.2743   -9.5692   22.4744 H   0  0  0  0  0  0
  -23.9995   -7.4639   22.7469 H   0  0  0  0  0  0
  -21.0823   -8.8764   19.8956 H   0  0  0  0  0  0
  -22.3670  -10.9664   19.6160 H   0  0  0  0  0  0
  -21.2013   -7.6136   23.9709 H   0  0  0  0  0  0
  -21.1485   -6.0515   25.9074 H   0  0  0  0  0  0
  -22.0596   -2.7602   23.2843 H   0  0  0  0  0  0
  -22.4093  -11.9916   22.4788 H   0  0  0  0  0  0
  -21.1124  -13.1310   22.2589 H   0  0  0  0  0  0
  -24.6643  -15.8365   20.5075 H   0  0  0  0  0  0
  -26.2823  -15.6183   20.0693 H   0  0  0  0  0  0
  -26.7108  -32.5548   23.1174 H   0  0  0  0  0  0
  -24.9999  -33.9786   25.0452 H   0  0  0  0  0  0
  -22.6925  -31.3049   21.4057 H   0  0  0  0  0  0
  -23.3733  -35.9668   23.3306 H   0  0  0  0  0  0
  -24.3579  -36.8938   22.2054 H   0  0  0  0  0  0
  -23.7242  -37.6533   23.6656 H   0  0  0  0  0  0
  -26.0426  -31.6012   20.5938 H   0  0  0  0  0  0
  -26.8200  -30.8915   21.9824 H   0  0  0  0  0  0
  -28.1069  -29.1107   21.1711 H   0  0  0  0  0  0
  -26.0831  -25.9674   19.0230 H   0  0  0  0  0  0
  -23.9911  -27.2873   19.0351 H   0  0  0  0  0  0
  -23.7246  -30.5951   19.4032 H   0  0  0  0  0  0
  -22.7420  -29.2381   19.8657 H   0  0  0  0  0  0
  -25.1268  -36.1982   25.0831 H   0  0  0  0  0  0
  -20.9961  -28.3229   24.1429 H   0  0  0  0  0  0
  -20.5651  -26.2266   23.3599 H   0  0  0  0  0  0
  -21.6631  -26.7436   22.1212 H   0  0  0  0  0  0
  -19.6897  -25.6306   21.1218 H   0  0  0  0  0  0
  -19.6677  -27.3211   20.6739 H   0  0  0  0  0  0
  -17.4186  -26.6683   21.4021 H   0  0  0  0  0  0
  -18.0323  -26.0058   22.9008 H   0  0  0  0  0  0
  -19.7934  -30.7260   24.2278 H   0  0  0  0  0  0
  -17.5017  -31.6262   24.5169 H   0  0  0  0  0  0
  -15.5350  -30.2990   23.7657 H   0  0  0  0  0  0
  -15.8665  -28.0832   22.7052 H   0  0  0  0  0  0
  -24.5856  -30.7113   25.7829 H   0  0  0  0  0  0
  -24.8955  -32.2898   26.4967 H   0  0  0  0  0  0
  -25.8067  -30.8868   27.0233 H   0  0  0  0  0  0
  -26.2840  -29.6815   24.1146 H   0  0  0  0  0  0
  -27.4034  -29.7276   25.4571 H   0  0  0  0  0  0
  -27.8680  -30.4364   23.9277 H   0  0  0  0  0  0
  -27.2650  -33.3608   26.2100 H   0  0  0  0  0  0
  -28.3817  -32.6918   25.0298 H   0  0  0  0  0  0
  -28.0732  -31.8435   26.5366 H   0  0  0  0  0  0
  -28.2593  -38.0113   24.7515 H   0  0  0  0  0  0
  -28.1075  -36.2645   24.6264 H   0  0  0  0  0  0
  -27.2311  -37.1451   25.8868 H   0  0  0  0  0  0
  -20.9291  -29.8756   21.6949 H   0  0  0  0  0  0
  -26.0173  -38.2880   24.1408 H   0  0  0  0  0  0
  -28.0243  -16.9969   21.8587 H   0  0  0  0  0  0
  -25.9302  -17.7575   21.2279 H   0  0  0  0  0  0
  -25.2891  -19.0682   22.3438 H   0  0  0  0  0  0
  -25.6002  -20.7504   20.5244 H   0  0  0  0  0  0
  -26.2660  -19.4338   19.4226 H   0  0  0  0  0  0
  -27.4651  -20.3092   22.1802 H   0  0  0  0  0  0
  -32.2132  -20.3771   19.6311 H   0  0  0  0  0  0
  -31.5084  -19.8176   18.1071 H   0  0  0  0  0  0
  -32.6700  -18.8144   18.9640 H   0  0  0  0  0  0
  -30.1969  -25.2133   23.2110 H   0  0  0  0  0  0
  -30.7942  -23.6670   22.6836 H   0  0  0  0  0  0
  -29.1055  -23.8387   23.1774 H   0  0  0  0  0  0
  -28.2407  -21.1412   19.4804 H   0  0  0  0  0  0
  -29.8195  -21.2117   18.8219 H   0  0  0  0  0  0
  -30.7494  -22.1716   20.8893 H   0  0  0  0  0  0
  -29.2403  -21.8976   21.7405 H   0  0  0  0  0  0
  -28.4954  -26.3655   22.1147 H   0  0  0  0  0  0
  -27.4235  -25.2477   21.3251 H   0  0  0  0  0  0
  -30.4092  -25.1494   20.7386 H   0  0  0  0  0  0
  -29.1413  -15.1186   21.5957 H   0  0  0  0  0  0
  -28.1581  -23.4394   20.3195 H   0  0  0  0  0  0
  -29.4682  -23.6800   19.4103 H   0  0  0  0  0  0
  1 25  1  0  0  0
  1 30  2  0  0  0
  1 86  1  0  0  0
  2  3  1  0  0  0
  2 25  1  0  0  0
  2 88  1  0  0  0
  2 89  1  0  0  0
  3  4  1  0  0  0
  3 90  1  0  0  0
  3 91  1  0  0  0
  4  5  1  0  0  0
  4 92  1  0  0  0
  4 93  1  0  0  0
  5  6  1  0  0  0
  5 26  1  0  0  0
  5 94  1  0  0  0
  6 25  1  0  0  0
  6 95  1  0  0  0
  6 96  1  0  0  0
  7  8  2  0  0  0
  7 26  1  0  0  0
  7 29  1  0  0  0
  8  9  1  0  0  0
  8 22  1  0  0  0
  9 10  1  0  0  0
  9 27  2  0  0  0
 10 11  2  0  0  0
 10 15  1  0  0  0
 11 12  1  0  0  0
 11 97  1  0  0  0
 12 13  2  0  0  0
 12 98  1  0  0  0
 13 14  1  0  0  0
 13 31  1  0  0  0
 14 15  2  0  0  0
 14 99  1  0  0  0
 15100  1  0  0  0
 16 17  2  0  0  0
 16 21  1  0  0  0
 16 31  1  0  0  0
 17 18  1  0  0  0
 17101  1  0  0  0
 18 19  2  0  0  0
 18102  1  0  0  0
 19 20  1  0  0  0
 19 24  1  0  0  0
 20 21  2  0  0  0
 20103  1  0  0  0
 21 23  1  0  0  0
 22 28  1  0  0  0
 22 32  2  0  0  0
 26 27  1  0  0  0
 28104  1  0  0  0
 28105  1  0  0  0
 29106  1  0  0  0
 29107  1  0  0  0
 33 34  1  0  0  0
 33 66  1  0  0  0
 33 70  2  0  0  0
 34 36  1  0  0  0
 34 59  1  0  0  0
 34108  1  0  0  0
 35 44  2  0  0  0
 35 45  1  0  0  0
 35 68  1  0  0  0
 36 56  1  0  0  0
 36109  1  0  0  0
 37 39  1  0  0  0
 37 47  1  0  0  0
 37 66  1  0  0  0
 37110  1  0  0  0
 38 43  2  0  0  0
 38 46  1  0  0  0
 38 47  1  0  0  0
 39 64  1  0  0  0
 39 67  2  0  0  0
 40 52  1  0  0  0
 40 53  2  0  0  0
 40 58  1  0  0  0
 41111  1  0  0  0
 41112  1  0  0  0
 41113  1  0  0  0
 41 48  1  0  0  0
 42 43  1  0  0  0
 42 66  1  0  0  0
 42114  1  0  0  0
 42115  1  0  0  0
 43 44  1  0  0  0
 44116  1  0  0  0
 45 46  2  0  0  0
 45117  1  0  0  0
 46118  1  0  0  0
 47119  1  0  0  0
 47120  1  0  0  0
 48 56  1  0  0  0
 48 65  1  0  0  0
 48121  1  0  0  0
 49 50  1  0  0  0
 49 53  1  0  0  0
 49 64  1  0  0  0
 49122  1  0  0  0
 50 51  1  0  0  0
 50123  1  0  0  0
 50124  1  0  0  0
 51 52  1  0  0  0
 51125  1  0  0  0
 51126  1  0  0  0
 52127  1  0  0  0
 52128  1  0  0  0
 53 54  1  0  0  0
 54 55  2  0  0  0
 54129  1  0  0  0
 55 57  1  0  0  0
 55130  1  0  0  0
 56 69  2  0  0  0
 57 58  2  0  0  0
 57131  1  0  0  0
 58132  1  0  0  0
 59 60  1  0  0  0
 59 61  1  0  0  0
 59 62  1  0  0  0
 60133  1  0  0  0
 60134  1  0  0  0
 60135  1  0  0  0
 61136  1  0  0  0
 61137  1  0  0  0
 61138  1  0  0  0
 62139  1  0  0  0
 62140  1  0  0  0
 62141  1  0  0  0
 63 65  1  0  0  0
 63142  1  0  0  0
 63143  1  0  0  0
 63144  1  0  0  0
 64145  1  0  0  0
 65146  1  0  0  0
 68 83  1  0  0  0
 71 72  2  0  0  0
 71 75  1  0  0  0
 71147  1  0  0  0
 72 73  1  0  0  0
 72 78  1  0  0  0
 73 74  2  0  0  0
 73 81  1  0  0  0
 74 79  1  0  0  0
 74 85  1  0  0  0
 75 85  2  0  0  0
 75 86  1  0  0  0
 76 77  1  0  0  0
 76 78  1  0  0  0
 76148  1  0  0  0
 76149  1  0  0  0
 77 78  1  0  0  0
 77150  1  0  0  0
 77151  1  0  0  0
 78152  1  0  0  0
 79153  1  0  0  0
 79154  1  0  0  0
 79155  1  0  0  0
 80156  1  0  0  0
 80157  1  0  0  0
 80158  1  0  0  0
 80 84  1  0  0  0
 81 82  1  0  0  0
 81159  1  0  0  0
 81160  1  0  0  0
 82 87  1  0  0  0
 82161  1  0  0  0
 82162  1  0  0  0
 83 84  1  0  0  0
 83163  1  0  0  0
 83164  1  0  0  0
 84 87  1  0  0  0
 84165  1  0  0  0
 86166  1  0  0  0
 87167  1  0  0  0
 87168  1  0  0  0
M  CHG  1  87   1
M  ISO  4   1 100  68 101  83 101  86 100
M  END
> <chiral flag>
0

> <version>
0

> <s_m_source_file>
/data/baiqing/PycharmProjects/Reinvent-master-3.2/result/LINK_invent/BTK/process_docking_weight1_custom_sum_contain_oxygen_bond_distance_aromatic_linkinvent_7_9_3/rearranged_h_0156.sdf

> <i_m_source_file_index>
94

> <r_mmod_Potential_Energy-OPLS-2005>
-291.942474365234

> <r_mmod_Stretch_Energy-OPLS-2005>
41.432918548584

> <r_mmod_Bend_Energy-OPLS-2005>
105.491325378418

> <r_mmod_Torsional_Energy-OPLS-2005>
280.953399658203

> <r_mmod_Improper_Torsional_Energy-OPLS-2005>
4.05174541473389

> <r_mmod_Van_der_Waal_Energy-OPLS-2005>
148.840225219727

> <r_mmod_Electrostatic_Energy-OPLS-2005>
-411.022735595703

> <r_mmod_Solvation_Energy-OPLS-2005>
-474.966461181641

> <b_mmod_Minimization_Converged-OPLS-2005>
0

> <r_mmod_RMS_Derivative-OPLS-2005>
1.42588233947754

$$$$
94
                    3D
 Structure written by MMmdl.
170179  0  0  1  0            999 V2000
  -30.7232  -14.5719   20.5193 C   0  0  0  0  0  0
  -30.4023  -12.3668   19.4289 C   0  0  0  0  0  0
  -29.4766  -12.4823   18.2015 C   0  0  0  0  0  0
  -28.0076  -12.2874   18.6237 C   0  0  0  0  0  0
  -27.6266  -13.1713   19.8377 C   0  0  2  0  0  0
  -28.6836  -13.0954   20.9707 C   0  0  0  0  0  0
  -25.2497  -13.8038   20.5656 C   0  0  0  0  0  0
  -24.1756  -13.0377   20.9186 C   0  0  0  0  0  0
  -24.6272  -11.6824   20.8773 C   0  0  0  0  0  0
  -23.8964  -10.4235   21.0433 C   0  0  0  0  0  0
  -24.3552   -9.4188   21.9206 C   0  0  0  0  0  0
  -23.6241   -8.2223   22.0760 C   0  0  0  0  0  0
  -22.4241   -8.0254   21.3535 C   0  0  0  0  0  0
  -21.9852   -9.0223   20.4657 C   0  0  0  0  0  0
  -22.7155  -10.2113   20.3065 C   0  0  0  0  0  0
  -21.6854   -6.0715   22.5265 C   0  0  0  0  0  0
  -21.4032   -6.5616   23.8210 C   0  0  0  0  0  0
  -21.3658   -5.6776   24.9163 C   0  0  0  0  0  0
  -21.6016   -4.3030   24.7222 C   0  0  0  0  0  0
  -21.8838   -3.8128   23.4347 C   0  0  0  0  0  0
  -21.9205   -4.6931   22.3402 C   0  0  0  0  0  0
  -22.7804  -13.5215   21.1834 C   0  0  0  0  0  0
  -22.1667   -4.2116   21.0977 F   0  0  0  0  0  0
  -21.5619   -3.4524   25.7745 F   0  0  0  0  0  0
  -29.9993  -13.4122   20.3935 N   0  0  0  0  0  0
  -26.2828  -12.9096   20.3241 N   0  0  0  0  0  0
  -25.9169  -11.6311   20.5768 N   0  0  0  0  0  0
  -22.0458  -12.8270   22.0430 N   0  0  0  0  0  0
  -25.4263  -15.1759   20.4027 N   0  0  0  0  0  0
  -31.8950  -14.6138   20.1367 O   0  0  0  0  0  0
  -21.6624   -6.8846   21.4234 O   0  0  0  0  0  0
  -22.3550  -14.5528   20.6660 O   0  0  0  0  0  0
  -24.6172  -31.8632   23.2064 C   0  0  0  0  0  0
  -25.9044  -32.4801   23.8397 C   0  0  1  0  0  0
  -27.2471  -27.4052   20.1356 C   0  0  0  0  0  0
  -25.5877  -33.8586   24.2350 N   0  0  0  0  0  0
  -23.4090  -30.4813   21.5456 C   0  0  2  0  0  0
  -24.8614  -28.9369   20.1233 C   0  0  0  0  0  0
  -22.7421  -29.4614   22.4966 C   0  0  0  0  0  0
  -18.0269  -28.1331   22.8518 C   0  0  0  0  0  0
  -24.1460  -36.7292   23.2639 C   0  0  0  0  0  0
  -25.9360  -30.8275   21.3573 C   0  0  0  0  0  0
  -26.0181  -29.4537   20.7179 C   0  0  0  0  0  0
  -27.2102  -28.6946   20.7187 C   0  0  0  0  0  0
  -26.0724  -26.9072   19.5262 C   0  0  0  0  0  0
  -24.8839  -27.6655   19.5225 C   0  0  0  0  0  0
  -23.6233  -29.8030   20.1640 C   0  0  0  0  0  0
  -25.4076  -36.3098   24.0363 C   0  0  1  0  0  0
  -20.5870  -28.3639   23.1301 C   0  0  2  0  0  0
  -20.6741  -26.9371   22.5406 C   0  0  0  0  0  0
  -19.5725  -26.6350   21.5197 C   0  0  0  0  0  0
  -18.1905  -26.7892   22.1616 C   0  0  0  0  0  0
  -19.1528  -28.8799   23.2911 C   0  0  0  0  0  0
  -18.9457  -30.1387   23.8947 C   0  0  0  0  0  0
  -17.6464  -30.6564   24.0550 C   0  0  0  0  0  0
  -25.8990  -34.9457   23.5160 C   0  0  0  0  0  0
  -16.5347  -29.9074   23.6295 C   0  0  0  0  0  0
  -16.7260  -28.6449   23.0407 C   0  0  0  0  0  0
  -26.4481  -31.6577   25.0708 C   0  0  0  0  0  0
  -25.3779  -31.3733   26.1506 C   0  0  0  0  0  0
  -27.0306  -30.3014   24.6053 C   0  0  0  0  0  0
  -27.6021  -32.4327   25.7500 C   0  0  0  0  0  0
  -27.5572  -37.1792   24.8472 C   0  0  0  0  0  0
  -21.4150  -29.3013   22.3713 N   0  0  0  0  0  0
  -26.4273  -37.3773   23.9435 N   0  0  0  0  0  0
  -24.6720  -31.0750   22.0946 N   0  0  0  0  0  0
  -23.4203  -28.8152   23.3008 O   0  0  0  0  0  0
  -28.4407  -26.7030   20.1945 O   0  0  0  0  0  0
  -26.5535  -34.8922   22.4708 O   0  0  0  0  0  0
  -23.5349  -32.1343   23.7466 O   0  0  0  0  0  0
  -29.6474  -20.9723   22.4035 C   0  0  0  0  0  0
  -28.2613  -20.7021   20.4456 C   0  0  0  0  0  0
  -29.0813  -20.1151   21.4377 C   0  0  0  0  0  0
  -29.4116  -22.3695   22.3861 C   0  0  0  0  0  0
  -28.5747  -22.9575   21.3884 C   0  0  0  0  0  0
  -28.0047  -22.0996   20.4066 C   0  0  0  0  0  0
  -28.6369  -17.7473   20.4450 C   0  0  0  0  0  0
  -30.7865  -18.1665   21.5068 C   0  0  0  0  0  0
  -28.8296  -16.2205   20.6006 C   0  0  0  0  0  0
  -30.9689  -16.6605   21.8412 C   0  0  0  0  0  0
  -29.3102  -18.5871   21.5383 C   0  0  0  0  0  0
  -30.0614  -23.1971   23.4854 C   0  0  0  0  0  0
  -26.7810  -24.6370   21.9556 C   0  0  0  0  0  0
  -26.8745  -21.9219   18.2829 C   0  0  0  0  0  0
  -28.4828  -25.2629   20.0913 C   0  0  0  0  0  0
  -28.2141  -24.4741   21.4218 C   0  0  1  0  0  0
  -30.1498  -15.7071   21.0448 N   0  0  0  0  0  0
  -27.1709  -22.6615   19.4611 O   0  0  0  0  0  0
  -31.4448  -12.4470   19.1131 H   0  0  0  0  0  0
  -30.3096  -11.3774   19.8801 H   0  0  0  0  0  0
  -29.7444  -11.7386   17.4487 H   0  0  0  0  0  0
  -29.6001  -13.4608   17.7307 H   0  0  0  0  0  0
  -27.8653  -11.2348   18.8715 H   0  0  0  0  0  0
  -27.3394  -12.4962   17.7853 H   0  0  0  0  0  0
  -27.5915  -14.1639   19.4193 H   0  0  0  0  0  0
  -28.6957  -12.0992   21.4112 H   0  0  0  0  0  0
  -28.4288  -13.7621   21.7948 H   0  0  0  0  0  0
  -25.2721   -9.5678   22.4756 H   0  0  0  0  0  0
  -23.9959   -7.4624   22.7481 H   0  0  0  0  0  0
  -21.0784   -8.8735   19.8979 H   0  0  0  0  0  0
  -22.3610  -10.9645   19.6162 H   0  0  0  0  0  0
  -21.2053   -7.6133   23.9700 H   0  0  0  0  0  0
  -21.1439   -6.0503   25.9061 H   0  0  0  0  0  0
  -22.0624   -2.7589   23.2860 H   0  0  0  0  0  0
  -22.4051  -11.9901   22.4784 H   0  0  0  0  0  0
  -21.1090  -13.1354   22.2640 H   0  0  0  0  0  0
  -24.6599  -15.8279   20.5058 H   0  0  0  0  0  0
  -26.2754  -15.6150   20.0763 H   0  0  0  0  0  0
  -26.7128  -32.5545   23.1196 H   0  0  0  0  0  0
  -25.0178  -33.9719   25.0613 H   0  0  0  0  0  0
  -22.7012  -31.2974   21.3928 H   0  0  0  0  0  0
  -23.3714  -35.9624   23.3298 H   0  0  0  0  0  0
  -24.3585  -36.8888   22.2051 H   0  0  0  0  0  0
  -23.7188  -37.6495   23.6636 H   0  0  0  0  0  0
  -26.0427  -31.5843   20.5783 H   0  0  0  0  0  0
  -26.8282  -30.8971   21.9671 H   0  0  0  0  0  0
  -28.1013  -29.0859   21.1878 H   0  0  0  0  0  0
  -26.0452  -25.9308   19.0635 H   0  0  0  0  0  0
  -23.9932  -27.2624   19.0634 H   0  0  0  0  0  0
  -23.7402  -30.5634   19.3899 H   0  0  0  0  0  0
  -22.7512  -29.2129   19.8748 H   0  0  0  0  0  0
  -25.1235  -36.1981   25.0845 H   0  0  0  0  0  0
  -20.9979  -28.3207   24.1418 H   0  0  0  0  0  0
  -20.5572  -26.2257   23.3597 H   0  0  0  0  0  0
  -21.6617  -26.7350   22.1241 H   0  0  0  0  0  0
  -19.6877  -25.6266   21.1205 H   0  0  0  0  0  0
  -19.6679  -27.3163   20.6729 H   0  0  0  0  0  0
  -17.4175  -26.6669   21.4008 H   0  0  0  0  0  0
  -18.0311  -26.0011   22.8983 H   0  0  0  0  0  0
  -19.7934  -30.7158   24.2387 H   0  0  0  0  0  0
  -17.5030  -31.6263   24.5122 H   0  0  0  0  0  0
  -15.5356  -30.3020   23.7540 H   0  0  0  0  0  0
  -15.8650  -28.0719   22.7224 H   0  0  0  0  0  0
  -24.5911  -30.7076   25.7957 H   0  0  0  0  0  0
  -24.9024  -32.2920   26.4935 H   0  0  0  0  0  0
  -25.8191  -30.8966   27.0271 H   0  0  0  0  0  0
  -26.2842  -29.6795   24.1085 H   0  0  0  0  0  0
  -27.4078  -29.7210   25.4486 H   0  0  0  0  0  0
  -27.8689  -30.4339   23.9204 H   0  0  0  0  0  0
  -27.2560  -33.3607   26.2082 H   0  0  0  0  0  0
  -28.3863  -32.6939   25.0375 H   0  0  0  0  0  0
  -28.0658  -31.8449   26.5437 H   0  0  0  0  0  0
  -28.2588  -38.0080   24.7517 H   0  0  0  0  0  0
  -28.1060  -36.2622   24.6301 H   0  0  0  0  0  0
  -27.2308  -37.1459   25.8873 H   0  0  0  0  0  0
  -20.9309  -29.8819   21.7014 H   0  0  0  0  0  0
  -26.0165  -38.2846   24.1454 H   0  0  0  0  0  0
  -30.2560  -20.5454   23.1913 H   0  0  0  0  0  0
  -27.7865  -20.0656   19.7170 H   0  0  0  0  0  0
  -27.5651  -17.9491   20.4171 H   0  0  0  0  0  0
  -29.0264  -18.0551   19.4720 H   0  0  0  0  0  0
  -31.3658  -18.7559   22.2173 H   0  0  0  0  0  0
  -31.2122  -18.3876   20.5250 H   0  0  0  0  0  0
  -28.0680  -15.8510   21.2870 H   0  0  0  0  0  0
  -28.6262  -15.8435   19.6039 H   0  0  0  0  0  0
  -30.7130  -16.5008   22.8910 H   0  0  0  0  0  0
  -32.0350  -16.4376   21.7582 H   0  0  0  0  0  0
  -28.8912  -18.2862   22.5002 H   0  0  0  0  0  0
  -29.3080  -23.5775   24.1752 H   0  0  0  0  0  0
  -30.6343  -24.0311   23.0752 H   0  0  0  0  0  0
  -30.7623  -22.5990   24.0647 H   0  0  0  0  0  0
  -26.0426  -24.2613   21.2467 H   0  0  0  0  0  0
  -26.5491  -25.6803   22.1670 H   0  0  0  0  0  0
  -26.6500  -24.0908   22.8914 H   0  0  0  0  0  0
  -26.5128  -22.6011   17.5099 H   0  0  0  0  0  0
  -26.0915  -21.1859   18.4704 H   0  0  0  0  0  0
  -27.7622  -21.4330   17.8794 H   0  0  0  0  0  0
  -29.5090  -25.0403   19.7966 H   0  0  0  0  0  0
  -27.8905  -24.9164   19.2516 H   0  0  0  0  0  0
  -28.8472  -24.9617   22.1586 H   0  0  0  0  0  0
  1 25  1  0  0  0
  1 30  2  0  0  0
  1 87  1  0  0  0
  2  3  1  0  0  0
  2 25  1  0  0  0
  2 89  1  0  0  0
  2 90  1  0  0  0
  3  4  1  0  0  0
  3 91  1  0  0  0
  3 92  1  0  0  0
  4  5  1  0  0  0
  4 93  1  0  0  0
  4 94  1  0  0  0
  5  6  1  0  0  0
  5 26  1  0  0  0
  5 95  1  0  0  0
  6 25  1  0  0  0
  6 96  1  0  0  0
  6 97  1  0  0  0
  7  8  2  0  0  0
  7 26  1  0  0  0
  7 29  1  0  0  0
  8  9  1  0  0  0
  8 22  1  0  0  0
  9 10  1  0  0  0
  9 27  2  0  0  0
 10 11  2  0  0  0
 10 15  1  0  0  0
 11 12  1  0  0  0
 11 98  1  0  0  0
 12 13  2  0  0  0
 12 99  1  0  0  0
 13 14  1  0  0  0
 13 31  1  0  0  0
 14 15  2  0  0  0
 14100  1  0  0  0
 15101  1  0  0  0
 16 17  2  0  0  0
 16 21  1  0  0  0
 16 31  1  0  0  0
 17 18  1  0  0  0
 17102  1  0  0  0
 18 19  2  0  0  0
 18103  1  0  0  0
 19 20  1  0  0  0
 19 24  1  0  0  0
 20 21  2  0  0  0
 20104  1  0  0  0
 21 23  1  0  0  0
 22 28  1  0  0  0
 22 32  2  0  0  0
 26 27  1  0  0  0
 28105  1  0  0  0
 28106  1  0  0  0
 29107  1  0  0  0
 29108  1  0  0  0
 33 34  1  0  0  0
 33 66  1  0  0  0
 33 70  2  0  0  0
 34 36  1  0  0  0
 34 59  1  0  0  0
 34109  1  0  0  0
 35 44  2  0  0  0
 35 45  1  0  0  0
 35 68  1  0  0  0
 36 56  1  0  0  0
 36110  1  0  0  0
 37 39  1  0  0  0
 37 47  1  0  0  0
 37 66  1  0  0  0
 37111  1  0  0  0
 38 43  2  0  0  0
 38 46  1  0  0  0
 38 47  1  0  0  0
 39 64  1  0  0  0
 39 67  2  0  0  0
 40 52  1  0  0  0
 40 53  2  0  0  0
 40 58  1  0  0  0
 41112  1  0  0  0
 41113  1  0  0  0
 41114  1  0  0  0
 41 48  1  0  0  0
 42 43  1  0  0  0
 42 66  1  0  0  0
 42115  1  0  0  0
 42116  1  0  0  0
 43 44  1  0  0  0
 44117  1  0  0  0
 45 46  2  0  0  0
 45118  1  0  0  0
 46119  1  0  0  0
 47120  1  0  0  0
 47121  1  0  0  0
 48 56  1  0  0  0
 48 65  1  0  0  0
 48122  1  0  0  0
 49 50  1  0  0  0
 49 53  1  0  0  0
 49 64  1  0  0  0
 49123  1  0  0  0
 50 51  1  0  0  0
 50124  1  0  0  0
 50125  1  0  0  0
 51 52  1  0  0  0
 51126  1  0  0  0
 51127  1  0  0  0
 52128  1  0  0  0
 52129  1  0  0  0
 53 54  1  0  0  0
 54 55  2  0  0  0
 54130  1  0  0  0
 55 57  1  0  0  0
 55131  1  0  0  0
 56 69  2  0  0  0
 57 58  2  0  0  0
 57132  1  0  0  0
 58133  1  0  0  0
 59 60  1  0  0  0
 59 61  1  0  0  0
 59 62  1  0  0  0
 60134  1  0  0  0
 60135  1  0  0  0
 60136  1  0  0  0
 61137  1  0  0  0
 61138  1  0  0  0
 61139  1  0  0  0
 62140  1  0  0  0
 62141  1  0  0  0
 62142  1  0  0  0
 63 65  1  0  0  0
 63143  1  0  0  0
 63144  1  0  0  0
 63145  1  0  0  0
 64146  1  0  0  0
 65147  1  0  0  0
 68 85  1  0  0  0
 71 73  2  0  0  0
 71 74  1  0  0  0
 71148  1  0  0  0
 72 73  1  0  0  0
 72 76  2  0  0  0
 72149  1  0  0  0
 73 81  1  0  0  0
 74 75  2  0  0  0
 74 82  1  0  0  0
 75 76  1  0  0  0
 75 86  1  0  0  0
 76 88  1  0  0  0
 77 79  1  0  0  0
 77 81  1  0  0  0
 77150  1  0  0  0
 77151  1  0  0  0
 78 80  1  0  0  0
 78 81  1  0  0  0
 78152  1  0  0  0
 78153  1  0  0  0
 79 87  1  0  0  0
 79154  1  0  0  0
 79155  1  0  0  0
 80 87  1  0  0  0
 80156  1  0  0  0
 80157  1  0  0  0
 81158  1  0  0  0
 82159  1  0  0  0
 82160  1  0  0  0
 82161  1  0  0  0
 83162  1  0  0  0
 83163  1  0  0  0
 83164  1  0  0  0
 83 86  1  0  0  0
 84 88  1  0  0  0
 84165  1  0  0  0
 84166  1  0  0  0
 84167  1  0  0  0
 85 86  1  0  0  0
 85168  1  0  0  0
 85169  1  0  0  0
 86170  1  0  0  0
M  ISO  4   1 100  68 101  85 101  87 100
M  END
> <chiral flag>
0

> <version>
0

> <s_m_source_file>
/data/baiqing/PycharmProjects/Reinvent-master-3.2/result/LINK_invent/BTK/process_docking_weight1_custom_sum_contain_oxygen_bond_distance_aromatic_linkinvent_7_9_3/rearranged_h_0156.sdf

> <i_m_source_file_index>
95

> <r_mmod_Potential_Energy-OPLS-2005>
230.921585083008

> <r_mmod_Stretch_Energy-OPLS-2005>
55.3496131896973

> <r_mmod_Bend_Energy-OPLS-2005>
149.219131469727

> <r_mmod_Torsional_Energy-OPLS-2005>
312.620086669922

> <r_mmod_Improper_Torsional_Energy-OPLS-2005>
2.52121734619141

> <r_mmod_Van_der_Waal_Energy-OPLS-2005>
172.252090454102

> <r_mmod_Electrostatic_Energy-OPLS-2005>
-297.203430175781

> <r_mmod_Solvation_Energy-OPLS-2005>
-195.680923461914

> <b_mmod_Minimization_Converged-OPLS-2005>
0

> <r_mmod_RMS_Derivative-OPLS-2005>
4.98083448410034

$$$$
95
                    3D
 Structure written by MMmdl.
171180  0  0  1  0            999 V2000
  -30.7408  -14.6086   20.5193 C   0  0  0  0  0  0
  -30.4083  -12.3955   19.4597 C   0  0  0  0  0  0
  -29.4924  -12.4983   18.2260 C   0  0  0  0  0  0
  -28.0186  -12.3471   18.6449 C   0  0  0  0  0  0
  -27.6420  -13.2370   19.8609 C   0  0  2  0  0  0
  -28.6923  -13.1513   20.9911 C   0  0  0  0  0  0
  -25.2493  -13.8208   20.5755 C   0  0  0  0  0  0
  -24.1785  -13.0418   20.9240 C   0  0  0  0  0  0
  -24.6402  -11.6919   20.8781 C   0  0  0  0  0  0
  -23.9087  -10.4281   21.0417 C   0  0  0  0  0  0
  -24.3634   -9.4180   21.9174 C   0  0  0  0  0  0
  -23.6295   -8.2226   22.0750 C   0  0  0  0  0  0
  -22.4268   -8.0279   21.3554 C   0  0  0  0  0  0
  -21.9927   -9.0244   20.4642 C   0  0  0  0  0  0
  -22.7275  -10.2125   20.3047 C   0  0  0  0  0  0
  -21.6850   -6.0734   22.5276 C   0  0  0  0  0  0
  -21.4026   -6.5638   23.8212 C   0  0  0  0  0  0
  -21.3662   -5.6790   24.9171 C   0  0  0  0  0  0
  -21.6033   -4.3047   24.7218 C   0  0  0  0  0  0
  -21.8827   -3.8146   23.4342 C   0  0  0  0  0  0
  -21.9196   -4.6967   22.3398 C   0  0  0  0  0  0
  -22.7817  -13.5190   21.1878 C   0  0  0  0  0  0
  -22.1646   -4.2155   21.0970 F   0  0  0  0  0  0
  -21.5627   -3.4528   25.7729 F   0  0  0  0  0  0
  -29.9975  -13.4624   20.3992 N   0  0  0  0  0  0
  -26.2948  -12.9447   20.3390 N   0  0  0  0  0  0
  -25.9342  -11.6576   20.5847 N   0  0  0  0  0  0
  -22.0469  -12.8160   22.0440 N   0  0  0  0  0  0
  -25.4092  -15.1936   20.4196 N   0  0  0  0  0  0
  -31.9240  -14.6129   20.1798 O   0  0  0  0  0  0
  -21.6625   -6.8881   21.4247 O   0  0  0  0  0  0
  -22.3478  -14.5477   20.6746 O   0  0  0  0  0  0
  -24.6242  -31.8628   23.2072 C   0  0  0  0  0  0
  -25.9096  -32.4783   23.8383 C   0  0  1  0  0  0
  -27.1967  -27.3041   20.1354 C   0  0  0  0  0  0
  -25.5925  -33.8587   24.2296 N   0  0  0  0  0  0
  -23.4160  -30.4950   21.5478 C   0  0  2  0  0  0
  -24.8623  -28.9630   20.1066 C   0  0  0  0  0  0
  -22.7455  -29.4654   22.4894 C   0  0  0  0  0  0
  -18.0274  -28.1357   22.8487 C   0  0  0  0  0  0
  -24.1500  -36.7291   23.2629 C   0  0  0  0  0  0
  -25.9637  -30.7941   21.3833 C   0  0  0  0  0  0
  -26.0356  -29.4248   20.7185 C   0  0  0  0  0  0
  -27.2080  -28.6076   20.7251 C   0  0  0  0  0  0
  -26.0043  -26.9197   19.4715 C   0  0  0  0  0  0
  -24.8513  -27.7194   19.4688 C   0  0  0  0  0  0
  -23.6303  -29.8415   20.1599 C   0  0  0  0  0  0
  -25.4116  -36.3080   24.0335 C   0  0  1  0  0  0
  -20.5878  -28.3677   23.1275 C   0  0  2  0  0  0
  -20.6765  -26.9389   22.5415 C   0  0  0  0  0  0
  -19.5743  -26.6363   21.5206 C   0  0  0  0  0  0
  -18.1918  -26.7905   22.1614 C   0  0  0  0  0  0
  -19.1533  -28.8834   23.2879 C   0  0  0  0  0  0
  -18.9456  -30.1431   23.8889 C   0  0  0  0  0  0
  -17.6453  -30.6569   24.0554 C   0  0  0  0  0  0
  -25.9063  -34.9456   23.5115 C   0  0  0  0  0  0
  -16.5346  -29.9077   23.6319 C   0  0  0  0  0  0
  -16.7266  -28.6484   23.0352 C   0  0  0  0  0  0
  -26.4477  -31.6582   25.0744 C   0  0  0  0  0  0
  -25.3725  -31.3750   26.1492 C   0  0  0  0  0  0
  -27.0308  -30.2977   24.6243 C   0  0  0  0  0  0
  -27.6051  -32.4319   25.7497 C   0  0  0  0  0  0
  -27.5621  -37.1757   24.8424 C   0  0  0  0  0  0
  -21.4166  -29.3046   22.3662 N   0  0  0  0  0  0
  -26.4266  -37.3805   23.9471 N   0  0  0  0  0  0
  -24.6861  -31.0678   22.1005 N   0  0  0  0  0  0
  -23.4203  -28.8163   23.2931 O   0  0  0  0  0  0
  -28.2652  -26.3914   20.2419 O   0  0  0  0  0  0
  -26.5636  -34.8924   22.4679 O   0  0  0  0  0  0
  -23.5405  -32.1413   23.7411 O   0  0  0  0  0  0
  -29.0437  -21.2019   23.1868 C   0  0  0  0  0  0
  -29.8341  -19.4198   24.6164 C   0  0  0  0  0  0
  -29.4724  -18.9675   22.2193 C   0  0  0  0  0  0
  -29.0352  -20.3559   22.0468 C   0  0  0  0  0  0
  -29.4394  -20.7518   24.4651 C   0  0  0  0  0  0
  -29.8548  -18.5286   23.5224 C   0  0  0  0  0  0
  -30.9091  -17.1204   20.8319 C   0  0  0  0  0  0
  -28.9128  -16.4507   21.2010 C   0  0  0  0  0  0
  -29.5854  -17.8627   21.1046 C   0  0  0  0  0  0
  -27.2858  -20.1601   20.2402 C   0  0  0  0  0  0
  -29.0366  -22.8804   25.5122 C   0  0  0  0  0  0
  -30.5248  -16.7055   24.9793 C   0  0  0  0  0  0
  -28.7930  -23.7063   20.6410 C   0  0  0  0  0  0
  -27.8632  -24.9559   20.2822 C   0  0  0  0  0  0
  -28.5010  -20.9942   20.7127 C   0  0  1  0  0  0
  -30.1763  -15.8403   20.7496 N   0  0  0  0  0  0
  -27.9708  -22.4267   20.7337 N   0  3  0  0  0  0
  -29.4658  -21.5291   25.6038 O   0  0  0  0  0  0
  -30.2459  -17.2132   23.6797 O   0  0  0  0  0  0
  -31.4510  -12.4726   19.1486 H   0  0  0  0  0  0
  -30.3149  -11.4189   19.9373 H   0  0  0  0  0  0
  -29.7525  -11.7310   17.4964 H   0  0  0  0  0  0
  -29.6422  -13.4601   17.7323 H   0  0  0  0  0  0
  -27.8591  -11.2970   18.8940 H   0  0  0  0  0  0
  -27.3620  -12.5670   17.8036 H   0  0  0  0  0  0
  -27.6432  -14.2630   19.4940 H   0  0  0  0  0  0
  -28.7053  -12.1534   21.4315 H   0  0  0  0  0  0
  -28.4512  -13.8342   21.8050 H   0  0  0  0  0  0
  -25.2792   -9.5628   22.4745 H   0  0  0  0  0  0
  -23.9996   -7.4612   22.7469 H   0  0  0  0  0  0
  -21.0868   -8.8774   19.8928 H   0  0  0  0  0  0
  -22.3741  -10.9662   19.6156 H   0  0  0  0  0  0
  -21.2031   -7.6151   23.9709 H   0  0  0  0  0  0
  -21.1463   -6.0521   25.9073 H   0  0  0  0  0  0
  -22.0609   -2.7611   23.2833 H   0  0  0  0  0  0
  -22.4111  -11.9827   22.4792 H   0  0  0  0  0  0
  -21.1101  -13.1175   22.2678 H   0  0  0  0  0  0
  -24.6354  -15.8370   20.5421 H   0  0  0  0  0  0
  -26.2507  -15.6441   20.0912 H   0  0  0  0  0  0
  -26.7164  -32.5468   23.1139 H   0  0  0  0  0  0
  -25.0036  -33.9742   25.0417 H   0  0  0  0  0  0
  -22.7086  -31.3158   21.4097 H   0  0  0  0  0  0
  -23.3824  -35.9542   23.3102 H   0  0  0  0  0  0
  -24.3639  -36.9110   22.2082 H   0  0  0  0  0  0
  -23.7155  -37.6393   23.6777 H   0  0  0  0  0  0
  -26.1117  -31.5674   20.6274 H   0  0  0  0  0  0
  -26.8371  -30.8264   22.0224 H   0  0  0  0  0  0
  -28.1007  -28.9473   21.2320 H   0  0  0  0  0  0
  -25.9102  -25.9785   18.9558 H   0  0  0  0  0  0
  -23.9533  -27.3727   18.9771 H   0  0  0  0  0  0
  -23.7480  -30.6209   19.4067 H   0  0  0  0  0  0
  -22.7481  -29.2748   19.8543 H   0  0  0  0  0  0
  -25.1270  -36.1897   25.0817 H   0  0  0  0  0  0
  -20.9983  -28.3260   24.1394 H   0  0  0  0  0  0
  -20.5635  -26.2278   23.3610 H   0  0  0  0  0  0
  -21.6641  -26.7391   22.1242 H   0  0  0  0  0  0
  -19.6911  -25.6284   21.1221 H   0  0  0  0  0  0
  -19.6681  -27.3174   20.6742 H   0  0  0  0  0  0
  -17.4187  -26.6638   21.4015 H   0  0  0  0  0  0
  -18.0311  -26.0036   22.9001 H   0  0  0  0  0  0
  -19.7935  -30.7233   24.2261 H   0  0  0  0  0  0
  -17.5021  -31.6256   24.5169 H   0  0  0  0  0  0
  -15.5347  -30.2985   23.7658 H   0  0  0  0  0  0
  -15.8657  -28.0816   22.7078 H   0  0  0  0  0  0
  -24.5864  -30.7123   25.7855 H   0  0  0  0  0  0
  -24.8959  -32.2926   26.4942 H   0  0  0  0  0  0
  -25.8059  -30.8920   27.0254 H   0  0  0  0  0  0
  -26.2885  -29.6717   24.1272 H   0  0  0  0  0  0
  -27.3951  -29.7258   25.4790 H   0  0  0  0  0  0
  -27.8786  -30.4203   23.9504 H   0  0  0  0  0  0
  -27.2678  -33.3668   26.1986 H   0  0  0  0  0  0
  -28.3893  -32.6785   25.0328 H   0  0  0  0  0  0
  -28.0649  -31.8477   26.5479 H   0  0  0  0  0  0
  -28.2463  -38.0228   24.7753 H   0  0  0  0  0  0
  -28.1306  -36.2790   24.5895 H   0  0  0  0  0  0
  -27.2387  -37.0968   25.8819 H   0  0  0  0  0  0
  -20.9302  -29.8813   21.6938 H   0  0  0  0  0  0
  -26.0125  -38.2827   24.1661 H   0  0  0  0  0  0
  -28.7331  -22.2271   23.0872 H   0  0  0  0  0  0
  -30.1256  -19.1066   25.6083 H   0  0  0  0  0  0
  -31.6255  -17.1545   21.6506 H   0  0  0  0  0  0
  -31.3902  -17.4241   19.9008 H   0  0  0  0  0  0
  -28.0826  -16.3401   20.5053 H   0  0  0  0  0  0
  -28.6165  -16.1571   22.2067 H   0  0  0  0  0  0
  -29.3425  -18.3198   20.1464 H   0  0  0  0  0  0
  -27.4259  -19.0864   20.2855 H   0  0  0  0  0  0
  -27.0088  -20.3905   19.2106 H   0  0  0  0  0  0
  -26.4142  -20.3489   20.8683 H   0  0  0  0  0  0
  -29.1287  -23.3567   26.4889 H   0  0  0  0  0  0
  -27.9893  -22.9413   25.2123 H   0  0  0  0  0  0
  -29.6543  -23.4437   24.8110 H   0  0  0  0  0  0
  -30.7564  -15.6428   24.9013 H   0  0  0  0  0  0
  -29.6657  -16.8040   25.6447 H   0  0  0  0  0  0
  -31.3905  -17.1950   25.4275 H   0  0  0  0  0  0
  -29.3312  -23.8710   21.5758 H   0  0  0  0  0  0
  -29.5460  -23.5875   19.8633 H   0  0  0  0  0  0
  -27.0064  -24.8918   20.9595 H   0  0  0  0  0  0
  -27.4971  -24.7088   19.2857 H   0  0  0  0  0  0
  -29.2944  -20.9243   19.9665 H   0  0  0  0  0  0
  -27.4213  -22.4453   19.8887 H   0  0  0  0  0  0
  -27.3064  -22.5097   21.4873 H   0  0  0  0  0  0
  1 25  1  0  0  0
  1 30  2  0  0  0
  1 86  1  0  0  0
  2  3  1  0  0  0
  2 25  1  0  0  0
  2 90  1  0  0  0
  2 91  1  0  0  0
  3  4  1  0  0  0
  3 92  1  0  0  0
  3 93  1  0  0  0
  4  5  1  0  0  0
  4 94  1  0  0  0
  4 95  1  0  0  0
  5  6  1  0  0  0
  5 26  1  0  0  0
  5 96  1  0  0  0
  6 25  1  0  0  0
  6 97  1  0  0  0
  6 98  1  0  0  0
  7  8  2  0  0  0
  7 26  1  0  0  0
  7 29  1  0  0  0
  8  9  1  0  0  0
  8 22  1  0  0  0
  9 10  1  0  0  0
  9 27  2  0  0  0
 10 11  2  0  0  0
 10 15  1  0  0  0
 11 12  1  0  0  0
 11 99  1  0  0  0
 12 13  2  0  0  0
 12100  1  0  0  0
 13 14  1  0  0  0
 13 31  1  0  0  0
 14 15  2  0  0  0
 14101  1  0  0  0
 15102  1  0  0  0
 16 17  2  0  0  0
 16 21  1  0  0  0
 16 31  1  0  0  0
 17 18  1  0  0  0
 17103  1  0  0  0
 18 19  2  0  0  0
 18104  1  0  0  0
 19 20  1  0  0  0
 19 24  1  0  0  0
 20 21  2  0  0  0
 20105  1  0  0  0
 21 23  1  0  0  0
 22 28  1  0  0  0
 22 32  2  0  0  0
 26 27  1  0  0  0
 28106  1  0  0  0
 28107  1  0  0  0
 29108  1  0  0  0
 29109  1  0  0  0
 33 34  1  0  0  0
 33 66  1  0  0  0
 33 70  2  0  0  0
 34 36  1  0  0  0
 34 59  1  0  0  0
 34110  1  0  0  0
 35 44  2  0  0  0
 35 45  1  0  0  0
 35 68  1  0  0  0
 36 56  1  0  0  0
 36111  1  0  0  0
 37 39  1  0  0  0
 37 47  1  0  0  0
 37 66  1  0  0  0
 37112  1  0  0  0
 38 43  2  0  0  0
 38 46  1  0  0  0
 38 47  1  0  0  0
 39 64  1  0  0  0
 39 67  2  0  0  0
 40 52  1  0  0  0
 40 53  2  0  0  0
 40 58  1  0  0  0
 41113  1  0  0  0
 41114  1  0  0  0
 41115  1  0  0  0
 41 48  1  0  0  0
 42 43  1  0  0  0
 42 66  1  0  0  0
 42116  1  0  0  0
 42117  1  0  0  0
 43 44  1  0  0  0
 44118  1  0  0  0
 45 46  2  0  0  0
 45119  1  0  0  0
 46120  1  0  0  0
 47121  1  0  0  0
 47122  1  0  0  0
 48 56  1  0  0  0
 48 65  1  0  0  0
 48123  1  0  0  0
 49 50  1  0  0  0
 49 53  1  0  0  0
 49 64  1  0  0  0
 49124  1  0  0  0
 50 51  1  0  0  0
 50125  1  0  0  0
 50126  1  0  0  0
 51 52  1  0  0  0
 51127  1  0  0  0
 51128  1  0  0  0
 52129  1  0  0  0
 52130  1  0  0  0
 53 54  1  0  0  0
 54 55  2  0  0  0
 54131  1  0  0  0
 55 57  1  0  0  0
 55132  1  0  0  0
 56 69  2  0  0  0
 57 58  2  0  0  0
 57133  1  0  0  0
 58134  1  0  0  0
 59 60  1  0  0  0
 59 61  1  0  0  0
 59 62  1  0  0  0
 60135  1  0  0  0
 60136  1  0  0  0
 60137  1  0  0  0
 61138  1  0  0  0
 61139  1  0  0  0
 61140  1  0  0  0
 62141  1  0  0  0
 62142  1  0  0  0
 62143  1  0  0  0
 63 65  1  0  0  0
 63144  1  0  0  0
 63145  1  0  0  0
 63146  1  0  0  0
 64147  1  0  0  0
 65148  1  0  0  0
 68 84  1  0  0  0
 71 74  2  0  0  0
 71 75  1  0  0  0
 71149  1  0  0  0
 72 75  2  0  0  0
 72 76  1  0  0  0
 72150  1  0  0  0
 73 74  1  0  0  0
 73 76  2  0  0  0
 73 79  1  0  0  0
 74 85  1  0  0  0
 75 88  1  0  0  0
 76 89  1  0  0  0
 77 79  1  0  0  0
 77 86  1  0  0  0
 77151  1  0  0  0
 77152  1  0  0  0
 78 79  1  0  0  0
 78 86  1  0  0  0
 78153  1  0  0  0
 78154  1  0  0  0
 79155  1  0  0  0
 80156  1  0  0  0
 80157  1  0  0  0
 80158  1  0  0  0
 80 85  1  0  0  0
 81 88  1  0  0  0
 81159  1  0  0  0
 81160  1  0  0  0
 81161  1  0  0  0
 82 89  1  0  0  0
 82162  1  0  0  0
 82163  1  0  0  0
 82164  1  0  0  0
 83 84  1  0  0  0
 83 87  1  0  0  0
 83165  1  0  0  0
 83166  1  0  0  0
 84167  1  0  0  0
 84168  1  0  0  0
 85 87  1  0  0  0
 85169  1  0  0  0
 87170  1  0  0  0
 87171  1  0  0  0
M  CHG  1  87   1
M  ISO  4   1 100  68 101  84 101  86 100
M  END
> <chiral flag>
0

> <version>
0

> <s_m_source_file>
/data/baiqing/PycharmProjects/Reinvent-master-3.2/result/LINK_invent/BTK/process_docking_weight1_custom_sum_contain_oxygen_bond_distance_aromatic_linkinvent_7_9_3/rearranged_h_0156.sdf

> <i_m_source_file_index>
96

> <r_mmod_Potential_Energy-OPLS-2005>
101.973999023438

> <r_mmod_Stretch_Energy-OPLS-2005>
92.503303527832

> <r_mmod_Bend_Energy-OPLS-2005>
234.527435302734

> <r_mmod_Torsional_Energy-OPLS-2005>
275.717987060547

> <r_mmod_Improper_Torsional_Energy-OPLS-2005>
6.45614004135132

> <r_mmod_Van_der_Waal_Energy-OPLS-2005>
168.186187744141

> <r_mmod_Electrostatic_Energy-OPLS-2005>
-263.957122802734

> <r_mmod_Solvation_Energy-OPLS-2005>
-473.982513427734

> <b_mmod_Minimization_Converged-OPLS-2005>
0

> <r_mmod_RMS_Derivative-OPLS-2005>
3.24209451675415

$$$$
96
                    3D
 Structure written by MMmdl.
161169  0  0  1  0            999 V2000
  -30.5936  -14.7603   20.4645 C   0  0  0  0  0  0
  -30.4313  -12.4673   19.4764 C   0  0  0  0  0  0
  -29.5074  -12.5142   18.2384 C   0  0  0  0  0  0
  -28.0351  -12.3305   18.6529 C   0  0  0  0  0  0
  -27.6402  -13.2288   19.8551 C   0  0  2  0  0  0
  -28.6832  -13.1648   20.9922 C   0  0  0  0  0  0
  -25.2498  -13.8176   20.5688 C   0  0  0  0  0  0
  -24.1796  -13.0428   20.9197 C   0  0  0  0  0  0
  -24.6378  -11.6903   20.8734 C   0  0  0  0  0  0
  -23.9057  -10.4287   21.0401 C   0  0  0  0  0  0
  -24.3618   -9.4205   21.9176 C   0  0  0  0  0  0
  -23.6300   -8.2241   22.0750 C   0  0  0  0  0  0
  -22.4282   -8.0272   21.3540 C   0  0  0  0  0  0
  -21.9913   -9.0240   20.4640 C   0  0  0  0  0  0
  -22.7231  -10.2124   20.3048 C   0  0  0  0  0  0
  -21.6861   -6.0728   22.5272 C   0  0  0  0  0  0
  -21.4019   -6.5634   23.8205 C   0  0  0  0  0  0
  -21.3661   -5.6789   24.9167 C   0  0  0  0  0  0
  -21.6046   -4.3053   24.7221 C   0  0  0  0  0  0
  -21.8819   -3.8139   23.4346 C   0  0  0  0  0  0
  -21.9195   -4.6953   22.3399 C   0  0  0  0  0  0
  -22.7818  -13.5206   21.1859 C   0  0  0  0  0  0
  -22.1663   -4.2138   21.0978 F   0  0  0  0  0  0
  -21.5630   -3.4541   25.7737 F   0  0  0  0  0  0
  -29.9810  -13.5266   20.4107 N   0  0  0  0  0  0
  -26.2924  -12.9380   20.3302 N   0  0  0  0  0  0
  -25.9312  -11.6524   20.5764 N   0  0  0  0  0  0
  -22.0494  -12.8190   22.0425 N   0  0  0  0  0  0
  -25.4178  -15.1910   20.4104 N   0  0  0  0  0  0
  -31.7788  -14.8676   20.1388 O   0  0  0  0  0  0
  -21.6644   -6.8872   21.4233 O   0  0  0  0  0  0
  -22.3498  -14.5523   20.6720 O   0  0  0  0  0  0
  -24.6289  -31.8560   23.2002 C   0  0  0  0  0  0
  -25.9130  -32.4745   23.8325 C   0  0  1  0  0  0
  -27.2080  -27.2568   20.1475 C   0  0  0  0  0  0
  -25.5950  -33.8553   24.2237 N   0  0  0  0  0  0
  -23.4240  -30.4784   21.5439 C   0  0  2  0  0  0
  -24.8701  -28.9184   20.1201 C   0  0  0  0  0  0
  -22.7482  -29.4602   22.4936 C   0  0  0  0  0  0
  -18.0285  -28.1382   22.8494 C   0  0  0  0  0  0
  -24.1492  -36.7267   23.2635 C   0  0  0  0  0  0
  -25.9688  -30.7646   21.3824 C   0  0  0  0  0  0
  -26.0402  -29.3825   20.7365 C   0  0  0  0  0  0
  -27.2149  -28.5628   20.7431 C   0  0  0  0  0  0
  -26.0301  -26.8704   19.4817 C   0  0  0  0  0  0
  -24.8677  -27.6662   19.4865 C   0  0  0  0  0  0
  -23.6419  -29.8079   20.1623 C   0  0  0  0  0  0
  -25.4124  -36.3050   24.0309 C   0  0  1  0  0  0
  -20.5894  -28.3687   23.1285 C   0  0  2  0  0  0
  -20.6776  -26.9402   22.5417 C   0  0  0  0  0  0
  -19.5744  -26.6367   21.5226 C   0  0  0  0  0  0
  -18.1925  -26.7932   22.1630 C   0  0  0  0  0  0
  -19.1544  -28.8850   23.2883 C   0  0  0  0  0  0
  -18.9463  -30.1463   23.8880 C   0  0  0  0  0  0
  -17.6463  -30.6587   24.0559 C   0  0  0  0  0  0
  -25.9063  -34.9430   23.5071 C   0  0  0  0  0  0
  -16.5355  -29.9072   23.6349 C   0  0  0  0  0  0
  -16.7279  -28.6493   23.0370 C   0  0  0  0  0  0
  -26.4502  -31.6583   25.0718 C   0  0  0  0  0  0
  -25.3698  -31.3764   26.1415 C   0  0  0  0  0  0
  -27.0365  -30.2997   24.6228 C   0  0  0  0  0  0
  -27.6031  -32.4347   25.7511 C   0  0  0  0  0  0
  -27.5573  -37.1783   24.8466 C   0  0  0  0  0  0
  -21.4194  -29.3039   22.3673 N   0  0  0  0  0  0
  -26.4289  -37.3751   23.9404 N   0  0  0  0  0  0
  -24.6927  -31.0527   22.0977 N   0  0  0  0  0  0
  -23.4188  -28.8124   23.3013 O   0  0  0  0  0  0
  -28.3093  -26.3844   20.0578 O   0  0  0  0  0  0
  -26.5628  -34.8906   22.4631 O   0  0  0  0  0  0
  -23.5447  -32.1387   23.7298 O   0  0  0  0  0  0
  -28.0378  -23.7083   20.7345 C   0  0  0  0  0  0
  -28.4423  -21.1573   20.5582 C   0  0  0  0  0  0
  -28.9125  -22.5477   20.5694 C   0  0  0  0  0  0
  -26.6805  -23.3697   20.9455 C   0  0  0  0  0  0
  -27.0236  -21.0535   20.6604 C   0  0  0  0  0  0
  -25.6158  -24.3613   21.3859 C   0  0  0  0  0  0
  -26.2440  -19.7559   20.5267 C   0  0  0  0  0  0
  -30.9869  -22.6267   21.6377 C   0  0  0  0  0  0
  -28.5389  -25.2184   20.9721 C   0  0  0  0  0  0
  -29.0277  -18.5146   20.6580 C   0  0  0  0  0  0
  -30.1768  -17.3757   20.4921 C   0  0  0  0  0  0
  -26.2083  -22.1108   20.8587 N   0  0  0  0  0  0
  -29.3348  -19.9965   20.4405 N   0  0  0  0  0  0
  -29.8138  -15.8934   20.6734 N   0  0  0  0  0  0
  -30.2580  -22.7727   20.4282 O   0  0  0  0  0  0
  -31.4711  -12.5998   19.1713 H   0  0  0  0  0  0
  -30.3808  -11.4886   19.9563 H   0  0  0  0  0  0
  -29.7924  -11.7430   17.5209 H   0  0  0  0  0  0
  -29.6259  -13.4700   17.7248 H   0  0  0  0  0  0
  -27.8954  -11.2806   18.9148 H   0  0  0  0  0  0
  -27.3747  -12.5197   17.8058 H   0  0  0  0  0  0
  -27.6348  -14.2504   19.4755 H   0  0  0  0  0  0
  -28.7253  -12.1663   21.4304 H   0  0  0  0  0  0
  -28.4143  -13.8426   21.8049 H   0  0  0  0  0  0
  -25.2767   -9.5684   22.4736 H   0  0  0  0  0  0
  -24.0009   -7.4635   22.7474 H   0  0  0  0  0  0
  -21.0840   -8.8751   19.8948 H   0  0  0  0  0  0
  -22.3682  -10.9658   19.6152 H   0  0  0  0  0  0
  -21.2014   -7.6144   23.9700 H   0  0  0  0  0  0
  -21.1486   -6.0523   25.9064 H   0  0  0  0  0  0
  -22.0601   -2.7604   23.2847 H   0  0  0  0  0  0
  -22.4158  -11.9853   22.4780 H   0  0  0  0  0  0
  -21.1103  -13.1176   22.2664 H   0  0  0  0  0  0
  -24.6424  -15.8366   20.5100 H   0  0  0  0  0  0
  -26.2582  -15.6327   20.0629 H   0  0  0  0  0  0
  -26.7185  -32.5391   23.1053 H   0  0  0  0  0  0
  -25.0144  -33.9700   25.0416 H   0  0  0  0  0  0
  -22.7187  -31.2997   21.3972 H   0  0  0  0  0  0
  -23.3754  -35.9599   23.3295 H   0  0  0  0  0  0
  -24.3577  -36.8901   22.2048 H   0  0  0  0  0  0
  -23.7250  -37.6463   23.6681 H   0  0  0  0  0  0
  -26.1091  -31.5204   20.6083 H   0  0  0  0  0  0
  -26.8444  -30.8145   22.0172 H   0  0  0  0  0  0
  -28.1163  -28.9224   21.2184 H   0  0  0  0  0  0
  -26.0064  -25.9234   18.9625 H   0  0  0  0  0  0
  -23.9733  -27.3097   18.9934 H   0  0  0  0  0  0
  -23.7622  -30.5799   19.4020 H   0  0  0  0  0  0
  -22.7596  -29.2389   19.8653 H   0  0  0  0  0  0
  -25.1306  -36.1874   25.0798 H   0  0  0  0  0  0
  -20.9990  -28.3257   24.1407 H   0  0  0  0  0  0
  -20.5690  -26.2290   23.3614 H   0  0  0  0  0  0
  -21.6642  -26.7426   22.1200 H   0  0  0  0  0  0
  -19.6903  -25.6269   21.1267 H   0  0  0  0  0  0
  -19.6698  -27.3171   20.6750 H   0  0  0  0  0  0
  -17.4204  -26.6718   21.4012 H   0  0  0  0  0  0
  -18.0286  -26.0062   22.9009 H   0  0  0  0  0  0
  -19.7947  -30.7290   24.2227 H   0  0  0  0  0  0
  -17.5023  -31.6273   24.5147 H   0  0  0  0  0  0
  -15.5360  -30.2960   23.7691 H   0  0  0  0  0  0
  -15.8688  -28.0804   22.7096 H   0  0  0  0  0  0
  -24.5902  -30.7078   25.7753 H   0  0  0  0  0  0
  -24.8844  -32.2940   26.4744 H   0  0  0  0  0  0
  -25.7968  -30.9024   27.0252 H   0  0  0  0  0  0
  -26.2964  -29.6715   24.1263 H   0  0  0  0  0  0
  -27.4052  -29.7295   25.4763 H   0  0  0  0  0  0
  -27.8830  -30.4266   23.9476 H   0  0  0  0  0  0
  -27.2636  -33.3687   26.1999 H   0  0  0  0  0  0
  -28.3900  -32.6842   25.0383 H   0  0  0  0  0  0
  -28.0627  -31.8528   26.5504 H   0  0  0  0  0  0
  -28.2575  -38.0092   24.7520 H   0  0  0  0  0  0
  -28.1083  -36.2621   24.6294 H   0  0  0  0  0  0
  -27.2286  -37.1423   25.8865 H   0  0  0  0  0  0
  -20.9358  -29.8785   21.6918 H   0  0  0  0  0  0
  -26.0154  -38.2812   24.1430 H   0  0  0  0  0  0
  -24.9478  -24.5972   20.5587 H   0  0  0  0  0  0
  -26.0248  -25.2862   21.7829 H   0  0  0  0  0  0
  -25.0059  -23.9340   22.1832 H   0  0  0  0  0  0
  -26.5291  -19.0290   21.2839 H   0  0  0  0  0  0
  -26.3870  -19.3324   19.5321 H   0  0  0  0  0  0
  -25.1722  -19.9190   20.6474 H   0  0  0  0  0  0
  -32.0106  -22.9723   21.4891 H   0  0  0  0  0  0
  -31.0272  -21.5852   21.9549 H   0  0  0  0  0  0
  -30.5494  -23.2164   22.4438 H   0  0  0  0  0  0
  -29.6241  -25.1597   21.0325 H   0  0  0  0  0  0
  -28.2440  -25.5190   21.9782 H   0  0  0  0  0  0
  -28.6159  -18.4113   21.6622 H   0  0  0  0  0  0
  -28.2425  -18.2378   19.9591 H   0  0  0  0  0  0
  -30.9927  -17.5955   21.1825 H   0  0  0  0  0  0
  -30.6029  -17.4734   19.4930 H   0  0  0  0  0  0
  -30.3173  -20.2238   20.3014 H   0  0  0  0  0  0
  -28.8520  -15.7079   20.9147 H   0  0  0  0  0  0
  1 25  1  0  0  0
  1 30  2  0  0  0
  1 84  1  0  0  0
  2  3  1  0  0  0
  2 25  1  0  0  0
  2 86  1  0  0  0
  2 87  1  0  0  0
  3  4  1  0  0  0
  3 88  1  0  0  0
  3 89  1  0  0  0
  4  5  1  0  0  0
  4 90  1  0  0  0
  4 91  1  0  0  0
  5  6  1  0  0  0
  5 26  1  0  0  0
  5 92  1  0  0  0
  6 25  1  0  0  0
  6 93  1  0  0  0
  6 94  1  0  0  0
  7  8  2  0  0  0
  7 26  1  0  0  0
  7 29  1  0  0  0
  8  9  1  0  0  0
  8 22  1  0  0  0
  9 10  1  0  0  0
  9 27  2  0  0  0
 10 11  2  0  0  0
 10 15  1  0  0  0
 11 12  1  0  0  0
 11 95  1  0  0  0
 12 13  2  0  0  0
 12 96  1  0  0  0
 13 14  1  0  0  0
 13 31  1  0  0  0
 14 15  2  0  0  0
 14 97  1  0  0  0
 15 98  1  0  0  0
 16 17  2  0  0  0
 16 21  1  0  0  0
 16 31  1  0  0  0
 17 18  1  0  0  0
 17 99  1  0  0  0
 18 19  2  0  0  0
 18100  1  0  0  0
 19 20  1  0  0  0
 19 24  1  0  0  0
 20 21  2  0  0  0
 20101  1  0  0  0
 21 23  1  0  0  0
 22 28  1  0  0  0
 22 32  2  0  0  0
 26 27  1  0  0  0
 28102  1  0  0  0
 28103  1  0  0  0
 29104  1  0  0  0
 29105  1  0  0  0
 33 34  1  0  0  0
 33 66  1  0  0  0
 33 70  2  0  0  0
 34 36  1  0  0  0
 34 59  1  0  0  0
 34106  1  0  0  0
 35 44  2  0  0  0
 35 45  1  0  0  0
 35 68  1  0  0  0
 36 56  1  0  0  0
 36107  1  0  0  0
 37 39  1  0  0  0
 37 47  1  0  0  0
 37 66  1  0  0  0
 37108  1  0  0  0
 38 43  2  0  0  0
 38 46  1  0  0  0
 38 47  1  0  0  0
 39 64  1  0  0  0
 39 67  2  0  0  0
 40 52  1  0  0  0
 40 53  2  0  0  0
 40 58  1  0  0  0
 41109  1  0  0  0
 41110  1  0  0  0
 41111  1  0  0  0
 41 48  1  0  0  0
 42 43  1  0  0  0
 42 66  1  0  0  0
 42112  1  0  0  0
 42113  1  0  0  0
 43 44  1  0  0  0
 44114  1  0  0  0
 45 46  2  0  0  0
 45115  1  0  0  0
 46116  1  0  0  0
 47117  1  0  0  0
 47118  1  0  0  0
 48 56  1  0  0  0
 48 65  1  0  0  0
 48119  1  0  0  0
 49 50  1  0  0  0
 49 53  1  0  0  0
 49 64  1  0  0  0
 49120  1  0  0  0
 50 51  1  0  0  0
 50121  1  0  0  0
 50122  1  0  0  0
 51 52  1  0  0  0
 51123  1  0  0  0
 51124  1  0  0  0
 52125  1  0  0  0
 52126  1  0  0  0
 53 54  1  0  0  0
 54 55  2  0  0  0
 54127  1  0  0  0
 55 57  1  0  0  0
 55128  1  0  0  0
 56 69  2  0  0  0
 57 58  2  0  0  0
 57129  1  0  0  0
 58130  1  0  0  0
 59 60  1  0  0  0
 59 61  1  0  0  0
 59 62  1  0  0  0
 60131  1  0  0  0
 60132  1  0  0  0
 60133  1  0  0  0
 61134  1  0  0  0
 61135  1  0  0  0
 61136  1  0  0  0
 62137  1  0  0  0
 62138  1  0  0  0
 62139  1  0  0  0
 63 65  1  0  0  0
 63140  1  0  0  0
 63141  1  0  0  0
 63142  1  0  0  0
 64143  1  0  0  0
 65144  1  0  0  0
 68 79  1  0  0  0
 71 73  2  0  0  0
 71 74  1  0  0  0
 71 79  1  0  0  0
 72 73  1  0  0  0
 72 75  2  0  0  0
 72 83  1  0  0  0
 73 85  1  0  0  0
 74 76  1  0  0  0
 74 82  2  0  0  0
 75 77  1  0  0  0
 75 82  1  0  0  0
 76145  1  0  0  0
 76146  1  0  0  0
 76147  1  0  0  0
 77148  1  0  0  0
 77149  1  0  0  0
 77150  1  0  0  0
 78 85  1  0  0  0
 78151  1  0  0  0
 78152  1  0  0  0
 78153  1  0  0  0
 79154  1  0  0  0
 79155  1  0  0  0
 80 81  1  0  0  0
 80 83  1  0  0  0
 80156  1  0  0  0
 80157  1  0  0  0
 81 84  1  0  0  0
 81158  1  0  0  0
 81159  1  0  0  0
 83160  1  0  0  0
 84161  1  0  0  0
M  ISO  4   1 100  68 101  79 101  84 100
M  END
> <chiral flag>
0

> <version>
0

> <s_m_source_file>
/data/baiqing/PycharmProjects/Reinvent-master-3.2/result/LINK_invent/BTK/process_docking_weight1_custom_sum_contain_oxygen_bond_distance_aromatic_linkinvent_7_9_3/rearranged_h_0156.sdf

> <i_m_source_file_index>
97

> <r_mmod_Potential_Energy-OPLS-2005>
68.1672286987305

> <r_mmod_Stretch_Energy-OPLS-2005>
134.076904296875

> <r_mmod_Bend_Energy-OPLS-2005>
206.625595092773

> <r_mmod_Torsional_Energy-OPLS-2005>
264.207733154297

> <r_mmod_Improper_Torsional_Energy-OPLS-2005>
7.30529975891113

> <r_mmod_Van_der_Waal_Energy-OPLS-2005>
139.812728881836

> <r_mmod_Electrostatic_Energy-OPLS-2005>
-536.278259277344

> <r_mmod_Solvation_Energy-OPLS-2005>
-233.096725463867

> <b_mmod_Minimization_Converged-OPLS-2005>
0

> <r_mmod_RMS_Derivative-OPLS-2005>
2.28161716461182

$$$$
97
                    3D
 Structure written by MMmdl.
165174  0  0  1  0            999 V2000
  -30.6680  -14.8071   20.4619 C   0  0  0  0  0  0
  -30.4080  -12.5131   19.4819 C   0  0  0  0  0  0
  -29.4924  -12.5086   18.2409 C   0  0  0  0  0  0
  -28.0282  -12.3112   18.6665 C   0  0  0  0  0  0
  -27.6235  -13.2366   19.8428 C   0  0  2  0  0  0
  -28.6741  -13.2524   20.9784 C   0  0  0  0  0  0
  -25.2410  -13.8204   20.5728 C   0  0  0  0  0  0
  -24.1730  -13.0435   20.9263 C   0  0  0  0  0  0
  -24.6342  -11.6925   20.8797 C   0  0  0  0  0  0
  -23.9036  -10.4291   21.0427 C   0  0  0  0  0  0
  -24.3597   -9.4201   21.9190 C   0  0  0  0  0  0
  -23.6286   -8.2231   22.0739 C   0  0  0  0  0  0
  -22.4268   -8.0273   21.3535 C   0  0  0  0  0  0
  -21.9905   -9.0241   20.4637 C   0  0  0  0  0  0
  -22.7219  -10.2129   20.3065 C   0  0  0  0  0  0
  -21.6841   -6.0741   22.5288 C   0  0  0  0  0  0
  -21.4003   -6.5643   23.8222 C   0  0  0  0  0  0
  -21.3648   -5.6789   24.9186 C   0  0  0  0  0  0
  -21.6036   -4.3055   24.7237 C   0  0  0  0  0  0
  -21.8812   -3.8157   23.4358 C   0  0  0  0  0  0
  -21.9187   -4.6970   22.3416 C   0  0  0  0  0  0
  -22.7750  -13.5215   21.1907 C   0  0  0  0  0  0
  -22.1650   -4.2157   21.0986 F   0  0  0  0  0  0
  -21.5629   -3.4529   25.7747 F   0  0  0  0  0  0
  -29.9567  -13.6206   20.3700 N   0  0  0  0  0  0
  -26.2839  -12.9419   20.3316 N   0  0  0  0  0  0
  -25.9271  -11.6560   20.5816 N   0  0  0  0  0  0
  -22.0372  -12.8217   22.0451 N   0  0  0  0  0  0
  -25.3996  -15.1935   20.4099 N   0  0  0  0  0  0
  -31.8737  -14.7460   20.1971 O   0  0  0  0  0  0
  -21.6632   -6.8876   21.4242 O   0  0  0  0  0  0
  -22.3446  -14.5513   20.6730 O   0  0  0  0  0  0
  -24.6320  -31.8523   23.1963 C   0  0  0  0  0  0
  -25.9136  -32.4745   23.8315 C   0  0  1  0  0  0
  -27.2235  -27.2432   20.1446 C   0  0  0  0  0  0
  -25.5931  -33.8550   24.2242 N   0  0  0  0  0  0
  -23.4302  -30.4716   21.5394 C   0  0  2  0  0  0
  -24.8776  -28.9057   20.1170 C   0  0  0  0  0  0
  -22.7501  -29.4585   22.4922 C   0  0  0  0  0  0
  -18.0286  -28.1392   22.8489 C   0  0  0  0  0  0
  -24.1487  -36.7276   23.2642 C   0  0  0  0  0  0
  -25.9736  -30.7604   21.3766 C   0  0  0  0  0  0
  -26.0472  -29.3765   20.7282 C   0  0  0  0  0  0
  -27.2210  -28.5573   20.7287 C   0  0  0  0  0  0
  -26.0336  -26.8358   19.5087 C   0  0  0  0  0  0
  -24.8755  -27.6434   19.4974 C   0  0  0  0  0  0
  -23.6501  -29.7974   20.1587 C   0  0  0  0  0  0
  -25.4119  -36.3067   24.0323 C   0  0  1  0  0  0
  -20.5890  -28.3703   23.1273 C   0  0  2  0  0  0
  -20.6771  -26.9422   22.5414 C   0  0  0  0  0  0
  -19.5748  -26.6387   21.5220 C   0  0  0  0  0  0
  -18.1927  -26.7938   22.1627 C   0  0  0  0  0  0
  -19.1537  -28.8866   23.2878 C   0  0  0  0  0  0
  -18.9463  -30.1467   23.8899 C   0  0  0  0  0  0
  -17.6461  -30.6597   24.0566 C   0  0  0  0  0  0
  -25.9059  -34.9437   23.5090 C   0  0  0  0  0  0
  -16.5351  -29.9092   23.6334 C   0  0  0  0  0  0
  -16.7273  -28.6511   23.0361 C   0  0  0  0  0  0
  -26.4502  -31.6575   25.0709 C   0  0  0  0  0  0
  -25.3726  -31.3716   26.1429 C   0  0  0  0  0  0
  -27.0351  -30.2991   24.6194 C   0  0  0  0  0  0
  -27.6052  -32.4316   25.7491 C   0  0  0  0  0  0
  -27.5578  -37.1795   24.8463 C   0  0  0  0  0  0
  -21.4207  -29.3046   22.3661 N   0  0  0  0  0  0
  -26.4294  -37.3765   23.9408 N   0  0  0  0  0  0
  -24.6979  -31.0471   22.0939 N   0  0  0  0  0  0
  -23.4186  -28.8137   23.3042 O   0  0  0  0  0  0
  -28.3495  -26.3885   20.1270 O   0  0  0  0  0  0
  -26.5638  -34.8914   22.4662 O   0  0  0  0  0  0
  -23.5467  -32.1363   23.7244 O   0  0  0  0  0  0
  -28.2409  -23.9847   19.3427 C   0  0  0  0  0  0
  -28.3941  -22.5618   19.5509 C   0  0  0  0  0  0
  -28.8321  -22.9939   21.8720 C   0  0  0  0  0  0
  -28.6468  -24.4170   21.6529 C   0  0  0  0  0  0
  -28.7088  -22.0046   20.8328 C   0  0  0  0  0  0
  -28.3458  -24.9696   20.3725 C   0  0  0  0  0  0
  -28.2916  -18.0749   20.7432 C   0  0  0  0  0  0
  -30.5383  -18.6840   21.2357 C   0  0  0  0  0  0
  -28.7394  -16.5889   20.3320 C   0  0  0  0  0  0
  -31.0423  -17.2710   20.7232 C   0  0  0  0  0  0
  -29.2767  -19.2857   20.5472 C   0  0  0  0  0  0
  -28.1706  -21.6451   18.3616 C   0  0  0  0  0  0
  -29.1757  -22.5072   23.2830 C   0  0  0  0  0  0
  -28.7984  -25.3908   22.8153 C   0  0  0  0  0  0
  -30.1060  -16.0924   20.6901 N   0  0  0  0  0  0
  -28.8102  -20.5883   21.1953 N   0  0  0  0  0  0
  -31.4460  -12.6133   19.1628 H   0  0  0  0  0  0
  -30.3565  -11.5586   20.0082 H   0  0  0  0  0  0
  -29.7885  -11.7181   17.5509 H   0  0  0  0  0  0
  -29.5975  -13.4499   17.6977 H   0  0  0  0  0  0
  -27.9073  -11.2678   18.9582 H   0  0  0  0  0  0
  -27.3630  -12.4648   17.8171 H   0  0  0  0  0  0
  -27.5833  -14.2301   19.4025 H   0  0  0  0  0  0
  -28.7425  -12.2804   21.4690 H   0  0  0  0  0  0
  -28.4038  -13.9634   21.7594 H   0  0  0  0  0  0
  -25.2715   -9.5687   22.4798 H   0  0  0  0  0  0
  -23.9988   -7.4613   22.7455 H   0  0  0  0  0  0
  -21.0836   -8.8764   19.8944 H   0  0  0  0  0  0
  -22.3659  -10.9683   19.6205 H   0  0  0  0  0  0
  -21.1992   -7.6147   23.9744 H   0  0  0  0  0  0
  -21.1465   -6.0516   25.9086 H   0  0  0  0  0  0
  -22.0605   -2.7624   23.2867 H   0  0  0  0  0  0
  -22.3974  -11.9898   22.4881 H   0  0  0  0  0  0
  -21.0974  -13.1234   22.2611 H   0  0  0  0  0  0
  -24.6268  -15.8365   20.5421 H   0  0  0  0  0  0
  -26.2413  -15.6473   20.0808 H   0  0  0  0  0  0
  -26.7200  -32.5397   23.1053 H   0  0  0  0  0  0
  -25.0060  -33.9676   25.0378 H   0  0  0  0  0  0
  -22.7287  -31.2938   21.3890 H   0  0  0  0  0  0
  -23.3758  -35.9601   23.3293 H   0  0  0  0  0  0
  -24.3574  -36.8914   22.2058 H   0  0  0  0  0  0
  -23.7234  -37.6468   23.6678 H   0  0  0  0  0  0
  -26.1090  -31.5152   20.6008 H   0  0  0  0  0  0
  -26.8528  -30.8164   22.0074 H   0  0  0  0  0  0
  -28.1240  -28.9183   21.2004 H   0  0  0  0  0  0
  -25.9943  -25.8695   19.0274 H   0  0  0  0  0  0
  -23.9794  -27.2788   19.0142 H   0  0  0  0  0  0
  -23.7797  -30.5699   19.3999 H   0  0  0  0  0  0
  -22.7674  -29.2313   19.8550 H   0  0  0  0  0  0
  -25.1307  -36.1905   25.0816 H   0  0  0  0  0  0
  -20.9979  -28.3280   24.1393 H   0  0  0  0  0  0
  -20.5673  -26.2314   23.3620 H   0  0  0  0  0  0
  -21.6638  -26.7444   22.1204 H   0  0  0  0  0  0
  -19.6908  -25.6295   21.1254 H   0  0  0  0  0  0
  -19.6688  -27.3193   20.6744 H   0  0  0  0  0  0
  -17.4198  -26.6694   21.4024 H   0  0  0  0  0  0
  -18.0321  -26.0081   22.9021 H   0  0  0  0  0  0
  -19.7935  -30.7284   24.2269 H   0  0  0  0  0  0
  -17.5011  -31.6280   24.5167 H   0  0  0  0  0  0
  -15.5352  -30.2997   23.7656 H   0  0  0  0  0  0
  -15.8670  -28.0825   22.7083 H   0  0  0  0  0  0
  -24.5890  -30.7085   25.7736 H   0  0  0  0  0  0
  -24.8936  -32.2884   26.4873 H   0  0  0  0  0  0
  -25.8034  -30.8860   27.0196 H   0  0  0  0  0  0
  -26.2928  -29.6730   24.1224 H   0  0  0  0  0  0
  -27.4039  -29.7257   25.4709 H   0  0  0  0  0  0
  -27.8802  -30.4263   23.9426 H   0  0  0  0  0  0
  -27.2653  -33.3609   26.2073 H   0  0  0  0  0  0
  -28.3861  -32.6891   25.0323 H   0  0  0  0  0  0
  -28.0728  -31.8448   26.5407 H   0  0  0  0  0  0
  -28.2588  -38.0098   24.7520 H   0  0  0  0  0  0
  -28.1083  -36.2629   24.6283 H   0  0  0  0  0  0
  -27.2294  -37.1429   25.8865 H   0  0  0  0  0  0
  -20.9403  -29.8755   21.6849 H   0  0  0  0  0  0
  -26.0166  -38.2835   24.1420 H   0  0  0  0  0  0
  -28.0421  -24.3388   18.3418 H   0  0  0  0  0  0
  -28.0259  -18.0349   21.8015 H   0  0  0  0  0  0
  -27.3528  -18.3014   20.2350 H   0  0  0  0  0  0
  -31.3603  -19.3954   21.1473 H   0  0  0  0  0  0
  -30.3532  -18.5994   22.3083 H   0  0  0  0  0  0
  -28.6319  -16.4764   19.2528 H   0  0  0  0  0  0
  -28.0153  -15.9212   20.7858 H   0  0  0  0  0  0
  -31.9086  -17.0096   21.3340 H   0  0  0  0  0  0
  -31.4267  -17.4054   19.7103 H   0  0  0  0  0  0
  -29.4776  -19.4440   19.4877 H   0  0  0  0  0  0
  -27.6069  -22.1509   17.5772 H   0  0  0  0  0  0
  -27.6002  -20.7639   18.6548 H   0  0  0  0  0  0
  -29.1240  -21.3219   17.9445 H   0  0  0  0  0  0
  -29.6847  -23.2579   23.8847 H   0  0  0  0  0  0
  -29.8564  -21.6557   23.2659 H   0  0  0  0  0  0
  -28.2683  -22.2107   23.8086 H   0  0  0  0  0  0
  -28.1969  -25.0735   23.6672 H   0  0  0  0  0  0
  -28.4739  -26.3997   22.5655 H   0  0  0  0  0  0
  -29.8419  -25.4544   23.1248 H   0  0  0  0  0  0
  -28.7727  -20.4818   22.2031 H   0  0  0  0  0  0
  1 25  1  0  0  0
  1 30  2  0  0  0
  1 85  1  0  0  0
  2  3  1  0  0  0
  2 25  1  0  0  0
  2 87  1  0  0  0
  2 88  1  0  0  0
  3  4  1  0  0  0
  3 89  1  0  0  0
  3 90  1  0  0  0
  4  5  1  0  0  0
  4 91  1  0  0  0
  4 92  1  0  0  0
  5  6  1  0  0  0
  5 26  1  0  0  0
  5 93  1  0  0  0
  6 25  1  0  0  0
  6 94  1  0  0  0
  6 95  1  0  0  0
  7  8  2  0  0  0
  7 26  1  0  0  0
  7 29  1  0  0  0
  8  9  1  0  0  0
  8 22  1  0  0  0
  9 10  1  0  0  0
  9 27  2  0  0  0
 10 11  2  0  0  0
 10 15  1  0  0  0
 11 12  1  0  0  0
 11 96  1  0  0  0
 12 13  2  0  0  0
 12 97  1  0  0  0
 13 14  1  0  0  0
 13 31  1  0  0  0
 14 15  2  0  0  0
 14 98  1  0  0  0
 15 99  1  0  0  0
 16 17  2  0  0  0
 16 21  1  0  0  0
 16 31  1  0  0  0
 17 18  1  0  0  0
 17100  1  0  0  0
 18 19  2  0  0  0
 18101  1  0  0  0
 19 20  1  0  0  0
 19 24  1  0  0  0
 20 21  2  0  0  0
 20102  1  0  0  0
 21 23  1  0  0  0
 22 28  1  0  0  0
 22 32  2  0  0  0
 26 27  1  0  0  0
 28103  1  0  0  0
 28104  1  0  0  0
 29105  1  0  0  0
 29106  1  0  0  0
 33 34  1  0  0  0
 33 66  1  0  0  0
 33 70  2  0  0  0
 34 36  1  0  0  0
 34 59  1  0  0  0
 34107  1  0  0  0
 35 44  2  0  0  0
 35 45  1  0  0  0
 35 68  1  0  0  0
 36 56  1  0  0  0
 36108  1  0  0  0
 37 39  1  0  0  0
 37 47  1  0  0  0
 37 66  1  0  0  0
 37109  1  0  0  0
 38 43  2  0  0  0
 38 46  1  0  0  0
 38 47  1  0  0  0
 39 64  1  0  0  0
 39 67  2  0  0  0
 40 52  1  0  0  0
 40 53  2  0  0  0
 40 58  1  0  0  0
 41110  1  0  0  0
 41111  1  0  0  0
 41112  1  0  0  0
 41 48  1  0  0  0
 42 43  1  0  0  0
 42 66  1  0  0  0
 42113  1  0  0  0
 42114  1  0  0  0
 43 44  1  0  0  0
 44115  1  0  0  0
 45 46  2  0  0  0
 45116  1  0  0  0
 46117  1  0  0  0
 47118  1  0  0  0
 47119  1  0  0  0
 48 56  1  0  0  0
 48 65  1  0  0  0
 48120  1  0  0  0
 49 50  1  0  0  0
 49 53  1  0  0  0
 49 64  1  0  0  0
 49121  1  0  0  0
 50 51  1  0  0  0
 50122  1  0  0  0
 50123  1  0  0  0
 51 52  1  0  0  0
 51124  1  0  0  0
 51125  1  0  0  0
 52126  1  0  0  0
 52127  1  0  0  0
 53 54  1  0  0  0
 54 55  2  0  0  0
 54128  1  0  0  0
 55 57  1  0  0  0
 55129  1  0  0  0
 56 69  2  0  0  0
 57 58  2  0  0  0
 57130  1  0  0  0
 58131  1  0  0  0
 59 60  1  0  0  0
 59 61  1  0  0  0
 59 62  1  0  0  0
 60132  1  0  0  0
 60133  1  0  0  0
 60134  1  0  0  0
 61135  1  0  0  0
 61136  1  0  0  0
 61137  1  0  0  0
 62138  1  0  0  0
 62139  1  0  0  0
 62140  1  0  0  0
 63 65  1  0  0  0
 63141  1  0  0  0
 63142  1  0  0  0
 63143  1  0  0  0
 64144  1  0  0  0
 65145  1  0  0  0
 68 76  1  0  0  0
 71 72  2  0  0  0
 71 76  1  0  0  0
 71146  1  0  0  0
 72 75  1  0  0  0
 72 82  1  0  0  0
 73 74  1  0  0  0
 73 75  2  0  0  0
 73 83  1  0  0  0
 74 76  2  0  0  0
 74 84  1  0  0  0
 75 86  1  0  0  0
 77 79  1  0  0  0
 77 81  1  0  0  0
 77147  1  0  0  0
 77148  1  0  0  0
 78 80  1  0  0  0
 78 81  1  0  0  0
 78149  1  0  0  0
 78150  1  0  0  0
 79 85  1  0  0  0
 79151  1  0  0  0
 79152  1  0  0  0
 80 85  1  0  0  0
 80153  1  0  0  0
 80154  1  0  0  0
 81 86  1  0  0  0
 81155  1  0  0  0
 82156  1  0  0  0
 82157  1  0  0  0
 82158  1  0  0  0
 83159  1  0  0  0
 83160  1  0  0  0
 83161  1  0  0  0
 84162  1  0  0  0
 84163  1  0  0  0
 84164  1  0  0  0
 86165  1  0  0  0
M  ISO  4   1 100  68 101  76 101  85 100
M  END
> <chiral flag>
0

> <version>
0

> <s_m_source_file>
/data/baiqing/PycharmProjects/Reinvent-master-3.2/result/LINK_invent/BTK/process_docking_weight1_custom_sum_contain_oxygen_bond_distance_aromatic_linkinvent_7_9_3/rearranged_h_0156.sdf

> <i_m_source_file_index>
98

> <r_mmod_Potential_Energy-OPLS-2005>
384.540466308594

> <r_mmod_Stretch_Energy-OPLS-2005>
131.836563110352

> <r_mmod_Bend_Energy-OPLS-2005>
254.633804321289

> <r_mmod_Torsional_Energy-OPLS-2005>
308.536041259766

> <r_mmod_Improper_Torsional_Energy-OPLS-2005>
6.69731855392456

> <r_mmod_Van_der_Waal_Energy-OPLS-2005>
148.91325378418

> <r_mmod_Electrostatic_Energy-OPLS-2005>
-368.706726074219

> <r_mmod_Solvation_Energy-OPLS-2005>
-202.019836425781

> <b_mmod_Minimization_Converged-OPLS-2005>
0

> <r_mmod_RMS_Derivative-OPLS-2005>
1.90311503410339

$$$$
