0
                    3D
 Structure written by MMmdl.
176186  0  0  1  0            999 V2000
  -30.7054  -14.4855   20.5610 C   0  0  0  0  0  0
  -30.4305  -12.3117   19.4191 C   0  0  0  0  0  0
  -29.4981  -12.4957   18.1996 C   0  0  0  0  0  0
  -28.0196  -12.3664   18.6147 C   0  0  0  0  0  0
  -27.6701  -13.2080   19.8707 C   0  0  2  0  0  0
  -28.7107  -12.9949   20.9953 C   0  0  0  0  0  0
  -25.2650  -13.8199   20.5531 C   0  0  0  0  0  0
  -24.1842  -13.0473   20.9085 C   0  0  0  0  0  0
  -24.6417  -11.6955   20.8739 C   0  0  0  0  0  0
  -23.9069  -10.4326   21.0445 C   0  0  0  0  0  0
  -24.3626   -9.4238   21.9207 C   0  0  0  0  0  0
  -23.6289   -8.2285   22.0789 C   0  0  0  0  0  0
  -22.4278   -8.0315   21.3550 C   0  0  0  0  0  0
  -21.9892   -9.0308   20.4666 C   0  0  0  0  0  0
  -22.7252  -10.2173   20.3084 C   0  0  0  0  0  0
  -21.6836   -6.0747   22.5280 C   0  0  0  0  0  0
  -21.4031   -6.5653   23.8223 C   0  0  0  0  0  0
  -21.3648   -5.6804   24.9190 C   0  0  0  0  0  0
  -21.6021   -4.3058   24.7230 C   0  0  0  0  0  0
  -21.8834   -3.8139   23.4351 C   0  0  0  0  0  0
  -21.9191   -4.6973   22.3409 C   0  0  0  0  0  0
  -22.7892  -13.5350   21.1751 C   0  0  0  0  0  0
  -22.1637   -4.2158   21.0975 F   0  0  0  0  0  0
  -21.5641   -3.4536   25.7730 F   0  0  0  0  0  0
  -30.0473  -13.2961   20.4503 N   0  0  0  0  0  0
  -26.3085  -12.9330   20.3331 N   0  0  0  0  0  0
  -25.9355  -11.6501   20.5790 N   0  0  0  0  0  0
  -22.0462  -12.8370   22.0296 N   0  0  0  0  0  0
  -25.4423  -15.1892   20.3896 N   0  0  0  0  0  0
  -31.7947  -14.6954   20.0179 O   0  0  0  0  0  0
  -21.6645   -6.8909   21.4247 O   0  0  0  0  0  0
  -22.3586  -14.5626   20.6581 O   0  0  0  0  0  0
  -24.6097  -31.8728   23.2189 C   0  0  0  0  0  0
  -25.9026  -32.4861   23.8453 C   0  0  1  0  0  0
  -27.2260  -27.4276   20.0844 C   0  0  0  0  0  0
  -25.5953  -33.8668   24.2411 N   0  0  0  0  0  0
  -23.3984  -30.5001   21.5609 C   0  0  2  0  0  0
  -24.8507  -28.9802   20.1235 C   0  0  0  0  0  0
  -22.7382  -29.4656   22.5007 C   0  0  0  0  0  0
  -18.0225  -28.1369   22.8560 C   0  0  0  0  0  0
  -24.1497  -36.7267   23.2629 C   0  0  0  0  0  0
  -25.9382  -30.8327   21.3911 C   0  0  0  0  0  0
  -26.0162  -29.4729   20.7221 C   0  0  0  0  0  0
  -27.2022  -28.6982   20.7105 C   0  0  0  0  0  0
  -26.0380  -26.9827   19.4449 C   0  0  0  0  0  0
  -24.8530  -27.7296   19.4954 C   0  0  0  0  0  0
  -23.6159  -29.8501   20.1728 C   0  0  0  0  0  0
  -25.4140  -36.3124   24.0337 C   0  0  1  0  0  0
  -20.5847  -28.3630   23.1385 C   0  0  2  0  0  0
  -20.6689  -26.9372   22.5475 C   0  0  0  0  0  0
  -19.5682  -26.6435   21.5218 C   0  0  0  0  0  0
  -18.1879  -26.7900   22.1650 C   0  0  0  0  0  0
  -19.1486  -28.8782   23.3009 C   0  0  0  0  0  0
  -18.9455  -30.1384   23.9053 C   0  0  0  0  0  0
  -17.6478  -30.6558   24.0694 C   0  0  0  0  0  0
  -25.9047  -34.9495   23.5159 C   0  0  0  0  0  0
  -16.5364  -29.9123   23.6372 C   0  0  0  0  0  0
  -16.7230  -28.6527   23.0418 C   0  0  0  0  0  0
  -26.4451  -31.6602   25.0762 C   0  0  0  0  0  0
  -25.3721  -31.3705   26.1517 C   0  0  0  0  0  0
  -27.0287  -30.3044   24.6163 C   0  0  0  0  0  0
  -27.6048  -32.4292   25.7511 C   0  0  0  0  0  0
  -27.5610  -37.1815   24.8485 C   0  0  0  0  0  0
  -21.4079  -29.3064   22.3841 N   0  0  0  0  0  0
  -26.4342  -37.3821   23.9386 N   0  0  0  0  0  0
  -24.6657  -31.0817   22.1121 N   0  0  0  0  0  0
  -23.4125  -28.8121   23.2994 O   0  0  0  0  0  0
  -28.3703  -26.6352   20.1277 O   0  0  0  0  0  0
  -26.5575  -34.8923   22.4678 O   0  0  0  0  0  0
  -23.5294  -32.1479   23.7601 O   0  0  0  0  0  0
  -30.4327  -20.2001   21.0679 C   0  0  0  0  0  0
  -27.7854  -20.9791   21.1015 C   0  0  0  0  0  0
  -29.4946  -19.3022   21.6160 C   0  0  0  0  0  0
  -28.1446  -19.7505   21.7445 C   0  0  0  0  0  0
  -28.8245  -21.7812   20.5805 C   0  0  0  0  0  0
  -25.1050  -20.7392   20.7534 C   0  0  0  0  0  0
  -25.6803  -21.5994   19.6552 C   0  0  0  0  0  0
  -27.2148  -19.8672   25.0202 C   0  0  0  0  0  0
  -26.3756  -21.5380   21.0022 C   0  0  0  0  0  0
  -26.4421  -19.7046   23.7229 C   0  0  1  0  0  0
  -26.8544  -21.0850   24.2079 C   0  0  1  0  0  0
  -26.4062  -23.1937   25.5164 C   0  0  0  0  0  0
  -27.1118  -18.9516   22.5692 C   0  0  0  0  0  0
  -30.0033  -17.8989   22.0107 C   0  0  0  0  0  0
  -25.8007  -22.0729   24.6692 C   0  0  0  0  0  0
  -30.0814  -16.9076   20.8112 C   0  0  0  0  0  0
  -28.1702  -25.2432   19.7881 C   0  0  0  0  0  0
  -29.1934  -24.1697   20.2292 C   0  0  0  0  0  0
  -30.1217  -21.4216   20.5860 N   0  0  0  0  0  0
  -30.0235  -15.4782   21.1746 N   0  0  0  0  0  0
  -28.4992  -22.9518   19.9373 O   0  0  0  0  0  0
  -31.4727  -12.4171   19.1044 H   0  0  0  0  0  0
  -30.3374  -11.2977   19.8128 H   0  0  0  0  0  0
  -29.7390  -11.7659   17.4220 H   0  0  0  0  0  0
  -29.6658  -13.4743   17.7483 H   0  0  0  0  0  0
  -27.8304  -11.3129   18.8161 H   0  0  0  0  0  0
  -27.3690  -12.6420   17.7841 H   0  0  0  0  0  0
  -27.7167  -14.2547   19.5667 H   0  0  0  0  0  0
  -28.6744  -11.9674   21.3616 H   0  0  0  0  0  0
  -28.4682  -13.6131   21.8589 H   0  0  0  0  0  0
  -25.2818   -9.5696   22.4723 H   0  0  0  0  0  0
  -23.9996   -7.4700   22.7532 H   0  0  0  0  0  0
  -21.0811   -8.8875   19.8971 H   0  0  0  0  0  0
  -22.3775  -10.9723   19.6158 H   0  0  0  0  0  0
  -21.2035   -7.6148   23.9726 H   0  0  0  0  0  0
  -21.1427   -6.0520   25.9091 H   0  0  0  0  0  0
  -22.0598   -2.7590   23.2854 H   0  0  0  0  0  0
  -22.4075  -12.0094   22.4764 H   0  0  0  0  0  0
  -21.1112  -13.1502   22.2505 H   0  0  0  0  0  0
  -24.6812  -15.8559   20.4852 H   0  0  0  0  0  0
  -26.3114  -15.6094   20.0828 H   0  0  0  0  0  0
  -26.7104  -32.5561   23.1198 H   0  0  0  0  0  0
  -25.0225  -33.9869   25.0656 H   0  0  0  0  0  0
  -22.6851  -31.3167   21.4274 H   0  0  0  0  0  0
  -23.3814  -35.9542   23.3318 H   0  0  0  0  0  0
  -24.3595  -36.8845   22.2038 H   0  0  0  0  0  0
  -23.7193  -37.6465   23.6605 H   0  0  0  0  0  0
  -26.0825  -31.6221   20.6511 H   0  0  0  0  0  0
  -26.8111  -30.8562   22.0296 H   0  0  0  0  0  0
  -28.0956  -29.0688   21.1994 H   0  0  0  0  0  0
  -25.9862  -26.0540   18.8961 H   0  0  0  0  0  0
  -23.9478  -27.3524   19.0414 H   0  0  0  0  0  0
  -23.7532  -30.6397   19.4339 H   0  0  0  0  0  0
  -22.7346  -29.2884   19.8510 H   0  0  0  0  0  0
  -25.1309  -36.2007   25.0845 H   0  0  0  0  0  0
  -20.9882  -28.3109   24.1504 H   0  0  0  0  0  0
  -21.6589  -26.7252   22.1395 H   0  0  0  0  0  0
  -20.5348  -26.2260   23.3652 H   0  0  0  0  0  0
  -19.6611  -27.3330   20.6807 H   0  0  0  0  0  0
  -19.6839  -25.6383   21.1211 H   0  0  0  0  0  0
  -17.4107  -26.6575   21.4149 H   0  0  0  0  0  0
  -18.0375  -26.0029   22.9067 H   0  0  0  0  0  0
  -19.7931  -30.7117   24.2550 H   0  0  0  0  0  0
  -17.5039  -31.6207   24.5375 H   0  0  0  0  0  0
  -15.5366  -30.3077   23.7690 H   0  0  0  0  0  0
  -15.8601  -28.0896   22.7136 H   0  0  0  0  0  0
  -24.5916  -30.7024   25.7866 H   0  0  0  0  0  0
  -24.8869  -32.2852   26.4939 H   0  0  0  0  0  0
  -25.8085  -30.8908   27.0296 H   0  0  0  0  0  0
  -26.2865  -29.6838   24.1144 H   0  0  0  0  0  0
  -27.3977  -29.7251   25.4642 H   0  0  0  0  0  0
  -27.8728  -30.4365   23.9390 H   0  0  0  0  0  0
  -27.2723  -33.3613   26.2099 H   0  0  0  0  0  0
  -28.3856  -32.6827   25.0321 H   0  0  0  0  0  0
  -28.0710  -31.8391   26.5421 H   0  0  0  0  0  0
  -28.2652  -38.0106   24.7550 H   0  0  0  0  0  0
  -28.1092  -36.2630   24.6297 H   0  0  0  0  0  0
  -27.2306  -37.1454   25.8898 H   0  0  0  0  0  0
  -20.9122  -29.8784   21.7157 H   0  0  0  0  0  0
  -26.0221  -38.2895   24.1428 H   0  0  0  0  0  0
  -31.4720  -19.9124   20.9962 H   0  0  0  0  0  0
  -25.1475  -19.6640   20.5841 H   0  0  0  0  0  0
  -24.1935  -21.0870   21.2451 H   0  0  0  0  0  0
  -25.1660  -22.5218   19.3968 H   0  0  0  0  0  0
  -26.1155  -21.0660   18.8124 H   0  0  0  0  0  0
  -28.2376  -19.5009   25.0013 H   0  0  0  0  0  0
  -26.7206  -19.7605   25.9837 H   0  0  0  0  0  0
  -26.2902  -22.4474   21.5969 H   0  0  0  0  0  0
  -25.4083  -19.4016   23.8847 H   0  0  0  0  0  0
  -27.7003  -21.5600   23.7144 H   0  0  0  0  0  0
  -26.9840  -22.7803   26.3434 H   0  0  0  0  0  0
  -25.6343  -23.8412   25.9374 H   0  0  0  0  0  0
  -27.0647  -23.8122   24.9061 H   0  0  0  0  0  0
  -27.5241  -18.0662   23.0387 H   0  0  0  0  0  0
  -26.3571  -18.5494   21.8956 H   0  0  0  0  0  0
  -29.4538  -17.4806   22.8493 H   0  0  0  0  0  0
  -31.0152  -18.0251   22.3952 H   0  0  0  0  0  0
  -25.0150  -21.5613   25.2312 H   0  0  0  0  0  0
  -25.3146  -22.4971   23.7910 H   0  0  0  0  0  0
  -30.9612  -17.1345   20.2060 H   0  0  0  0  0  0
  -29.2294  -17.0726   20.1486 H   0  0  0  0  0  0
  -27.2447  -24.9108   20.2646 H   0  0  0  0  0  0
  -28.0356  -25.1679   18.7055 H   0  0  0  0  0  0
  -29.4159  -24.2491   21.2954 H   0  0  0  0  0  0
  -30.1203  -24.2603   19.6677 H   0  0  0  0  0  0
  -29.2137  -15.1920   21.7044 H   0  0  0  0  0  0
  1 25  1  0  0  0
  1 30  2  0  0  0
  1 90  1  0  0  0
  2  3  1  0  0  0
  2 25  1  0  0  0
  2 92  1  0  0  0
  2 93  1  0  0  0
  3  4  1  0  0  0
  3 94  1  0  0  0
  3 95  1  0  0  0
  4  5  1  0  0  0
  4 96  1  0  0  0
  4 97  1  0  0  0
  5  6  1  0  0  0
  5 26  1  0  0  0
  5 98  1  0  0  0
  6 25  1  0  0  0
  6 99  1  0  0  0
  6100  1  0  0  0
  7  8  2  0  0  0
  7 26  1  0  0  0
  7 29  1  0  0  0
  8  9  1  0  0  0
  8 22  1  0  0  0
  9 10  1  0  0  0
  9 27  2  0  0  0
 10 11  2  0  0  0
 10 15  1  0  0  0
 11 12  1  0  0  0
 11101  1  0  0  0
 12 13  2  0  0  0
 12102  1  0  0  0
 13 14  1  0  0  0
 13 31  1  0  0  0
 14 15  2  0  0  0
 14103  1  0  0  0
 15104  1  0  0  0
 16 17  2  0  0  0
 16 21  1  0  0  0
 16 31  1  0  0  0
 17 18  1  0  0  0
 17105  1  0  0  0
 18 19  2  0  0  0
 18106  1  0  0  0
 19 20  1  0  0  0
 19 24  1  0  0  0
 20 21  2  0  0  0
 20107  1  0  0  0
 21 23  1  0  0  0
 22 28  1  0  0  0
 22 32  2  0  0  0
 26 27  1  0  0  0
 28108  1  0  0  0
 28109  1  0  0  0
 29110  1  0  0  0
 29111  1  0  0  0
 33 34  1  0  0  0
 33 66  1  0  0  0
 33 70  2  0  0  0
 34 36  1  0  0  0
 34 59  1  0  0  0
 34112  1  0  0  0
 35 44  2  0  0  0
 35 45  1  0  0  0
 35 68  1  0  0  0
 36 56  1  0  0  0
 36113  1  0  0  0
 37 39  1  0  0  0
 37 47  1  0  0  0
 37 66  1  0  0  0
 37114  1  0  0  0
 38 43  2  0  0  0
 38 46  1  0  0  0
 38 47  1  0  0  0
 39 64  1  0  0  0
 39 67  2  0  0  0
 40 52  1  0  0  0
 40 53  2  0  0  0
 40 58  1  0  0  0
 41115  1  0  0  0
 41116  1  0  0  0
 41117  1  0  0  0
 41 48  1  0  0  0
 42 43  1  0  0  0
 42 66  1  0  0  0
 42118  1  0  0  0
 42119  1  0  0  0
 43 44  1  0  0  0
 44120  1  0  0  0
 45 46  2  0  0  0
 45121  1  0  0  0
 46122  1  0  0  0
 47123  1  0  0  0
 47124  1  0  0  0
 48 56  1  0  0  0
 48 65  1  0  0  0
 48125  1  0  0  0
 49 50  1  0  0  0
 49 53  1  0  0  0
 49 64  1  0  0  0
 49126  1  0  0  0
 50 51  1  0  0  0
 50127  1  0  0  0
 50128  1  0  0  0
 51 52  1  0  0  0
 51129  1  0  0  0
 51130  1  0  0  0
 52131  1  0  0  0
 52132  1  0  0  0
 53 54  1  0  0  0
 54 55  2  0  0  0
 54133  1  0  0  0
 55 57  1  0  0  0
 55134  1  0  0  0
 56 69  2  0  0  0
 57 58  2  0  0  0
 57135  1  0  0  0
 58136  1  0  0  0
 59 60  1  0  0  0
 59 61  1  0  0  0
 59 62  1  0  0  0
 60137  1  0  0  0
 60138  1  0  0  0
 60139  1  0  0  0
 61140  1  0  0  0
 61141  1  0  0  0
 61142  1  0  0  0
 62143  1  0  0  0
 62144  1  0  0  0
 62145  1  0  0  0
 63 65  1  0  0  0
 63146  1  0  0  0
 63147  1  0  0  0
 63148  1  0  0  0
 64149  1  0  0  0
 65150  1  0  0  0
 68 87  1  0  0  0
 71 73  2  0  0  0
 71 89  1  0  0  0
 71151  1  0  0  0
 72 74  2  0  0  0
 72 75  1  0  0  0
 72 79  1  0  0  0
 73 74  1  0  0  0
 73 84  1  0  0  0
 74 83  1  0  0  0
 75 89  2  0  0  0
 75 91  1  0  0  0
 76 77  1  0  0  0
 76 79  1  0  0  0
 76152  1  0  0  0
 76153  1  0  0  0
 77 79  1  0  0  0
 77154  1  0  0  0
 77155  1  0  0  0
 78 80  1  0  0  0
 78 81  1  0  0  0
 78156  1  0  0  0
 78157  1  0  0  0
 79158  1  0  0  0
 80 81  1  0  0  0
 80 83  1  0  0  0
 80159  1  0  0  0
 81 85  1  0  0  0
 81160  1  0  0  0
 82 85  1  0  0  0
 82161  1  0  0  0
 82162  1  0  0  0
 82163  1  0  0  0
 83164  1  0  0  0
 83165  1  0  0  0
 84 86  1  0  0  0
 84166  1  0  0  0
 84167  1  0  0  0
 85168  1  0  0  0
 85169  1  0  0  0
 86 90  1  0  0  0
 86170  1  0  0  0
 86171  1  0  0  0
 87 88  1  0  0  0
 87172  1  0  0  0
 87173  1  0  0  0
 88 91  1  0  0  0
 88174  1  0  0  0
 88175  1  0  0  0
 90176  1  0  0  0
M  ISO  4   1 100  68 101  87 101  90 100
M  END
> <chiral flag>
0

> <version>
0

> <s_m_source_file>
/data/baiqing/PycharmProjects/Reinvent-master-3.2/result/LINK_invent/BTK/process_docking_weight1_custom_sum_contain_oxygen_bond_distance_aromatic_linkinvent_7_9_3/rearranged_h_0139.sdf

> <i_m_source_file_index>
1

> <r_mmod_Potential_Energy-OPLS-2005>
-95.1600112915039

> <r_mmod_Stretch_Energy-OPLS-2005>
48.6917762756348

> <r_mmod_Bend_Energy-OPLS-2005>
134.442230224609

> <r_mmod_Torsional_Energy-OPLS-2005>
311.696014404297

> <r_mmod_Improper_Torsional_Energy-OPLS-2005>
4.74227571487427

> <r_mmod_Van_der_Waal_Energy-OPLS-2005>
157.152877807617

> <r_mmod_Electrostatic_Energy-OPLS-2005>
-550.521301269531

> <r_mmod_Solvation_Energy-OPLS-2005>
-217.727249145508

> <b_mmod_Minimization_Converged-OPLS-2005>
0

> <r_mmod_RMS_Derivative-OPLS-2005>
9.01140594482422

$$$$
1
                    3D
 Structure written by MMmdl.
167177  0  0  1  0            999 V2000
  -30.6824  -14.5233   20.5416 C   0  0  0  0  0  0
  -30.4253  -12.3224   19.4496 C   0  0  0  0  0  0
  -29.5109  -12.5087   18.2198 C   0  0  0  0  0  0
  -28.0274  -12.3674   18.6196 C   0  0  0  0  0  0
  -27.6606  -13.2027   19.8767 C   0  0  2  0  0  0
  -28.7006  -12.9931   21.0011 C   0  0  0  0  0  0
  -25.2588  -13.8138   20.5661 C   0  0  0  0  0  0
  -24.1841  -13.0426   20.9163 C   0  0  0  0  0  0
  -24.6387  -11.6884   20.8723 C   0  0  0  0  0  0
  -23.9051  -10.4272   21.0402 C   0  0  0  0  0  0
  -24.3592   -9.4198   21.9193 C   0  0  0  0  0  0
  -23.6284   -8.2233   22.0768 C   0  0  0  0  0  0
  -22.4278   -8.0275   21.3554 C   0  0  0  0  0  0
  -21.9906   -9.0249   20.4655 C   0  0  0  0  0  0
  -22.7226  -10.2128   20.3055 C   0  0  0  0  0  0
  -21.6846   -6.0736   22.5285 C   0  0  0  0  0  0
  -21.4002   -6.5623   23.8218 C   0  0  0  0  0  0
  -21.3666   -5.6786   24.9182 C   0  0  0  0  0  0
  -21.6046   -4.3043   24.7219 C   0  0  0  0  0  0
  -21.8810   -3.8141   23.4341 C   0  0  0  0  0  0
  -21.9182   -4.6961   22.3396 C   0  0  0  0  0  0
  -22.7871  -13.5267   21.1814 C   0  0  0  0  0  0
  -22.1654   -4.2135   21.0973 F   0  0  0  0  0  0
  -21.5648   -3.4532   25.7739 F   0  0  0  0  0  0
  -30.0200  -13.3307   20.4451 N   0  0  0  0  0  0
  -26.3016  -12.9281   20.3348 N   0  0  0  0  0  0
  -25.9312  -11.6452   20.5755 N   0  0  0  0  0  0
  -22.0469  -12.8313   22.0352 N   0  0  0  0  0  0
  -25.4302  -15.1845   20.4076 N   0  0  0  0  0  0
  -31.8524  -14.6335   20.1570 O   0  0  0  0  0  0
  -21.6639   -6.8881   21.4252 O   0  0  0  0  0  0
  -22.3596  -14.5591   20.6659 O   0  0  0  0  0  0
  -24.6119  -31.8690   23.2110 C   0  0  0  0  0  0
  -25.8999  -32.4840   23.8393 C   0  0  1  0  0  0
  -27.2142  -27.4193   20.0826 C   0  0  0  0  0  0
  -25.5850  -33.8643   24.2303 N   0  0  0  0  0  0
  -23.3978  -30.4969   21.5548 C   0  0  2  0  0  0
  -24.8365  -28.9634   20.1194 C   0  0  0  0  0  0
  -22.7378  -29.4687   22.5006 C   0  0  0  0  0  0
  -18.0256  -28.1402   22.8486 C   0  0  0  0  0  0
  -24.1478  -36.7319   23.2644 C   0  0  0  0  0  0
  -25.9297  -30.8332   21.3618 C   0  0  0  0  0  0
  -26.0042  -29.4682   20.7048 C   0  0  0  0  0  0
  -27.1970  -28.7066   20.6787 C   0  0  0  0  0  0
  -26.0169  -26.9332   19.5051 C   0  0  0  0  0  0
  -24.8373  -27.6951   19.5228 C   0  0  0  0  0  0
  -23.6025  -29.8344   20.1698 C   0  0  0  0  0  0
  -25.4106  -36.3125   24.0337 C   0  0  1  0  0  0
  -20.5845  -28.3674   23.1323 C   0  0  2  0  0  0
  -20.6753  -26.9414   22.5427 C   0  0  0  0  0  0
  -19.5739  -26.6399   21.5219 C   0  0  0  0  0  0
  -18.1911  -26.7944   22.1626 C   0  0  0  0  0  0
  -19.1503  -28.8852   23.2900 C   0  0  0  0  0  0
  -18.9450  -30.1463   23.8907 C   0  0  0  0  0  0
  -17.6459  -30.6609   24.0570 C   0  0  0  0  0  0
  -25.9037  -34.9494   23.5127 C   0  0  0  0  0  0
  -16.5345  -29.9119   23.6339 C   0  0  0  0  0  0
  -16.7246  -28.6538   23.0347 C   0  0  0  0  0  0
  -26.4428  -31.6631   25.0726 C   0  0  0  0  0  0
  -25.3702  -31.3744   26.1483 C   0  0  0  0  0  0
  -27.0236  -30.3064   24.6106 C   0  0  0  0  0  0
  -27.5990  -32.4366   25.7489 C   0  0  0  0  0  0
  -27.5577  -37.1808   24.8459 C   0  0  0  0  0  0
  -21.4105  -29.3031   22.3721 N   0  0  0  0  0  0
  -26.4284  -37.3815   23.9417 N   0  0  0  0  0  0
  -24.6658  -31.0796   22.1009 N   0  0  0  0  0  0
  -23.4158  -28.8218   23.3033 O   0  0  0  0  0  0
  -28.3842  -26.6819   20.0815 O   0  0  0  0  0  0
  -26.5634  -34.8939   22.4707 O   0  0  0  0  0  0
  -23.5308  -32.1442   23.7506 O   0  0  0  0  0  0
  -30.7512  -25.3081   19.2350 C   0  0  0  0  0  0
  -32.0301  -24.7428   19.2492 C   0  0  0  0  0  0
  -29.6714  -24.5929   19.7869 C   0  0  0  0  0  0
  -29.9068  -23.2753   20.2842 C   0  0  0  0  0  0
  -31.2553  -22.8280   20.3056 C   0  0  0  0  0  0
  -30.0292  -18.1054   19.8749 C   0  0  0  0  0  0
  -29.0781  -17.5616   22.0857 C   0  0  0  0  0  0
  -27.4801  -20.6378   20.9408 C   0  0  0  0  0  0
  -29.9442  -16.6128   19.4644 C   0  0  0  0  0  0
  -29.0761  -16.0441   21.7530 C   0  0  0  0  0  0
  -28.9033  -18.4678   20.8519 C   0  0  0  0  0  0
  -28.8059  -19.9641   21.2328 C   0  0  1  0  0  0
  -28.7153  -21.1674   20.2732 C   0  0  2  0  0  0
  -31.6778  -21.5484   20.9962 C   0  0  0  0  0  0
  -28.3046  -25.2717   19.7743 C   0  0  0  0  0  0
  -32.2830  -23.5360   19.7894 N   0  0  0  0  0  0
  -29.8985  -15.6440   20.5872 N   0  0  0  0  0  0
  -28.8669  -22.5084   20.7798 O   0  0  0  0  0  0
  -31.4767  -12.4022   19.1687 H   0  0  0  0  0  0
  -30.3131  -11.3167   19.8593 H   0  0  0  0  0  0
  -29.7711  -11.7808   17.4505 H   0  0  0  0  0  0
  -29.6811  -13.4924   17.7789 H   0  0  0  0  0  0
  -27.8366  -11.3098   18.8091 H   0  0  0  0  0  0
  -27.3853  -12.6490   17.7841 H   0  0  0  0  0  0
  -27.6994  -14.2468   19.5718 H   0  0  0  0  0  0
  -28.6960  -11.9549   21.3351 H   0  0  0  0  0  0
  -28.4528  -13.5581   21.8968 H   0  0  0  0  0  0
  -25.2725   -9.5681   22.4787 H   0  0  0  0  0  0
  -23.9968   -7.4624   22.7497 H   0  0  0  0  0  0
  -21.0842   -8.8762   19.8988 H   0  0  0  0  0  0
  -22.3678  -10.9656   19.6158 H   0  0  0  0  0  0
  -21.1992   -7.6141   23.9720 H   0  0  0  0  0  0
  -21.1515   -6.0512   25.9088 H   0  0  0  0  0  0
  -22.0593   -2.7602   23.2827 H   0  0  0  0  0  0
  -22.4016  -11.9957   22.4761 H   0  0  0  0  0  0
  -21.1083  -13.1399   22.2496 H   0  0  0  0  0  0
  -24.6642  -15.8383   20.5336 H   0  0  0  0  0  0
  -26.2889  -15.6343   20.1142 H   0  0  0  0  0  0
  -26.7056  -32.5543   23.1139 H   0  0  0  0  0  0
  -24.9886  -33.9816   25.0364 H   0  0  0  0  0  0
  -22.6870  -31.3154   21.4211 H   0  0  0  0  0  0
  -23.3755  -35.9634   23.3308 H   0  0  0  0  0  0
  -24.3559  -36.8940   22.2057 H   0  0  0  0  0  0
  -23.7209  -37.6512   23.6666 H   0  0  0  0  0  0
  -26.0404  -31.6023   20.5967 H   0  0  0  0  0  0
  -26.8184  -30.8838   21.9794 H   0  0  0  0  0  0
  -28.1019  -29.0970   21.1232 H   0  0  0  0  0  0
  -25.9572  -25.9649   19.0335 H   0  0  0  0  0  0
  -23.9329  -27.2962   19.0828 H   0  0  0  0  0  0
  -23.7112  -30.6106   19.4118 H   0  0  0  0  0  0
  -22.7237  -29.2586   19.8738 H   0  0  0  0  0  0
  -25.1279  -36.1987   25.0832 H   0  0  0  0  0  0
  -20.9942  -28.3254   24.1442 H   0  0  0  0  0  0
  -20.5682  -26.2279   23.3609 H   0  0  0  0  0  0
  -21.6621  -26.7491   22.1200 H   0  0  0  0  0  0
  -19.6905  -25.6318   21.1231 H   0  0  0  0  0  0
  -19.6688  -27.3221   20.6762 H   0  0  0  0  0  0
  -17.4184  -26.6681   21.4029 H   0  0  0  0  0  0
  -18.0322  -26.0100   22.9040 H   0  0  0  0  0  0
  -19.7934  -30.7260   24.2282 H   0  0  0  0  0  0
  -17.5036  -31.6296   24.5164 H   0  0  0  0  0  0
  -15.5351  -30.3038   23.7692 H   0  0  0  0  0  0
  -15.8633  -28.0891   22.7049 H   0  0  0  0  0  0
  -24.5834  -30.7144   25.7808 H   0  0  0  0  0  0
  -24.8950  -32.2918   26.4970 H   0  0  0  0  0  0
  -25.8053  -30.8861   27.0213 H   0  0  0  0  0  0
  -26.2766  -29.6877   24.1114 H   0  0  0  0  0  0
  -27.3926  -29.7254   25.4563 H   0  0  0  0  0  0
  -27.8641  -30.4356   23.9287 H   0  0  0  0  0  0
  -27.2562  -33.3625   26.2114 H   0  0  0  0  0  0
  -28.3760  -32.7006   25.0310 H   0  0  0  0  0  0
  -28.0701  -31.8485   26.5370 H   0  0  0  0  0  0
  -28.2589  -38.0110   24.7531 H   0  0  0  0  0  0
  -28.1074  -36.2643   24.6249 H   0  0  0  0  0  0
  -27.2298  -37.1416   25.8861 H   0  0  0  0  0  0
  -20.9267  -29.8732   21.6924 H   0  0  0  0  0  0
  -26.0174  -38.2881   24.1468 H   0  0  0  0  0  0
  -30.5980  -26.2855   18.8004 H   0  0  0  0  0  0
  -32.8729  -25.2772   18.8338 H   0  0  0  0  0  0
  -29.9619  -18.7220   18.9781 H   0  0  0  0  0  0
  -31.0029  -18.3144   20.3200 H   0  0  0  0  0  0
  -30.0085  -17.8235   22.5918 H   0  0  0  0  0  0
  -28.2824  -17.7619   22.8055 H   0  0  0  0  0  0
  -27.0362  -21.2301   21.7398 H   0  0  0  0  0  0
  -26.7660  -20.1269   20.2986 H   0  0  0  0  0  0
  -30.7627  -16.3958   18.7767 H   0  0  0  0  0  0
  -29.0388  -16.4525   18.8766 H   0  0  0  0  0  0
  -28.0467  -15.7416   21.5609 H   0  0  0  0  0  0
  -29.4046  -15.4976   22.6399 H   0  0  0  0  0  0
  -27.9631  -18.1923   20.3712 H   0  0  0  0  0  0
  -29.2408  -20.1852   22.2069 H   0  0  0  0  0  0
  -28.8128  -21.0454   19.1943 H   0  0  0  0  0  0
  -31.0951  -21.3977   21.9028 H   0  0  0  0  0  0
  -32.7246  -21.5911   21.3010 H   0  0  0  0  0  0
  -31.5526  -20.6903   20.3381 H   0  0  0  0  0  0
  -27.6292  -24.7691   20.4685 H   0  0  0  0  0  0
  -27.9132  -25.1330   18.7662 H   0  0  0  0  0  0
  1 25  1  0  0  0
  1 30  2  0  0  0
  1 87  1  0  0  0
  2  3  1  0  0  0
  2 25  1  0  0  0
  2 89  1  0  0  0
  2 90  1  0  0  0
  3  4  1  0  0  0
  3 91  1  0  0  0
  3 92  1  0  0  0
  4  5  1  0  0  0
  4 93  1  0  0  0
  4 94  1  0  0  0
  5  6  1  0  0  0
  5 26  1  0  0  0
  5 95  1  0  0  0
  6 25  1  0  0  0
  6 96  1  0  0  0
  6 97  1  0  0  0
  7  8  2  0  0  0
  7 26  1  0  0  0
  7 29  1  0  0  0
  8  9  1  0  0  0
  8 22  1  0  0  0
  9 10  1  0  0  0
  9 27  2  0  0  0
 10 11  2  0  0  0
 10 15  1  0  0  0
 11 12  1  0  0  0
 11 98  1  0  0  0
 12 13  2  0  0  0
 12 99  1  0  0  0
 13 14  1  0  0  0
 13 31  1  0  0  0
 14 15  2  0  0  0
 14100  1  0  0  0
 15101  1  0  0  0
 16 17  2  0  0  0
 16 21  1  0  0  0
 16 31  1  0  0  0
 17 18  1  0  0  0
 17102  1  0  0  0
 18 19  2  0  0  0
 18103  1  0  0  0
 19 20  1  0  0  0
 19 24  1  0  0  0
 20 21  2  0  0  0
 20104  1  0  0  0
 21 23  1  0  0  0
 22 28  1  0  0  0
 22 32  2  0  0  0
 26 27  1  0  0  0
 28105  1  0  0  0
 28106  1  0  0  0
 29107  1  0  0  0
 29108  1  0  0  0
 33 34  1  0  0  0
 33 66  1  0  0  0
 33 70  2  0  0  0
 34 36  1  0  0  0
 34 59  1  0  0  0
 34109  1  0  0  0
 35 44  2  0  0  0
 35 45  1  0  0  0
 35 68  1  0  0  0
 36 56  1  0  0  0
 36110  1  0  0  0
 37 39  1  0  0  0
 37 47  1  0  0  0
 37 66  1  0  0  0
 37111  1  0  0  0
 38 43  2  0  0  0
 38 46  1  0  0  0
 38 47  1  0  0  0
 39 64  1  0  0  0
 39 67  2  0  0  0
 40 52  1  0  0  0
 40 53  2  0  0  0
 40 58  1  0  0  0
 41112  1  0  0  0
 41113  1  0  0  0
 41114  1  0  0  0
 41 48  1  0  0  0
 42 43  1  0  0  0
 42 66  1  0  0  0
 42115  1  0  0  0
 42116  1  0  0  0
 43 44  1  0  0  0
 44117  1  0  0  0
 45 46  2  0  0  0
 45118  1  0  0  0
 46119  1  0  0  0
 47120  1  0  0  0
 47121  1  0  0  0
 48 56  1  0  0  0
 48 65  1  0  0  0
 48122  1  0  0  0
 49 50  1  0  0  0
 49 53  1  0  0  0
 49 64  1  0  0  0
 49123  1  0  0  0
 50 51  1  0  0  0
 50124  1  0  0  0
 50125  1  0  0  0
 51 52  1  0  0  0
 51126  1  0  0  0
 51127  1  0  0  0
 52128  1  0  0  0
 52129  1  0  0  0
 53 54  1  0  0  0
 54 55  2  0  0  0
 54130  1  0  0  0
 55 57  1  0  0  0
 55131  1  0  0  0
 56 69  2  0  0  0
 57 58  2  0  0  0
 57132  1  0  0  0
 58133  1  0  0  0
 59 60  1  0  0  0
 59 61  1  0  0  0
 59 62  1  0  0  0
 60134  1  0  0  0
 60135  1  0  0  0
 60136  1  0  0  0
 61137  1  0  0  0
 61138  1  0  0  0
 61139  1  0  0  0
 62140  1  0  0  0
 62141  1  0  0  0
 62142  1  0  0  0
 63 65  1  0  0  0
 63143  1  0  0  0
 63144  1  0  0  0
 63145  1  0  0  0
 64146  1  0  0  0
 65147  1  0  0  0
 68 85  1  0  0  0
 71 72  2  0  0  0
 71 73  1  0  0  0
 71148  1  0  0  0
 72 86  1  0  0  0
 72149  1  0  0  0
 73 74  2  0  0  0
 73 85  1  0  0  0
 74 75  1  0  0  0
 74 88  1  0  0  0
 75 84  1  0  0  0
 75 86  2  0  0  0
 76 79  1  0  0  0
 76150  1  0  0  0
 76151  1  0  0  0
 76 81  1  0  0  0
 77 80  1  0  0  0
 77 81  1  0  0  0
 77152  1  0  0  0
 77153  1  0  0  0
 78 83  1  0  0  0
 78154  1  0  0  0
 78155  1  0  0  0
 78 82  1  0  0  0
 79 87  1  0  0  0
 79156  1  0  0  0
 79157  1  0  0  0
 80 87  1  0  0  0
 80158  1  0  0  0
 80159  1  0  0  0
 81 82  1  0  0  0
 81160  1  0  0  0
 82 83  1  0  0  0
 82161  1  0  0  0
 83 88  1  0  0  0
 83162  1  0  0  0
 84163  1  0  0  0
 84164  1  0  0  0
 84165  1  0  0  0
 85166  1  0  0  0
 85167  1  0  0  0
M  ISO  4   1 100  68 101  85 101  87 100
M  END
> <chiral flag>
0

> <version>
0

> <s_m_source_file>
/data/baiqing/PycharmProjects/Reinvent-master-3.2/result/LINK_invent/BTK/process_docking_weight1_custom_sum_contain_oxygen_bond_distance_aromatic_linkinvent_7_9_3/rearranged_h_0139.sdf

> <i_m_source_file_index>
2

> <r_mmod_Potential_Energy-OPLS-2005>
137.336013793945

> <r_mmod_Stretch_Energy-OPLS-2005>
47.6455116271973

> <r_mmod_Bend_Energy-OPLS-2005>
130.133514404297

> <r_mmod_Torsional_Energy-OPLS-2005>
392.626434326172

> <r_mmod_Improper_Torsional_Energy-OPLS-2005>
15.8500146865845

> <r_mmod_Van_der_Waal_Energy-OPLS-2005>
158.627975463867

> <r_mmod_Electrostatic_Energy-OPLS-2005>
-412.103851318359

> <r_mmod_Solvation_Energy-OPLS-2005>
-214.399261474609

> <b_mmod_Minimization_Converged-OPLS-2005>
0

> <r_mmod_RMS_Derivative-OPLS-2005>
3.56851530075073

$$$$
2
                    3D
 Structure written by MMmdl.
188198  0  0  1  0            999 V2000
  -30.6438  -14.5374   20.5189 C   0  0  0  0  0  0
  -30.4283  -12.3236   19.4526 C   0  0  0  0  0  0
  -29.4996  -12.4944   18.2280 C   0  0  0  0  0  0
  -28.0203  -12.3499   18.6353 C   0  0  0  0  0  0
  -27.6592  -13.2037   19.8781 C   0  0  2  0  0  0
  -28.6991  -13.0065   21.0076 C   0  0  0  0  0  0
  -25.2578  -13.8164   20.5686 C   0  0  0  0  0  0
  -24.1819  -13.0455   20.9192 C   0  0  0  0  0  0
  -24.6367  -11.6912   20.8762 C   0  0  0  0  0  0
  -23.9038  -10.4294   21.0430 C   0  0  0  0  0  0
  -24.3606   -9.4198   21.9207 C   0  0  0  0  0  0
  -23.6286   -8.2234   22.0767 C   0  0  0  0  0  0
  -22.4274   -8.0270   21.3542 C   0  0  0  0  0  0
  -21.9908   -9.0256   20.4646 C   0  0  0  0  0  0
  -22.7230  -10.2128   20.3068 C   0  0  0  0  0  0
  -21.6842   -6.0730   22.5285 C   0  0  0  0  0  0
  -21.4007   -6.5642   23.8218 C   0  0  0  0  0  0
  -21.3661   -5.6802   24.9180 C   0  0  0  0  0  0
  -21.6046   -4.3060   24.7247 C   0  0  0  0  0  0
  -21.8814   -3.8143   23.4366 C   0  0  0  0  0  0
  -21.9192   -4.6953   22.3414 C   0  0  0  0  0  0
  -22.7844  -13.5247   21.1862 C   0  0  0  0  0  0
  -22.1654   -4.2141   21.0991 F   0  0  0  0  0  0
  -21.5640   -3.4559   25.7760 F   0  0  0  0  0  0
  -30.0303  -13.3207   20.4613 N   0  0  0  0  0  0
  -26.3001  -12.9313   20.3380 N   0  0  0  0  0  0
  -25.9296  -11.6478   20.5793 N   0  0  0  0  0  0
  -22.0488  -12.8211   22.0400 N   0  0  0  0  0  0
  -25.4357  -15.1877   20.4077 N   0  0  0  0  0  0
  -31.7609  -14.7444   20.0402 O   0  0  0  0  0  0
  -21.6630   -6.8873   21.4237 O   0  0  0  0  0  0
  -22.3530  -14.5556   20.6734 O   0  0  0  0  0  0
  -24.6201  -31.8610   23.2090 C   0  0  0  0  0  0
  -25.9080  -32.4763   23.8386 C   0  0  1  0  0  0
  -27.2442  -27.3896   20.1067 C   0  0  0  0  0  0
  -25.5913  -33.8560   24.2325 N   0  0  0  0  0  0
  -23.4083  -30.4825   21.5533 C   0  0  2  0  0  0
  -24.8559  -28.9401   20.1183 C   0  0  0  0  0  0
  -22.7449  -29.4599   22.5043 C   0  0  0  0  0  0
  -18.0258  -28.1368   22.8453 C   0  0  0  0  0  0
  -24.1485  -36.7327   23.2639 C   0  0  0  0  0  0
  -25.9398  -30.8123   21.3673 C   0  0  0  0  0  0
  -26.0174  -29.4451   20.7146 C   0  0  0  0  0  0
  -27.2083  -28.6773   20.7012 C   0  0  0  0  0  0
  -26.0546  -26.9038   19.5116 C   0  0  0  0  0  0
  -24.8723  -27.6736   19.5162 C   0  0  0  0  0  0
  -23.6158  -29.8092   20.1700 C   0  0  0  0  0  0
  -25.4102  -36.3095   24.0346 C   0  0  1  0  0  0
  -20.5843  -28.3635   23.1334 C   0  0  2  0  0  0
  -20.6747  -26.9369   22.5435 C   0  0  0  0  0  0
  -19.5744  -26.6358   21.5205 C   0  0  0  0  0  0
  -18.1909  -26.7893   22.1600 C   0  0  0  0  0  0
  -19.1509  -28.8820   23.2854 C   0  0  0  0  0  0
  -18.9442  -30.1419   23.8876 C   0  0  0  0  0  0
  -17.6457  -30.6562   24.0542 C   0  0  0  0  0  0
  -25.9039  -34.9444   23.5147 C   0  0  0  0  0  0
  -16.5342  -29.9065   23.6324 C   0  0  0  0  0  0
  -16.7252  -28.6486   23.0325 C   0  0  0  0  0  0
  -26.4481  -31.6564   25.0750 C   0  0  0  0  0  0
  -25.3714  -31.3677   26.1486 C   0  0  0  0  0  0
  -27.0291  -30.2995   24.6154 C   0  0  0  0  0  0
  -27.6081  -32.4270   25.7492 C   0  0  0  0  0  0
  -27.5576  -37.1802   24.8449 C   0  0  0  0  0  0
  -21.4179  -29.2997   22.3767 N   0  0  0  0  0  0
  -26.4284  -37.3790   23.9410 N   0  0  0  0  0  0
  -24.6752  -31.0662   22.1015 N   0  0  0  0  0  0
  -23.4196  -28.8110   23.3069 O   0  0  0  0  0  0
  -28.4390  -26.6790   20.1545 O   0  0  0  0  0  0
  -26.5606  -34.8882   22.4716 O   0  0  0  0  0  0
  -23.5397  -32.1410   23.7486 O   0  0  0  0  0  0
  -26.3226  -24.7445   23.3597 C   0  0  0  0  0  0
  -25.4802  -23.6459   23.1974 C   0  0  0  0  0  0
  -27.4540  -24.8396   22.5508 C   0  0  0  0  0  0
  -25.7812  -22.6118   22.2860 C   0  0  0  0  0  0
  -27.0225  -22.6005   21.5561 C   0  0  0  0  0  0
  -27.7964  -23.8251   21.6271 C   0  0  0  0  0  0
  -23.9631  -21.2930   20.8548 C   0  0  0  0  0  0
  -23.2596  -22.0675   21.9349 C   0  0  0  0  0  0
  -28.1779  -21.2594   19.4483 C   0  0  0  0  0  0
  -29.2832  -20.1919   19.6207 C   0  0  0  0  0  0
  -24.6827  -21.5907   22.1556 C   0  0  0  0  0  0
  -27.4043  -21.2685   20.7912 C   0  0  1  0  0  0
  -28.0570  -20.0950   21.6215 C   0  0  1  0  0  0
  -28.3671  -19.2842   26.1828 C   0  0  0  0  0  0
  -25.8237  -18.7065   24.5757 C   0  0  0  0  0  0
  -28.9720  -24.2484   20.7491 C   0  0  0  0  0  0
  -27.0584  -19.2240   22.4462 C   0  0  0  0  0  0
  -28.3360  -19.0387   24.6659 C   0  0  0  0  0  0
  -29.6737  -16.8613   20.2193 C   0  0  0  0  0  0
  -29.6507  -18.1462   21.1170 C   0  0  0  0  0  0
  -28.5943  -25.3171   19.6663 C   0  0  0  0  0  0
  -27.0201  -19.4697   23.9732 C   0  0  2  0  0  0
  -29.8488  -15.5591   20.9186 N   0  0  0  0  0  0
  -28.7328  -19.2343   20.6046 N   0  3  2  0  0  0
  -31.4757  -12.4266   19.1574 H   0  0  0  0  0  0
  -30.3358  -11.3187   19.8689 H   0  0  0  0  0  0
  -29.7466  -11.7580   17.4614 H   0  0  0  0  0  0
  -29.6605  -13.4744   17.7762 H   0  0  0  0  0  0
  -27.8368  -11.2959   18.8470 H   0  0  0  0  0  0
  -27.3719  -12.6068   17.7971 H   0  0  0  0  0  0
  -27.6943  -14.2455   19.5605 H   0  0  0  0  0  0
  -28.6810  -11.9754   21.3632 H   0  0  0  0  0  0
  -28.4558  -13.6191   21.8762 H   0  0  0  0  0  0
  -25.2752   -9.5682   22.4776 H   0  0  0  0  0  0
  -24.0002   -7.4626   22.7485 H   0  0  0  0  0  0
  -21.0846   -8.8765   19.8950 H   0  0  0  0  0  0
  -22.3707  -10.9665   19.6178 H   0  0  0  0  0  0
  -21.1980   -7.6143   23.9715 H   0  0  0  0  0  0
  -21.1497   -6.0538   25.9086 H   0  0  0  0  0  0
  -22.0588   -2.7615   23.2885 H   0  0  0  0  0  0
  -22.4092  -11.9867   22.4760 H   0  0  0  0  0  0
  -21.1112  -13.1241   22.2632 H   0  0  0  0  0  0
  -24.6784  -15.8542   20.5119 H   0  0  0  0  0  0
  -26.2886  -15.6059   20.0614 H   0  0  0  0  0  0
  -26.7131  -32.5457   23.1125 H   0  0  0  0  0  0
  -24.9987  -33.9642   25.0414 H   0  0  0  0  0  0
  -22.7005  -31.3024   21.4125 H   0  0  0  0  0  0
  -23.3735  -35.9673   23.3300 H   0  0  0  0  0  0
  -24.3586  -36.8978   22.2057 H   0  0  0  0  0  0
  -23.7230  -37.6530   23.6660 H   0  0  0  0  0  0
  -26.0504  -31.5728   20.5934 H   0  0  0  0  0  0
  -26.8283  -30.8730   21.9854 H   0  0  0  0  0  0
  -28.1054  -29.0621   21.1668 H   0  0  0  0  0  0
  -25.9992  -25.9301   19.0533 H   0  0  0  0  0  0
  -23.9730  -27.2817   19.0597 H   0  0  0  0  0  0
  -23.7127  -30.5829   19.4090 H   0  0  0  0  0  0
  -22.7405  -29.2280   19.8738 H   0  0  0  0  0  0
  -25.1257  -36.1993   25.0840 H   0  0  0  0  0  0
  -20.9850  -28.3188   24.1487 H   0  0  0  0  0  0
  -20.5687  -26.2214   23.3611 H   0  0  0  0  0  0
  -21.6614  -26.7413   22.1217 H   0  0  0  0  0  0
  -19.6942  -25.6277   21.1224 H   0  0  0  0  0  0
  -19.6719  -27.3168   20.6737 H   0  0  0  0  0  0
  -17.4181  -26.6635   21.3992 H   0  0  0  0  0  0
  -18.0314  -26.0029   22.8990 H   0  0  0  0  0  0
  -19.7924  -30.7204   24.2262 H   0  0  0  0  0  0
  -17.5006  -31.6240   24.5138 H   0  0  0  0  0  0
  -15.5341  -30.2948   23.7660 H   0  0  0  0  0  0
  -15.8646  -28.0799   22.7057 H   0  0  0  0  0  0
  -24.5912  -30.6998   25.7822 H   0  0  0  0  0  0
  -24.8834  -32.2804   26.4915 H   0  0  0  0  0  0
  -25.8026  -30.8862   27.0270 H   0  0  0  0  0  0
  -26.2828  -29.6783   24.1190 H   0  0  0  0  0  0
  -27.4007  -29.7217   25.4632 H   0  0  0  0  0  0
  -27.8700  -30.4300   23.9339 H   0  0  0  0  0  0
  -27.2759  -33.3600   26.2051 H   0  0  0  0  0  0
  -28.3883  -32.6783   25.0291 H   0  0  0  0  0  0
  -28.0751  -31.8392   26.5403 H   0  0  0  0  0  0
  -28.2572  -38.0111   24.7498 H   0  0  0  0  0  0
  -28.1079  -36.2637   24.6266 H   0  0  0  0  0  0
  -27.2284  -37.1466   25.8844 H   0  0  0  0  0  0
  -20.9423  -29.8722   21.6947 H   0  0  0  0  0  0
  -26.0204  -38.2885   24.1408 H   0  0  0  0  0  0
  -26.0706  -25.5380   24.0510 H   0  0  0  0  0  0
  -24.5656  -23.6101   23.7748 H   0  0  0  0  0  0
  -28.0561  -25.7353   22.6260 H   0  0  0  0  0  0
  -24.2630  -21.8357   19.9598 H   0  0  0  0  0  0
  -23.6156  -20.2764   20.6871 H   0  0  0  0  0  0
  -22.4589  -21.5537   22.4621 H   0  0  0  0  0  0
  -23.0939  -23.1290   21.7566 H   0  0  0  0  0  0
  -27.4987  -20.9225   18.6629 H   0  0  0  0  0  0
  -28.5385  -22.2051   19.0688 H   0  0  0  0  0  0
  -30.1821  -20.6593   20.0281 H   0  0  0  0  0  0
  -29.5579  -19.7069   18.6822 H   0  0  0  0  0  0
  -24.7735  -20.8240   22.9152 H   0  0  0  0  0  0
  -26.4518  -20.8697   20.4573 H   0  0  0  0  0  0
  -28.8376  -20.5168   22.2554 H   0  0  0  0  0  0
  -29.3650  -19.0975   26.5813 H   0  0  0  0  0  0
  -27.6827  -18.6191   26.7124 H   0  0  0  0  0  0
  -28.0993  -20.3130   26.4290 H   0  0  0  0  0  0
  -24.8819  -18.9564   24.0870 H   0  0  0  0  0  0
  -25.6902  -18.9327   25.6327 H   0  0  0  0  0  0
  -25.9593  -17.6283   24.4795 H   0  0  0  0  0  0
  -29.5036  -23.4041   20.3298 H   0  0  0  0  0  0
  -29.7280  -24.6916   21.3969 H   0  0  0  0  0  0
  -27.2478  -18.1600   22.3059 H   0  0  0  0  0  0
  -26.0650  -19.3275   22.0176 H   0  0  0  0  0  0
  -28.5286  -17.9815   24.4788 H   0  0  0  0  0  0
  -29.1793  -19.5728   24.2296 H   0  0  0  0  0  0
  -30.4343  -16.9815   19.4470 H   0  0  0  0  0  0
  -28.7270  -16.7767   19.6850 H   0  0  0  0  0  0
  -30.6600  -18.5428   21.2273 H   0  0  0  0  0  0
  -29.3664  -17.8512   22.1251 H   0  0  0  0  0  0
  -27.7821  -24.9520   19.0447 H   0  0  0  0  0  0
  -29.4429  -25.3761   18.9862 H   0  0  0  0  0  0
  -26.8720  -20.5389   24.1422 H   0  0  0  0  0  0
  -29.0391  -15.2522   21.4387 H   0  0  0  0  0  0
  -27.9762  -18.7657   20.1291 H   0  0  0  0  0  0
  1 25  1  0  0  0
  1 30  2  0  0  0
  1 93  1  0  0  0
  2  3  1  0  0  0
  2 25  1  0  0  0
  2 95  1  0  0  0
  2 96  1  0  0  0
  3  4  1  0  0  0
  3 97  1  0  0  0
  3 98  1  0  0  0
  4  5  1  0  0  0
  4 99  1  0  0  0
  4100  1  0  0  0
  5  6  1  0  0  0
  5 26  1  0  0  0
  5101  1  0  0  0
  6 25  1  0  0  0
  6102  1  0  0  0
  6103  1  0  0  0
  7  8  2  0  0  0
  7 26  1  0  0  0
  7 29  1  0  0  0
  8  9  1  0  0  0
  8 22  1  0  0  0
  9 10  1  0  0  0
  9 27  2  0  0  0
 10 11  2  0  0  0
 10 15  1  0  0  0
 11 12  1  0  0  0
 11104  1  0  0  0
 12 13  2  0  0  0
 12105  1  0  0  0
 13 14  1  0  0  0
 13 31  1  0  0  0
 14 15  2  0  0  0
 14106  1  0  0  0
 15107  1  0  0  0
 16 17  2  0  0  0
 16 21  1  0  0  0
 16 31  1  0  0  0
 17 18  1  0  0  0
 17108  1  0  0  0
 18 19  2  0  0  0
 18109  1  0  0  0
 19 20  1  0  0  0
 19 24  1  0  0  0
 20 21  2  0  0  0
 20110  1  0  0  0
 21 23  1  0  0  0
 22 28  1  0  0  0
 22 32  2  0  0  0
 26 27  1  0  0  0
 28111  1  0  0  0
 28112  1  0  0  0
 29113  1  0  0  0
 29114  1  0  0  0
 33 34  1  0  0  0
 33 66  1  0  0  0
 33 70  2  0  0  0
 34 36  1  0  0  0
 34 59  1  0  0  0
 34115  1  0  0  0
 35 44  2  0  0  0
 35 45  1  0  0  0
 35 68  1  0  0  0
 36 56  1  0  0  0
 36116  1  0  0  0
 37 39  1  0  0  0
 37 47  1  0  0  0
 37 66  1  0  0  0
 37117  1  0  0  0
 38 43  2  0  0  0
 38 46  1  0  0  0
 38 47  1  0  0  0
 39 64  1  0  0  0
 39 67  2  0  0  0
 40 52  1  0  0  0
 40 53  2  0  0  0
 40 58  1  0  0  0
 41118  1  0  0  0
 41119  1  0  0  0
 41120  1  0  0  0
 41 48  1  0  0  0
 42 43  1  0  0  0
 42 66  1  0  0  0
 42121  1  0  0  0
 42122  1  0  0  0
 43 44  1  0  0  0
 44123  1  0  0  0
 45 46  2  0  0  0
 45124  1  0  0  0
 46125  1  0  0  0
 47126  1  0  0  0
 47127  1  0  0  0
 48 56  1  0  0  0
 48 65  1  0  0  0
 48128  1  0  0  0
 49 50  1  0  0  0
 49 53  1  0  0  0
 49 64  1  0  0  0
 49129  1  0  0  0
 50 51  1  0  0  0
 50130  1  0  0  0
 50131  1  0  0  0
 51 52  1  0  0  0
 51132  1  0  0  0
 51133  1  0  0  0
 52134  1  0  0  0
 52135  1  0  0  0
 53 54  1  0  0  0
 54 55  2  0  0  0
 54136  1  0  0  0
 55 57  1  0  0  0
 55137  1  0  0  0
 56 69  2  0  0  0
 57 58  2  0  0  0
 57138  1  0  0  0
 58139  1  0  0  0
 59 60  1  0  0  0
 59 61  1  0  0  0
 59 62  1  0  0  0
 60140  1  0  0  0
 60141  1  0  0  0
 60142  1  0  0  0
 61143  1  0  0  0
 61144  1  0  0  0
 61145  1  0  0  0
 62146  1  0  0  0
 62147  1  0  0  0
 62148  1  0  0  0
 63 65  1  0  0  0
 63149  1  0  0  0
 63150  1  0  0  0
 63151  1  0  0  0
 64152  1  0  0  0
 65153  1  0  0  0
 68 91  1  0  0  0
 71 72  2  0  0  0
 71 73  1  0  0  0
 71154  1  0  0  0
 72 74  1  0  0  0
 72155  1  0  0  0
 73 76  2  0  0  0
 73156  1  0  0  0
 74 75  2  0  0  0
 74 81  1  0  0  0
 75 76  1  0  0  0
 75 82  1  0  0  0
 76 86  1  0  0  0
 77 78  1  0  0  0
 77 81  1  0  0  0
 77157  1  0  0  0
 77158  1  0  0  0
 78 81  1  0  0  0
 78159  1  0  0  0
 78160  1  0  0  0
 79 80  1  0  0  0
 79 82  1  0  0  0
 79161  1  0  0  0
 79162  1  0  0  0
 80 94  1  0  0  0
 80163  1  0  0  0
 80164  1  0  0  0
 81165  1  0  0  0
 82 83  1  0  0  0
 82166  1  0  0  0
 83 87  1  0  0  0
 83 94  1  0  0  0
 83167  1  0  0  0
 84 88  1  0  0  0
 84168  1  0  0  0
 84169  1  0  0  0
 84170  1  0  0  0
 85171  1  0  0  0
 85172  1  0  0  0
 85173  1  0  0  0
 85 92  1  0  0  0
 86 91  1  0  0  0
 86174  1  0  0  0
 86175  1  0  0  0
 87 92  1  0  0  0
 87176  1  0  0  0
 87177  1  0  0  0
 88 92  1  0  0  0
 88178  1  0  0  0
 88179  1  0  0  0
 89 90  1  0  0  0
 89 93  1  0  0  0
 89180  1  0  0  0
 89181  1  0  0  0
 90182  1  0  0  0
 90183  1  0  0  0
 90 94  1  0  0  0
 91184  1  0  0  0
 91185  1  0  0  0
 92186  1  0  0  0
 93187  1  0  0  0
 94188  1  0  0  0
M  CHG  1  94   1
M  ISO  4   1 100  68 101  91 101  93 100
M  END
> <chiral flag>
0

> <version>
0

> <s_m_source_file>
/data/baiqing/PycharmProjects/Reinvent-master-3.2/result/LINK_invent/BTK/process_docking_weight1_custom_sum_contain_oxygen_bond_distance_aromatic_linkinvent_7_9_3/rearranged_h_0139.sdf

> <i_m_source_file_index>
3

> <r_mmod_Potential_Energy-OPLS-2005>
94.8857574462891

> <r_mmod_Stretch_Energy-OPLS-2005>
67.8839645385742

> <r_mmod_Bend_Energy-OPLS-2005>
211.153671264648

> <r_mmod_Torsional_Energy-OPLS-2005>
363.391845703125

> <r_mmod_Improper_Torsional_Energy-OPLS-2005>
7.99923992156982

> <r_mmod_Van_der_Waal_Energy-OPLS-2005>
139.001220703125

> <r_mmod_Electrostatic_Energy-OPLS-2005>
-266.680084228516

> <r_mmod_Solvation_Energy-OPLS-2005>
-450.401214599609

> <b_mmod_Minimization_Converged-OPLS-2005>
0

> <r_mmod_RMS_Derivative-OPLS-2005>
3.84809565544128

$$$$
3
                    3D
 Structure written by MMmdl.
171180  0  0  1  0            999 V2000
  -30.7268  -14.5814   20.5316 C   0  0  0  0  0  0
  -30.4275  -12.3731   19.4472 C   0  0  0  0  0  0
  -29.5127  -12.5154   18.2148 C   0  0  0  0  0  0
  -28.0281  -12.3787   18.6113 C   0  0  0  0  0  0
  -27.6520  -13.2378   19.8485 C   0  0  2  0  0  0
  -28.7032  -13.1062   20.9801 C   0  0  0  0  0  0
  -25.2521  -13.8210   20.5638 C   0  0  0  0  0  0
  -24.1808  -13.0415   20.9146 C   0  0  0  0  0  0
  -24.6405  -11.6938   20.8669 C   0  0  0  0  0  0
  -23.9063  -10.4271   21.0347 C   0  0  0  0  0  0
  -24.3608   -9.4181   21.9130 C   0  0  0  0  0  0
  -23.6273   -8.2225   22.0724 C   0  0  0  0  0  0
  -22.4241   -8.0254   21.3561 C   0  0  0  0  0  0
  -21.9894   -9.0200   20.4645 C   0  0  0  0  0  0
  -22.7219  -10.2086   20.3001 C   0  0  0  0  0  0
  -21.6852   -6.0715   22.5258 C   0  0  0  0  0  0
  -21.4053   -6.5631   23.8196 C   0  0  0  0  0  0
  -21.3648   -5.6775   24.9169 C   0  0  0  0  0  0
  -21.6025   -4.3030   24.7225 C   0  0  0  0  0  0
  -21.8825   -3.8126   23.4354 C   0  0  0  0  0  0
  -21.9207   -4.6942   22.3410 C   0  0  0  0  0  0
  -22.7806  -13.5198   21.1751 C   0  0  0  0  0  0
  -22.1662   -4.2120   21.0982 F   0  0  0  0  0  0
  -21.5596   -3.4513   25.7748 F   0  0  0  0  0  0
  -30.0256  -13.4124   20.4135 N   0  0  0  0  0  0
  -26.2982  -12.9441   20.3207 N   0  0  0  0  0  0
  -25.9346  -11.6562   20.5700 N   0  0  0  0  0  0
  -22.0488  -12.8206   22.0382 N   0  0  0  0  0  0
  -25.4148  -15.1924   20.4072 N   0  0  0  0  0  0
  -31.8822  -14.6734   20.1183 O   0  0  0  0  0  0
  -21.6637   -6.8850   21.4225 O   0  0  0  0  0  0
  -22.3486  -14.5444   20.6537 O   0  0  0  0  0  0
  -24.6270  -31.8680   23.2088 C   0  0  0  0  0  0
  -25.9140  -32.4831   23.8414 C   0  0  1  0  0  0
  -27.2060  -27.3658   20.0913 C   0  0  0  0  0  0
  -25.5960  -33.8626   24.2327 N   0  0  0  0  0  0
  -23.4221  -30.4935   21.5470 C   0  0  2  0  0  0
  -24.8772  -28.9791   20.0852 C   0  0  0  0  0  0
  -22.7503  -29.4663   22.4915 C   0  0  0  0  0  0
  -18.0324  -28.1366   22.8483 C   0  0  0  0  0  0
  -24.1507  -36.7314   23.2625 C   0  0  0  0  0  0
  -25.9612  -30.8006   21.3929 C   0  0  0  0  0  0
  -26.0320  -29.4348   20.7330 C   0  0  0  0  0  0
  -27.1975  -28.6163   20.7733 C   0  0  0  0  0  0
  -26.0947  -27.0373   19.2998 C   0  0  0  0  0  0
  -24.9077  -27.7786   19.3607 C   0  0  0  0  0  0
  -23.6392  -29.8444   20.1537 C   0  0  0  0  0  0
  -25.4133  -36.3131   24.0327 C   0  0  1  0  0  0
  -20.5922  -28.3760   23.1285 C   0  0  2  0  0  0
  -20.6817  -26.9446   22.5514 C   0  0  0  0  0  0
  -19.5834  -26.6362   21.5285 C   0  0  0  0  0  0
  -18.2016  -26.7862   22.1698 C   0  0  0  0  0  0
  -19.1567  -28.8895   23.2860 C   0  0  0  0  0  0
  -18.9425  -30.1498   23.8850 C   0  0  0  0  0  0
  -17.6397  -30.6598   24.0472 C   0  0  0  0  0  0
  -25.9064  -34.9495   23.5125 C   0  0  0  0  0  0
  -16.5321  -29.9058   23.6235 C   0  0  0  0  0  0
  -16.7289  -28.6435   23.0349 C   0  0  0  0  0  0
  -26.4535  -31.6597   25.0732 C   0  0  0  0  0  0
  -25.3733  -31.3725   26.1396 C   0  0  0  0  0  0
  -27.0340  -30.3005   24.6159 C   0  0  0  0  0  0
  -27.6103  -32.4293   25.7502 C   0  0  0  0  0  0
  -27.5586  -37.1835   24.8467 C   0  0  0  0  0  0
  -21.4218  -29.3100   22.3644 N   0  0  0  0  0  0
  -26.4309  -37.3809   23.9393 N   0  0  0  0  0  0
  -24.6848  -31.0684   22.1063 N   0  0  0  0  0  0
  -23.4234  -28.8158   23.2954 O   0  0  0  0  0  0
  -28.1557  -26.3589   20.2469 O   0  0  0  0  0  0
  -26.5587  -34.8950   22.4665 O   0  0  0  0  0  0
  -23.5428  -32.1493   23.7405 O   0  0  0  0  0  0
  -28.6635  -22.3389   23.3781 C   0  0  0  0  0  0
  -29.3295  -21.4812   22.4888 C   0  0  0  0  0  0
  -29.2280  -23.2092   20.7556 C   0  0  0  0  0  0
  -28.2287  -23.6046   22.9464 C   0  0  0  0  0  0
  -28.5452  -24.0968   21.6512 C   0  0  0  0  0  0
  -29.5735  -21.8717   21.1567 C   0  0  0  0  0  0
  -27.2203  -24.3717   23.7985 C   0  0  0  0  0  0
  -25.9616  -24.7459   22.9623 C   0  0  0  0  0  0
  -27.7227  -25.3736   21.2697 C   0  0  2  0  0  0
  -26.2137  -24.8840   21.4168 C   0  0  1  0  0  0
  -24.3468  -23.1888   20.6625 C   0  0  0  0  0  0
  -26.2513  -23.5555   19.1197 C   0  0  0  0  0  0
  -29.8822  -18.3272   20.7365 C   0  0  0  0  0  0
  -30.7469  -19.6477   20.6488 C   0  0  0  0  0  0
  -30.7227  -17.0532   21.1062 C   0  0  0  0  0  0
  -25.8453  -23.5652   20.6139 C   0  0  0  0  0  0
  -30.0558  -20.9030   20.2405 N   0  0  0  0  0  0
  -30.0798  -15.6998   20.9647 N   0  0  0  0  0  0
  -31.4739  -12.4610   19.1486 H   0  0  0  0  0  0
  -30.3214  -11.3858   19.8973 H   0  0  0  0  0  0
  -29.7725  -11.7716   17.4596 H   0  0  0  0  0  0
  -29.6751  -13.4869   17.7509 H   0  0  0  0  0  0
  -27.8294  -11.3266   18.8072 H   0  0  0  0  0  0
  -27.3937  -12.6458   17.7624 H   0  0  0  0  0  0
  -27.6618  -14.2727   19.5033 H   0  0  0  0  0  0
  -28.7042  -12.0926   21.3754 H   0  0  0  0  0  0
  -28.4630  -13.7654   21.8140 H   0  0  0  0  0  0
  -25.2789   -9.5654   22.4686 H   0  0  0  0  0  0
  -23.9966   -7.4655   22.7465 H   0  0  0  0  0  0
  -21.0802   -8.8709   19.8999 H   0  0  0  0  0  0
  -22.3649  -10.9588   19.6074 H   0  0  0  0  0  0
  -21.2087   -7.6143   23.9710 H   0  0  0  0  0  0
  -21.1445   -6.0511   25.9073 H   0  0  0  0  0  0
  -22.0634   -2.7578   23.2867 H   0  0  0  0  0  0
  -22.4167  -11.9960   22.4867 H   0  0  0  0  0  0
  -21.1060  -13.1211   22.2496 H   0  0  0  0  0  0
  -24.6434  -15.8415   20.5073 H   0  0  0  0  0  0
  -26.2585  -15.6380   20.0710 H   0  0  0  0  0  0
  -26.7195  -32.5561   23.1166 H   0  0  0  0  0  0
  -25.0195  -33.9797   25.0524 H   0  0  0  0  0  0
  -22.7174  -31.3146   21.4079 H   0  0  0  0  0  0
  -23.3780  -35.9637   23.3311 H   0  0  0  0  0  0
  -24.3590  -36.8904   22.2034 H   0  0  0  0  0  0
  -23.7252  -37.6524   23.6614 H   0  0  0  0  0  0
  -26.0890  -31.5690   20.6293 H   0  0  0  0  0  0
  -26.8400  -30.8522   22.0203 H   0  0  0  0  0  0
  -28.0440  -28.9085   21.3783 H   0  0  0  0  0  0
  -26.1252  -26.1423   18.7115 H   0  0  0  0  0  0
  -24.0357  -27.4442   18.8094 H   0  0  0  0  0  0
  -23.7492  -30.6301   19.4035 H   0  0  0  0  0  0
  -22.7672  -29.2637   19.8476 H   0  0  0  0  0  0
  -25.1318  -36.1997   25.0815 H   0  0  0  0  0  0
  -20.9989  -28.3422   24.1416 H   0  0  0  0  0  0
  -20.5636  -26.2406   23.3767 H   0  0  0  0  0  0
  -21.6715  -26.7408   22.1404 H   0  0  0  0  0  0
  -19.7051  -25.6267   21.1354 H   0  0  0  0  0  0
  -19.6781  -27.3164   20.6813 H   0  0  0  0  0  0
  -17.4259  -26.6485   21.4147 H   0  0  0  0  0  0
  -18.0494  -26.0082   22.9200 H   0  0  0  0  0  0
  -19.7886  -30.7352   24.2218 H   0  0  0  0  0  0
  -17.4924  -31.6316   24.4996 H   0  0  0  0  0  0
  -15.5310  -30.2936   23.7506 H   0  0  0  0  0  0
  -15.8707  -28.0693   22.7101 H   0  0  0  0  0  0
  -24.5962  -30.7024   25.7686 H   0  0  0  0  0  0
  -24.8855  -32.2891   26.4729 H   0  0  0  0  0  0
  -25.8019  -30.8954   27.0219 H   0  0  0  0  0  0
  -26.2905  -29.6775   24.1161 H   0  0  0  0  0  0
  -27.4010  -29.7218   25.4654 H   0  0  0  0  0  0
  -27.8814  -30.4257   23.9402 H   0  0  0  0  0  0
  -27.2746  -33.3614   26.2063 H   0  0  0  0  0  0
  -28.3945  -32.6813   25.0341 H   0  0  0  0  0  0
  -28.0740  -31.8405   26.5431 H   0  0  0  0  0  0
  -28.2644  -38.0097   24.7490 H   0  0  0  0  0  0
  -28.1046  -36.2629   24.6345 H   0  0  0  0  0  0
  -27.2277  -37.1549   25.8862 H   0  0  0  0  0  0
  -20.9392  -29.8917   21.6936 H   0  0  0  0  0  0
  -26.0215  -38.2899   24.1344 H   0  0  0  0  0  0
  -28.3888  -21.9761   24.3557 H   0  0  0  0  0  0
  -29.5622  -20.4814   22.8273 H   0  0  0  0  0  0
  -29.3726  -23.5095   19.7259 H   0  0  0  0  0  0
  -27.7062  -25.2704   24.1911 H   0  0  0  0  0  0
  -26.9228  -23.8070   24.6796 H   0  0  0  0  0  0
  -25.5583  -25.6807   23.3583 H   0  0  0  0  0  0
  -25.1801  -24.0141   23.1616 H   0  0  0  0  0  0
  -27.8854  -26.0485   22.1087 H   0  0  0  0  0  0
  -25.4837  -25.6347   21.1359 H   0  0  0  0  0  0
  -23.9535  -23.1053   21.6732 H   0  0  0  0  0  0
  -24.1817  -22.2160   20.1944 H   0  0  0  0  0  0
  -23.7315  -23.9106   20.1225 H   0  0  0  0  0  0
  -27.2487  -23.9587   18.9505 H   0  0  0  0  0  0
  -25.5542  -24.1158   18.4958 H   0  0  0  0  0  0
  -26.2521  -22.5381   18.7223 H   0  0  0  0  0  0
  -29.0838  -18.4612   21.4704 H   0  0  0  0  0  0
  -29.4043  -18.1596   19.7731 H   0  0  0  0  0  0
  -31.5276  -19.4918   19.9021 H   0  0  0  0  0  0
  -31.2899  -19.8058   21.5851 H   0  0  0  0  0  0
  -31.0522  -17.1423   22.1428 H   0  0  0  0  0  0
  -31.6287  -17.0944   20.5041 H   0  0  0  0  0  0
  -26.3781  -22.7335   21.0793 H   0  0  0  0  0  0
  -30.1235  -21.1689   19.2608 H   0  0  0  0  0  0
  -29.1159  -15.6017   21.2624 H   0  0  0  0  0  0
  1 25  1  0  0  0
  1 30  2  0  0  0
  1 88  1  0  0  0
  2  3  1  0  0  0
  2 25  1  0  0  0
  2 89  1  0  0  0
  2 90  1  0  0  0
  3  4  1  0  0  0
  3 91  1  0  0  0
  3 92  1  0  0  0
  4  5  1  0  0  0
  4 93  1  0  0  0
  4 94  1  0  0  0
  5  6  1  0  0  0
  5 26  1  0  0  0
  5 95  1  0  0  0
  6 25  1  0  0  0
  6 96  1  0  0  0
  6 97  1  0  0  0
  7  8  2  0  0  0
  7 26  1  0  0  0
  7 29  1  0  0  0
  8  9  1  0  0  0
  8 22  1  0  0  0
  9 10  1  0  0  0
  9 27  2  0  0  0
 10 11  2  0  0  0
 10 15  1  0  0  0
 11 12  1  0  0  0
 11 98  1  0  0  0
 12 13  2  0  0  0
 12 99  1  0  0  0
 13 14  1  0  0  0
 13 31  1  0  0  0
 14 15  2  0  0  0
 14100  1  0  0  0
 15101  1  0  0  0
 16 17  2  0  0  0
 16 21  1  0  0  0
 16 31  1  0  0  0
 17 18  1  0  0  0
 17102  1  0  0  0
 18 19  2  0  0  0
 18103  1  0  0  0
 19 20  1  0  0  0
 19 24  1  0  0  0
 20 21  2  0  0  0
 20104  1  0  0  0
 21 23  1  0  0  0
 22 28  1  0  0  0
 22 32  2  0  0  0
 26 27  1  0  0  0
 28105  1  0  0  0
 28106  1  0  0  0
 29107  1  0  0  0
 29108  1  0  0  0
 33 34  1  0  0  0
 33 66  1  0  0  0
 33 70  2  0  0  0
 34 36  1  0  0  0
 34 59  1  0  0  0
 34109  1  0  0  0
 35 44  2  0  0  0
 35 45  1  0  0  0
 35 68  1  0  0  0
 36 56  1  0  0  0
 36110  1  0  0  0
 37 39  1  0  0  0
 37 47  1  0  0  0
 37 66  1  0  0  0
 37111  1  0  0  0
 38 43  2  0  0  0
 38 46  1  0  0  0
 38 47  1  0  0  0
 39 64  1  0  0  0
 39 67  2  0  0  0
 40 52  1  0  0  0
 40 53  2  0  0  0
 40 58  1  0  0  0
 41112  1  0  0  0
 41113  1  0  0  0
 41114  1  0  0  0
 41 48  1  0  0  0
 42 43  1  0  0  0
 42 66  1  0  0  0
 42115  1  0  0  0
 42116  1  0  0  0
 43 44  1  0  0  0
 44117  1  0  0  0
 45 46  2  0  0  0
 45118  1  0  0  0
 46119  1  0  0  0
 47120  1  0  0  0
 47121  1  0  0  0
 48 56  1  0  0  0
 48 65  1  0  0  0
 48122  1  0  0  0
 49 50  1  0  0  0
 49 53  1  0  0  0
 49 64  1  0  0  0
 49123  1  0  0  0
 50 51  1  0  0  0
 50124  1  0  0  0
 50125  1  0  0  0
 51 52  1  0  0  0
 51126  1  0  0  0
 51127  1  0  0  0
 52128  1  0  0  0
 52129  1  0  0  0
 53 54  1  0  0  0
 54 55  2  0  0  0
 54130  1  0  0  0
 55 57  1  0  0  0
 55131  1  0  0  0
 56 69  2  0  0  0
 57 58  2  0  0  0
 57132  1  0  0  0
 58133  1  0  0  0
 59 60  1  0  0  0
 59 61  1  0  0  0
 59 62  1  0  0  0
 60134  1  0  0  0
 60135  1  0  0  0
 60136  1  0  0  0
 61137  1  0  0  0
 61138  1  0  0  0
 61139  1  0  0  0
 62140  1  0  0  0
 62141  1  0  0  0
 62142  1  0  0  0
 63 65  1  0  0  0
 63143  1  0  0  0
 63144  1  0  0  0
 63145  1  0  0  0
 64146  1  0  0  0
 65147  1  0  0  0
 68 79  1  0  0  0
 71 72  2  0  0  0
 71 74  1  0  0  0
 71148  1  0  0  0
 72 76  1  0  0  0
 72149  1  0  0  0
 73 75  1  0  0  0
 73 76  2  0  0  0
 73150  1  0  0  0
 74 75  2  0  0  0
 74 77  1  0  0  0
 75 79  1  0  0  0
 76 87  1  0  0  0
 77 78  1  0  0  0
 77151  1  0  0  0
 77152  1  0  0  0
 78153  1  0  0  0
 78154  1  0  0  0
 78 80  1  0  0  0
 79 80  1  0  0  0
 79155  1  0  0  0
 80 86  1  0  0  0
 80156  1  0  0  0
 81157  1  0  0  0
 81158  1  0  0  0
 81159  1  0  0  0
 81 86  1  0  0  0
 82 86  1  0  0  0
 82160  1  0  0  0
 82161  1  0  0  0
 82162  1  0  0  0
 83 84  1  0  0  0
 83 85  1  0  0  0
 83163  1  0  0  0
 83164  1  0  0  0
 84 87  1  0  0  0
 84165  1  0  0  0
 84166  1  0  0  0
 85 88  1  0  0  0
 85167  1  0  0  0
 85168  1  0  0  0
 86169  1  0  0  0
 87170  1  0  0  0
 88171  1  0  0  0
M  ISO  4   1 100  68 101  79 101  88 100
M  END
> <chiral flag>
0

> <version>
0

> <s_m_source_file>
/data/baiqing/PycharmProjects/Reinvent-master-3.2/result/LINK_invent/BTK/process_docking_weight1_custom_sum_contain_oxygen_bond_distance_aromatic_linkinvent_7_9_3/rearranged_h_0139.sdf

> <i_m_source_file_index>
4

> <r_mmod_Potential_Energy-OPLS-2005>
230.173828125

> <r_mmod_Stretch_Energy-OPLS-2005>
79.6962509155273

> <r_mmod_Bend_Energy-OPLS-2005>
192.197937011719

> <r_mmod_Torsional_Energy-OPLS-2005>
282.701538085938

> <r_mmod_Improper_Torsional_Energy-OPLS-2005>
9.82554721832275

> <r_mmod_Van_der_Waal_Energy-OPLS-2005>
176.041946411133

> <r_mmod_Electrostatic_Energy-OPLS-2005>
-363.695526123047

> <r_mmod_Solvation_Energy-OPLS-2005>
-210.639556884766

> <b_mmod_Minimization_Converged-OPLS-2005>
0

> <r_mmod_RMS_Derivative-OPLS-2005>
8.23495960235596

$$$$
4
                    3D
 Structure written by MMmdl.
174183  0  0  1  0            999 V2000
  -30.7884  -14.3588   20.6528 C   0  0  0  0  0  0
  -30.4057  -12.2758   19.4028 C   0  0  0  0  0  0
  -29.4782  -12.5135   18.1987 C   0  0  0  0  0  0
  -28.0043  -12.3778   18.6170 C   0  0  0  0  0  0
  -27.6643  -13.2066   19.8833 C   0  0  2  0  0  0
  -28.7046  -12.9699   21.0021 C   0  0  0  0  0  0
  -25.2584  -13.8182   20.5700 C   0  0  0  0  0  0
  -24.1819  -13.0456   20.9158 C   0  0  0  0  0  0
  -24.6363  -11.6919   20.8712 C   0  0  0  0  0  0
  -23.9031  -10.4302   21.0380 C   0  0  0  0  0  0
  -24.3588   -9.4222   21.9168 C   0  0  0  0  0  0
  -23.6269   -8.2255   22.0754 C   0  0  0  0  0  0
  -22.4255   -8.0283   21.3541 C   0  0  0  0  0  0
  -21.9890   -9.0244   20.4636 C   0  0  0  0  0  0
  -22.7210  -10.2135   20.3030 C   0  0  0  0  0  0
  -21.6857   -6.0719   22.5260 C   0  0  0  0  0  0
  -21.4023   -6.5622   23.8198 C   0  0  0  0  0  0
  -21.3665   -5.6784   24.9165 C   0  0  0  0  0  0
  -21.6047   -4.3047   24.7221 C   0  0  0  0  0  0
  -21.8821   -3.8133   23.4337 C   0  0  0  0  0  0
  -21.9192   -4.6946   22.3385 C   0  0  0  0  0  0
  -22.7853  -13.5251   21.1818 C   0  0  0  0  0  0
  -22.1667   -4.2126   21.0967 F   0  0  0  0  0  0
  -21.5632   -3.4531   25.7735 F   0  0  0  0  0  0
  -30.0496  -13.2361   20.4583 N   0  0  0  0  0  0
  -26.3026  -12.9347   20.3412 N   0  0  0  0  0  0
  -25.9288  -11.6504   20.5764 N   0  0  0  0  0  0
  -22.0501  -12.8232   22.0373 N   0  0  0  0  0  0
  -25.4329  -15.1887   20.4132 N   0  0  0  0  0  0
  -31.8085  -14.6167   20.0086 O   0  0  0  0  0  0
  -21.6637   -6.8866   21.4225 O   0  0  0  0  0  0
  -22.3536  -14.5563   20.6677 O   0  0  0  0  0  0
  -24.6145  -31.8699   23.2140 C   0  0  0  0  0  0
  -25.9055  -32.4829   23.8417 C   0  0  1  0  0  0
  -27.2300  -27.4513   20.0909 C   0  0  0  0  0  0
  -25.5932  -33.8631   24.2347 N   0  0  0  0  0  0
  -23.3990  -30.4973   21.5535 C   0  0  2  0  0  0
  -24.8409  -28.9669   20.1168 C   0  0  0  0  0  0
  -22.7390  -29.4681   22.5009 C   0  0  0  0  0  0
  -18.0272  -28.1398   22.8509 C   0  0  0  0  0  0
  -24.1484  -36.7305   23.2634 C   0  0  0  0  0  0
  -25.9257  -30.8455   21.3580 C   0  0  0  0  0  0
  -26.0020  -29.4807   20.7068 C   0  0  0  0  0  0
  -27.1978  -28.7303   20.6893 C   0  0  0  0  0  0
  -26.0464  -26.9495   19.4985 C   0  0  0  0  0  0
  -24.8561  -27.6986   19.5135 C   0  0  0  0  0  0
  -23.6046  -29.8337   20.1664 C   0  0  0  0  0  0
  -25.4107  -36.3105   24.0335 C   0  0  1  0  0  0
  -20.5850  -28.3676   23.1343 C   0  0  2  0  0  0
  -20.6747  -26.9412   22.5435 C   0  0  0  0  0  0
  -19.5726  -26.6404   21.5219 C   0  0  0  0  0  0
  -18.1907  -26.7950   22.1635 C   0  0  0  0  0  0
  -19.1512  -28.8857   23.2926 C   0  0  0  0  0  0
  -18.9440  -30.1454   23.8952 C   0  0  0  0  0  0
  -17.6443  -30.6605   24.0583 C   0  0  0  0  0  0
  -25.9053  -34.9478   23.5124 C   0  0  0  0  0  0
  -16.5336  -29.9116   23.6316 C   0  0  0  0  0  0
  -16.7256  -28.6522   23.0364 C   0  0  0  0  0  0
  -26.4495  -31.6593   25.0733 C   0  0  0  0  0  0
  -25.3776  -31.3633   26.1470 C   0  0  0  0  0  0
  -27.0346  -30.3060   24.6074 C   0  0  0  0  0  0
  -27.6047  -32.4300   25.7550 C   0  0  0  0  0  0
  -27.5577  -37.1802   24.8461 C   0  0  0  0  0  0
  -21.4124  -29.3049   22.3743 N   0  0  0  0  0  0
  -26.4285  -37.3798   23.9422 N   0  0  0  0  0  0
  -24.6655  -31.0829   22.1016 N   0  0  0  0  0  0
  -23.4160  -28.8203   23.3041 O   0  0  0  0  0  0
  -28.4203  -26.7517   20.1108 O   0  0  0  0  0  0
  -26.5603  -34.8918   22.4678 O   0  0  0  0  0  0
  -23.5343  -32.1445   23.7539 O   0  0  0  0  0  0
  -27.1973  -16.0898   24.6847 C   0  0  0  0  0  0
  -26.3255  -16.9914   24.0525 C   0  0  0  0  0  0
  -28.5701  -16.1308   24.3933 C   0  0  0  0  0  0
  -26.8118  -17.9225   23.1107 C   0  0  0  0  0  0
  -29.0793  -17.0717   23.4738 C   0  0  0  0  0  0
  -28.2026  -17.9784   22.8187 C   0  0  0  0  0  0
  -29.9273  -23.2837   19.8625 C   0  0  0  0  0  0
  -27.7354  -23.1360   21.1021 C   0  0  0  0  0  0
  -29.8517  -24.8232   19.9258 C   0  0  0  0  0  0
  -27.6899  -24.6681   21.1937 C   0  0  0  0  0  0
  -29.1828  -22.6061   21.0366 C   0  0  1  0  0  0
  -28.3963  -25.3247   19.9888 C   0  0  1  0  0  0
  -25.7906  -18.7999   22.4064 C   0  0  0  0  0  0
  -30.5833  -17.0872   23.2261 C   0  0  0  0  0  0
  -29.2256  -21.0675   20.9041 C   0  0  0  0  0  0
  -31.0073  -16.4758   21.8814 C   0  0  0  0  0  0
  -28.7167  -20.2835   22.1329 C   0  0  0  0  0  0
  -28.7258  -18.8527   21.8523 N   0  0  0  0  0  0
  -30.3624  -15.1919   21.6056 N   0  0  0  0  0  0
  -31.4489  -12.3580   19.0914 H   0  0  0  0  0  0
  -30.2937  -11.2584   19.7814 H   0  0  0  0  0  0
  -29.7082  -11.8054   17.4011 H   0  0  0  0  0  0
  -29.6520  -13.5105   17.7882 H   0  0  0  0  0  0
  -27.8066  -11.3211   18.8009 H   0  0  0  0  0  0
  -27.3517  -12.6695   17.7926 H   0  0  0  0  0  0
  -27.7180  -14.2585   19.6007 H   0  0  0  0  0  0
  -28.6548  -11.9372   21.3483 H   0  0  0  0  0  0
  -28.4601  -13.5796   21.8735 H   0  0  0  0  0  0
  -25.2729   -9.5723   22.4744 H   0  0  0  0  0  0
  -23.9982   -7.4669   22.7490 H   0  0  0  0  0  0
  -21.0824   -8.8751   19.8938 H   0  0  0  0  0  0
  -22.3641  -10.9666   19.6137 H   0  0  0  0  0  0
  -21.2023   -7.6139   23.9692 H   0  0  0  0  0  0
  -21.1494   -6.0516   25.9074 H   0  0  0  0  0  0
  -22.0595   -2.7592   23.2841 H   0  0  0  0  0  0
  -22.4129  -11.9872   22.4718 H   0  0  0  0  0  0
  -21.1125  -13.1250   22.2596 H   0  0  0  0  0  0
  -24.6844  -15.8558   20.5599 H   0  0  0  0  0  0
  -26.3118  -15.6285   20.1723 H   0  0  0  0  0  0
  -26.7135  -32.5597   23.1200 H   0  0  0  0  0  0
  -25.0121  -33.9788   25.0517 H   0  0  0  0  0  0
  -22.6866  -31.3138   21.4180 H   0  0  0  0  0  0
  -23.3760  -35.9618   23.3274 H   0  0  0  0  0  0
  -24.3591  -36.8955   22.2052 H   0  0  0  0  0  0
  -23.7218  -37.6487   23.6692 H   0  0  0  0  0  0
  -26.0253  -31.6104   20.5864 H   0  0  0  0  0  0
  -26.8182  -30.9062   21.9690 H   0  0  0  0  0  0
  -28.0945  -29.1261   21.1460 H   0  0  0  0  0  0
  -26.0151  -25.9800   19.0263 H   0  0  0  0  0  0
  -23.9606  -27.2935   19.0631 H   0  0  0  0  0  0
  -23.7159  -30.6117   19.4097 H   0  0  0  0  0  0
  -22.7262  -29.2586   19.8663 H   0  0  0  0  0  0
  -25.1255  -36.1979   25.0825 H   0  0  0  0  0  0
  -20.9959  -28.3267   24.1458 H   0  0  0  0  0  0
  -20.5664  -26.2279   23.3622 H   0  0  0  0  0  0
  -21.6621  -26.7478   22.1223 H   0  0  0  0  0  0
  -19.6889  -25.6324   21.1238 H   0  0  0  0  0  0
  -19.6647  -27.3215   20.6755 H   0  0  0  0  0  0
  -17.4160  -26.6719   21.4047 H   0  0  0  0  0  0
  -18.0296  -26.0102   22.9037 H   0  0  0  0  0  0
  -19.7910  -30.7254   24.2360 H   0  0  0  0  0  0
  -17.4999  -31.6292   24.5182 H   0  0  0  0  0  0
  -15.5340  -30.3038   23.7606 H   0  0  0  0  0  0
  -15.8655  -28.0860   22.7066 H   0  0  0  0  0  0
  -24.6000  -30.6912   25.7816 H   0  0  0  0  0  0
  -24.8904  -32.2751   26.4926 H   0  0  0  0  0  0
  -25.8164  -30.8829   27.0224 H   0  0  0  0  0  0
  -26.2887  -29.6839   24.1114 H   0  0  0  0  0  0
  -27.4129  -29.7262   25.4508 H   0  0  0  0  0  0
  -27.8712  -30.4405   23.9210 H   0  0  0  0  0  0
  -27.2657  -33.3592   26.2144 H   0  0  0  0  0  0
  -28.3892  -32.6862   25.0419 H   0  0  0  0  0  0
  -28.0688  -31.8419   26.5481 H   0  0  0  0  0  0
  -28.2529  -38.0155   24.7585 H   0  0  0  0  0  0
  -28.1121  -36.2682   24.6198 H   0  0  0  0  0  0
  -27.2312  -37.1368   25.8864 H   0  0  0  0  0  0
  -20.9267  -29.8801   21.7005 H   0  0  0  0  0  0
  -26.0164  -38.2865   24.1471 H   0  0  0  0  0  0
  -26.8141  -15.3654   25.3910 H   0  0  0  0  0  0
  -25.2689  -16.9468   24.2761 H   0  0  0  0  0  0
  -29.2331  -15.4311   24.8840 H   0  0  0  0  0  0
  -30.9735  -22.9745   19.8566 H   0  0  0  0  0  0
  -29.5096  -22.9403   18.9153 H   0  0  0  0  0  0
  -27.1890  -22.8123   20.2144 H   0  0  0  0  0  0
  -27.2108  -22.7140   21.9593 H   0  0  0  0  0  0
  -30.3500  -25.2557   19.0574 H   0  0  0  0  0  0
  -30.4011  -25.1780   20.7987 H   0  0  0  0  0  0
  -28.1657  -24.9943   22.1199 H   0  0  0  0  0  0
  -26.6505  -24.9863   21.2601 H   0  0  0  0  0  0
  -29.6909  -22.8820   21.9628 H   0  0  0  0  0  0
  -27.9140  -25.0316   19.0549 H   0  0  0  0  0  0
  -24.8662  -18.2447   22.2437 H   0  0  0  0  0  0
  -26.1368  -19.1337   21.4287 H   0  0  0  0  0  0
  -25.5590  -19.6753   23.0140 H   0  0  0  0  0  0
  -31.0839  -16.5479   24.0305 H   0  0  0  0  0  0
  -30.9514  -18.1109   23.2991 H   0  0  0  0  0  0
  -30.2540  -20.7617   20.6999 H   0  0  0  0  0  0
  -28.6491  -20.7747   20.0253 H   0  0  0  0  0  0
  -32.0945  -16.3782   21.8670 H   0  0  0  0  0  0
  -30.7552  -17.1481   21.0621 H   0  0  0  0  0  0
  -27.7149  -20.6068   22.4062 H   0  0  0  0  0  0
  -29.3562  -20.4891   22.9928 H   0  0  0  0  0  0
  -29.6243  -18.5449   21.5007 H   0  0  0  0  0  0
  -29.5182  -14.9609   22.1090 H   0  0  0  0  0  0
  1 25  1  0  0  0
  1 30  2  0  0  0
  1 89  1  0  0  0
  2  3  1  0  0  0
  2 25  1  0  0  0
  2 90  1  0  0  0
  2 91  1  0  0  0
  3  4  1  0  0  0
  3 92  1  0  0  0
  3 93  1  0  0  0
  4  5  1  0  0  0
  4 94  1  0  0  0
  4 95  1  0  0  0
  5  6  1  0  0  0
  5 26  1  0  0  0
  5 96  1  0  0  0
  6 25  1  0  0  0
  6 97  1  0  0  0
  6 98  1  0  0  0
  7  8  2  0  0  0
  7 26  1  0  0  0
  7 29  1  0  0  0
  8  9  1  0  0  0
  8 22  1  0  0  0
  9 10  1  0  0  0
  9 27  2  0  0  0
 10 11  2  0  0  0
 10 15  1  0  0  0
 11 12  1  0  0  0
 11 99  1  0  0  0
 12 13  2  0  0  0
 12100  1  0  0  0
 13 14  1  0  0  0
 13 31  1  0  0  0
 14 15  2  0  0  0
 14101  1  0  0  0
 15102  1  0  0  0
 16 17  2  0  0  0
 16 21  1  0  0  0
 16 31  1  0  0  0
 17 18  1  0  0  0
 17103  1  0  0  0
 18 19  2  0  0  0
 18104  1  0  0  0
 19 20  1  0  0  0
 19 24  1  0  0  0
 20 21  2  0  0  0
 20105  1  0  0  0
 21 23  1  0  0  0
 22 28  1  0  0  0
 22 32  2  0  0  0
 26 27  1  0  0  0
 28106  1  0  0  0
 28107  1  0  0  0
 29108  1  0  0  0
 29109  1  0  0  0
 33 34  1  0  0  0
 33 66  1  0  0  0
 33 70  2  0  0  0
 34 36  1  0  0  0
 34 59  1  0  0  0
 34110  1  0  0  0
 35 44  2  0  0  0
 35 45  1  0  0  0
 35 68  1  0  0  0
 36 56  1  0  0  0
 36111  1  0  0  0
 37 39  1  0  0  0
 37 47  1  0  0  0
 37 66  1  0  0  0
 37112  1  0  0  0
 38 43  2  0  0  0
 38 46  1  0  0  0
 38 47  1  0  0  0
 39 64  1  0  0  0
 39 67  2  0  0  0
 40 52  1  0  0  0
 40 53  2  0  0  0
 40 58  1  0  0  0
 41113  1  0  0  0
 41114  1  0  0  0
 41115  1  0  0  0
 41 48  1  0  0  0
 42 43  1  0  0  0
 42 66  1  0  0  0
 42116  1  0  0  0
 42117  1  0  0  0
 43 44  1  0  0  0
 44118  1  0  0  0
 45 46  2  0  0  0
 45119  1  0  0  0
 46120  1  0  0  0
 47121  1  0  0  0
 47122  1  0  0  0
 48 56  1  0  0  0
 48 65  1  0  0  0
 48123  1  0  0  0
 49 50  1  0  0  0
 49 53  1  0  0  0
 49 64  1  0  0  0
 49124  1  0  0  0
 50 51  1  0  0  0
 50125  1  0  0  0
 50126  1  0  0  0
 51 52  1  0  0  0
 51127  1  0  0  0
 51128  1  0  0  0
 52129  1  0  0  0
 52130  1  0  0  0
 53 54  1  0  0  0
 54 55  2  0  0  0
 54131  1  0  0  0
 55 57  1  0  0  0
 55132  1  0  0  0
 56 69  2  0  0  0
 57 58  2  0  0  0
 57133  1  0  0  0
 58134  1  0  0  0
 59 60  1  0  0  0
 59 61  1  0  0  0
 59 62  1  0  0  0
 60135  1  0  0  0
 60136  1  0  0  0
 60137  1  0  0  0
 61138  1  0  0  0
 61139  1  0  0  0
 61140  1  0  0  0
 62141  1  0  0  0
 62142  1  0  0  0
 62143  1  0  0  0
 63 65  1  0  0  0
 63144  1  0  0  0
 63145  1  0  0  0
 63146  1  0  0  0
 64147  1  0  0  0
 65148  1  0  0  0
 68 82  1  0  0  0
 71 72  2  0  0  0
 71 73  1  0  0  0
 71149  1  0  0  0
 72 74  1  0  0  0
 72150  1  0  0  0
 73 75  2  0  0  0
 73151  1  0  0  0
 74 76  2  0  0  0
 74 83  1  0  0  0
 75 76  1  0  0  0
 75 84  1  0  0  0
 76 88  1  0  0  0
 77 79  1  0  0  0
 77 81  1  0  0  0
 77152  1  0  0  0
 77153  1  0  0  0
 78 80  1  0  0  0
 78 81  1  0  0  0
 78154  1  0  0  0
 78155  1  0  0  0
 79 82  1  0  0  0
 79156  1  0  0  0
 79157  1  0  0  0
 80 82  1  0  0  0
 80158  1  0  0  0
 80159  1  0  0  0
 81 85  1  0  0  0
 81160  1  0  0  0
 82161  1  0  0  0
 83162  1  0  0  0
 83163  1  0  0  0
 83164  1  0  0  0
 84 86  1  0  0  0
 84165  1  0  0  0
 84166  1  0  0  0
 85 87  1  0  0  0
 85167  1  0  0  0
 85168  1  0  0  0
 86 89  1  0  0  0
 86169  1  0  0  0
 86170  1  0  0  0
 87 88  1  0  0  0
 87171  1  0  0  0
 87172  1  0  0  0
 88173  1  0  0  0
 89174  1  0  0  0
M  ISO  4   1 100  68 101  82 101  89 100
M  END
> <chiral flag>
0

> <version>
0

> <s_m_source_file>
/data/baiqing/PycharmProjects/Reinvent-master-3.2/result/LINK_invent/BTK/process_docking_weight1_custom_sum_contain_oxygen_bond_distance_aromatic_linkinvent_7_9_3/rearranged_h_0139.sdf

> <i_m_source_file_index>
5

> <r_mmod_Potential_Energy-OPLS-2005>
-111.810607910156

> <r_mmod_Stretch_Energy-OPLS-2005>
35.182487487793

> <r_mmod_Bend_Energy-OPLS-2005>
102.501281738281

> <r_mmod_Torsional_Energy-OPLS-2005>
225.903701782227

> <r_mmod_Improper_Torsional_Energy-OPLS-2005>
6.38913726806641

> <r_mmod_Van_der_Waal_Energy-OPLS-2005>
155.64436340332

> <r_mmod_Electrostatic_Energy-OPLS-2005>
-453.113220214844

> <r_mmod_Solvation_Energy-OPLS-2005>
-192.759658813477

> <b_mmod_Minimization_Converged-OPLS-2005>
0

> <r_mmod_RMS_Derivative-OPLS-2005>
2.40783619880676

$$$$
5
                    3D
 Structure written by MMmdl.
167176  0  0  1  0            999 V2000
  -30.6862  -14.4712   20.4783 C   0  0  0  0  0  0
  -30.4389  -12.2330   19.4835 C   0  0  0  0  0  0
  -29.5030  -12.2301   18.2529 C   0  0  0  0  0  0
  -28.0030  -12.3162   18.6238 C   0  0  0  0  0  0
  -27.6577  -13.1952   19.8626 C   0  0  2  0  0  0
  -28.6980  -13.0173   20.9894 C   0  0  0  0  0  0
  -25.2565  -13.8129   20.5691 C   0  0  0  0  0  0
  -24.1833  -13.0433   20.9197 C   0  0  0  0  0  0
  -24.6352  -11.6896   20.8760 C   0  0  0  0  0  0
  -23.9004  -10.4283   21.0395 C   0  0  0  0  0  0
  -24.3554   -9.4214   21.9189 C   0  0  0  0  0  0
  -23.6240   -8.2239   22.0774 C   0  0  0  0  0  0
  -22.4242   -8.0243   21.3550 C   0  0  0  0  0  0
  -21.9854   -9.0231   20.4662 C   0  0  0  0  0  0
  -22.7163  -10.2125   20.3066 C   0  0  0  0  0  0
  -21.6851   -6.0676   22.5258 C   0  0  0  0  0  0
  -21.4011   -6.5618   23.8184 C   0  0  0  0  0  0
  -21.3658   -5.6810   24.9178 C   0  0  0  0  0  0
  -21.6027   -4.3061   24.7262 C   0  0  0  0  0  0
  -21.8786   -3.8116   23.4404 C   0  0  0  0  0  0
  -21.9202   -4.6904   22.3433 C   0  0  0  0  0  0
  -22.7874  -13.5253   21.1813 C   0  0  0  0  0  0
  -22.1663   -4.2061   21.1024 F   0  0  0  0  0  0
  -21.5628   -3.4558   25.7783 F   0  0  0  0  0  0
  -30.0257  -13.2846   20.4215 N   0  0  0  0  0  0
  -26.2993  -12.9302   20.3361 N   0  0  0  0  0  0
  -25.9281  -11.6470   20.5838 N   0  0  0  0  0  0
  -22.0520  -12.8249   22.0354 N   0  0  0  0  0  0
  -25.4290  -15.1847   20.4072 N   0  0  0  0  0  0
  -31.8726  -14.6025   20.1703 O   0  0  0  0  0  0
  -21.6632   -6.8826   21.4217 O   0  0  0  0  0  0
  -22.3576  -14.5560   20.6649 O   0  0  0  0  0  0
  -24.6000  -31.8749   23.2182 C   0  0  0  0  0  0
  -25.8929  -32.4868   23.8424 C   0  0  1  0  0  0
  -27.2487  -27.5118   20.1046 C   0  0  0  0  0  0
  -25.5845  -33.8679   24.2338 N   0  0  0  0  0  0
  -23.3822  -30.4951   21.5545 C   0  0  2  0  0  0
  -24.8319  -28.9633   20.1176 C   0  0  0  0  0  0
  -22.7309  -29.4681   22.5032 C   0  0  0  0  0  0
  -18.0243  -28.1372   22.8509 C   0  0  0  0  0  0
  -24.1493  -36.7344   23.2630 C   0  0  0  0  0  0
  -25.8973  -30.8632   21.3568 C   0  0  0  0  0  0
  -25.9766  -29.4984   20.7188 C   0  0  0  0  0  0
  -27.1750  -28.7698   20.7229 C   0  0  0  0  0  0
  -26.0965  -26.9750   19.4803 C   0  0  0  0  0  0
  -24.8832  -27.6964   19.5031 C   0  0  0  0  0  0
  -23.5871  -29.8197   20.1678 C   0  0  0  0  0  0
  -25.4113  -36.3146   24.0321 C   0  0  1  0  0  0
  -20.5827  -28.3635   23.1378 C   0  0  2  0  0  0
  -20.6746  -26.9378   22.5456 C   0  0  0  0  0  0
  -19.5736  -26.6388   21.5226 C   0  0  0  0  0  0
  -18.1903  -26.7928   22.1625 C   0  0  0  0  0  0
  -19.1489  -28.8801   23.2948 C   0  0  0  0  0  0
  -18.9434  -30.1415   23.8947 C   0  0  0  0  0  0
  -17.6448  -30.6595   24.0565 C   0  0  0  0  0  0
  -25.9032  -34.9510   23.5123 C   0  0  0  0  0  0
  -16.5331  -29.9109   23.6322 C   0  0  0  0  0  0
  -16.7235  -28.6514   23.0348 C   0  0  0  0  0  0
  -26.4416  -31.6627   25.0707 C   0  0  0  0  0  0
  -25.3730  -31.3684   26.1476 C   0  0  0  0  0  0
  -27.0235  -30.3098   24.6014 C   0  0  0  0  0  0
  -27.6011  -32.4329   25.7462 C   0  0  0  0  0  0
  -27.5587  -37.1816   24.8449 C   0  0  0  0  0  0
  -21.4052  -29.3019   22.3776 N   0  0  0  0  0  0
  -26.4300  -37.3828   23.9400 N   0  0  0  0  0  0
  -24.6439  -31.0904   22.1036 N   0  0  0  0  0  0
  -23.4103  -28.8227   23.3044 O   0  0  0  0  0  0
  -28.4967  -26.9425   20.1409 O   0  0  0  0  0  0
  -26.5626  -34.8953   22.4701 O   0  0  0  0  0  0
  -23.5217  -32.1468   23.7631 O   0  0  0  0  0  0
  -29.4762  -19.0744   18.4199 C   0  0  0  0  0  0
  -29.6488  -17.8934   17.7057 C   0  0  0  0  0  0
  -29.8409  -16.7019   18.4320 C   0  0  0  0  0  0
  -29.5581  -19.0625   19.8210 C   0  0  0  0  0  0
  -29.8922  -16.7391   19.8616 C   0  0  0  0  0  0
  -28.2874  -23.3070   20.6186 C   0  0  0  0  0  0
  -30.4886  -23.9737   19.5741 C   0  0  0  0  0  0
  -28.0742  -24.7942   20.9311 C   0  0  0  0  0  0
  -30.0818  -25.4120   19.8695 C   0  0  0  0  0  0
  -29.7895  -22.9569   20.4982 C   0  0  0  0  0  0
  -29.5728  -17.9364   16.1892 C   0  0  0  0  0  0
  -29.8801  -15.4115   17.6433 C   0  0  0  0  0  0
  -29.3916  -20.3594   20.6110 C   0  0  0  0  0  0
  -30.0109  -21.5703   19.8819 C   0  0  0  0  0  0
  -29.7638  -17.9211   20.5189 N   0  0  0  0  0  0
  -28.6279  -25.5620   19.8135 N   0  0  0  0  0  0
  -29.8824  -15.5395   20.6331 N   0  0  0  0  0  0
  -31.4783  -12.3395   19.1693 H   0  0  0  0  0  0
  -30.3885  -11.2680   19.9895 H   0  0  0  0  0  0
  -29.6636  -11.2878   17.7245 H   0  0  0  0  0  0
  -29.7977  -12.9510   17.5039 H   0  0  0  0  0  0
  -27.6842  -11.2899   18.8094 H   0  0  0  0  0  0
  -27.4264  -12.6498   17.7595 H   0  0  0  0  0  0
  -27.6834  -14.2341   19.5379 H   0  0  0  0  0  0
  -28.6555  -11.9987   21.3792 H   0  0  0  0  0  0
  -28.4887  -13.6714   21.8381 H   0  0  0  0  0  0
  -25.2699   -9.5716   22.4778 H   0  0  0  0  0  0
  -23.9918   -7.4638   22.7517 H   0  0  0  0  0  0
  -21.0779   -8.8769   19.8959 H   0  0  0  0  0  0
  -22.3591  -10.9686   19.6203 H   0  0  0  0  0  0
  -21.1990   -7.6135   23.9664 H   0  0  0  0  0  0
  -21.1529   -6.0580   25.9088 H   0  0  0  0  0  0
  -22.0564   -2.7567   23.2974 H   0  0  0  0  0  0
  -22.4099  -11.9931   22.4804 H   0  0  0  0  0  0
  -21.1135  -13.1287   22.2526 H   0  0  0  0  0  0
  -24.6573  -15.8380   20.4939 H   0  0  0  0  0  0
  -26.2780  -15.6242   20.0769 H   0  0  0  0  0  0
  -26.6970  -32.5647   23.1176 H   0  0  0  0  0  0
  -24.9957  -33.9884   25.0447 H   0  0  0  0  0  0
  -22.6671  -31.3095   21.4210 H   0  0  0  0  0  0
  -23.3780  -35.9661   23.3305 H   0  0  0  0  0  0
  -24.3578  -36.8983   22.2055 H   0  0  0  0  0  0
  -23.7238  -37.6529   23.6677 H   0  0  0  0  0  0
  -25.9827  -31.6225   20.5784 H   0  0  0  0  0  0
  -26.7946  -30.9364   21.9582 H   0  0  0  0  0  0
  -28.0615  -29.1805   21.1872 H   0  0  0  0  0  0
  -26.1338  -26.0203   18.9753 H   0  0  0  0  0  0
  -24.0002  -27.2812   19.0380 H   0  0  0  0  0  0
  -23.6831  -30.5960   19.4084 H   0  0  0  0  0  0
  -22.7145  -29.2344   19.8728 H   0  0  0  0  0  0
  -25.1282  -36.2031   25.0813 H   0  0  0  0  0  0
  -20.9902  -28.3213   24.1507 H   0  0  0  0  0  0
  -20.5693  -26.2208   23.3617 H   0  0  0  0  0  0
  -21.6629  -26.7494   22.1241 H   0  0  0  0  0  0
  -19.6931  -25.6310   21.1225 H   0  0  0  0  0  0
  -19.6701  -27.3217   20.6781 H   0  0  0  0  0  0
  -17.4189  -26.6682   21.4017 H   0  0  0  0  0  0
  -18.0298  -26.0045   22.8994 H   0  0  0  0  0  0
  -19.7903  -30.7200   24.2367 H   0  0  0  0  0  0
  -17.5011  -31.6300   24.5138 H   0  0  0  0  0  0
  -15.5332  -30.3035   23.7631 H   0  0  0  0  0  0
  -15.8623  -28.0853   22.7070 H   0  0  0  0  0  0
  -24.5867  -30.7076   25.7797 H   0  0  0  0  0  0
  -24.8948  -32.2833   26.5004 H   0  0  0  0  0  0
  -25.8099  -30.8775   27.0187 H   0  0  0  0  0  0
  -26.2751  -29.6878   24.1094 H   0  0  0  0  0  0
  -27.4077  -29.7297   25.4418 H   0  0  0  0  0  0
  -27.8541  -30.4460   23.9082 H   0  0  0  0  0  0
  -27.2642  -33.3601   26.2125 H   0  0  0  0  0  0
  -28.3767  -32.6955   25.0247 H   0  0  0  0  0  0
  -28.0740  -31.8412   26.5319 H   0  0  0  0  0  0
  -28.2578  -38.0142   24.7546 H   0  0  0  0  0  0
  -28.1112  -36.2675   24.6222 H   0  0  0  0  0  0
  -27.2302  -37.1393   25.8848 H   0  0  0  0  0  0
  -20.9155  -29.8693   21.6999 H   0  0  0  0  0  0
  -26.0200  -38.2899   24.1476 H   0  0  0  0  0  0
  -29.2593  -19.9686   17.8570 H   0  0  0  0  0  0
  -27.7655  -23.0663   19.6896 H   0  0  0  0  0  0
  -27.8143  -22.7101   21.3998 H   0  0  0  0  0  0
  -31.5708  -23.8817   19.6705 H   0  0  0  0  0  0
  -30.2604  -23.7674   18.5283 H   0  0  0  0  0  0
  -28.5504  -25.0668   21.8740 H   0  0  0  0  0  0
  -27.0100  -24.9892   21.0507 H   0  0  0  0  0  0
  -30.5538  -26.0786   19.1460 H   0  0  0  0  0  0
  -30.4572  -25.7101   20.8520 H   0  0  0  0  0  0
  -30.2436  -23.0121   21.4896 H   0  0  0  0  0  0
  -29.4790  -18.9545   15.8147 H   0  0  0  0  0  0
  -28.7130  -17.3693   15.8343 H   0  0  0  0  0  0
  -30.4762  -17.5161   15.7496 H   0  0  0  0  0  0
  -29.8896  -15.5152   16.5622 H   0  0  0  0  0  0
  -28.9766  -14.8565   17.8771 H   0  0  0  0  0  0
  -30.7786  -14.8425   17.8664 H   0  0  0  0  0  0
  -29.8402  -20.2532   21.6002 H   0  0  0  0  0  0
  -28.3206  -20.5157   20.7604 H   0  0  0  0  0  0
  -31.0756  -21.3914   19.7306 H   0  0  0  0  0  0
  -29.5849  -21.6524   18.8868 H   0  0  0  0  0  0
  -28.9996  -15.3468   21.0745 H   0  0  0  0  0  0
  1 25  1  0  0  0
  1 30  2  0  0  0
  1 87  1  0  0  0
  2  3  1  0  0  0
  2 25  1  0  0  0
  2 88  1  0  0  0
  2 89  1  0  0  0
  3  4  1  0  0  0
  3 90  1  0  0  0
  3 91  1  0  0  0
  4  5  1  0  0  0
  4 92  1  0  0  0
  4 93  1  0  0  0
  5  6  1  0  0  0
  5 26  1  0  0  0
  5 94  1  0  0  0
  6 25  1  0  0  0
  6 95  1  0  0  0
  6 96  1  0  0  0
  7  8  2  0  0  0
  7 26  1  0  0  0
  7 29  1  0  0  0
  8  9  1  0  0  0
  8 22  1  0  0  0
  9 10  1  0  0  0
  9 27  2  0  0  0
 10 11  2  0  0  0
 10 15  1  0  0  0
 11 12  1  0  0  0
 11 97  1  0  0  0
 12 13  2  0  0  0
 12 98  1  0  0  0
 13 14  1  0  0  0
 13 31  1  0  0  0
 14 15  2  0  0  0
 14 99  1  0  0  0
 15100  1  0  0  0
 16 17  2  0  0  0
 16 21  1  0  0  0
 16 31  1  0  0  0
 17 18  1  0  0  0
 17101  1  0  0  0
 18 19  2  0  0  0
 18102  1  0  0  0
 19 20  1  0  0  0
 19 24  1  0  0  0
 20 21  2  0  0  0
 20103  1  0  0  0
 21 23  1  0  0  0
 22 28  1  0  0  0
 22 32  2  0  0  0
 26 27  1  0  0  0
 28104  1  0  0  0
 28105  1  0  0  0
 29106  1  0  0  0
 29107  1  0  0  0
 33 34  1  0  0  0
 33 66  1  0  0  0
 33 70  2  0  0  0
 34 36  1  0  0  0
 34 59  1  0  0  0
 34108  1  0  0  0
 35 44  2  0  0  0
 35 45  1  0  0  0
 35 68  1  0  0  0
 36 56  1  0  0  0
 36109  1  0  0  0
 37 39  1  0  0  0
 37 47  1  0  0  0
 37 66  1  0  0  0
 37110  1  0  0  0
 38 43  2  0  0  0
 38 46  1  0  0  0
 38 47  1  0  0  0
 39 64  1  0  0  0
 39 67  2  0  0  0
 40 52  1  0  0  0
 40 53  2  0  0  0
 40 58  1  0  0  0
 41111  1  0  0  0
 41112  1  0  0  0
 41113  1  0  0  0
 41 48  1  0  0  0
 42 43  1  0  0  0
 42 66  1  0  0  0
 42114  1  0  0  0
 42115  1  0  0  0
 43 44  1  0  0  0
 44116  1  0  0  0
 45 46  2  0  0  0
 45117  1  0  0  0
 46118  1  0  0  0
 47119  1  0  0  0
 47120  1  0  0  0
 48 56  1  0  0  0
 48 65  1  0  0  0
 48121  1  0  0  0
 49 50  1  0  0  0
 49 53  1  0  0  0
 49 64  1  0  0  0
 49122  1  0  0  0
 50 51  1  0  0  0
 50123  1  0  0  0
 50124  1  0  0  0
 51 52  1  0  0  0
 51125  1  0  0  0
 51126  1  0  0  0
 52127  1  0  0  0
 52128  1  0  0  0
 53 54  1  0  0  0
 54 55  2  0  0  0
 54129  1  0  0  0
 55 57  1  0  0  0
 55130  1  0  0  0
 56 69  2  0  0  0
 57 58  2  0  0  0
 57131  1  0  0  0
 58132  1  0  0  0
 59 60  1  0  0  0
 59 61  1  0  0  0
 59 62  1  0  0  0
 60133  1  0  0  0
 60134  1  0  0  0
 60135  1  0  0  0
 61136  1  0  0  0
 61137  1  0  0  0
 61138  1  0  0  0
 62139  1  0  0  0
 62140  1  0  0  0
 62141  1  0  0  0
 63 65  1  0  0  0
 63142  1  0  0  0
 63143  1  0  0  0
 63144  1  0  0  0
 64145  1  0  0  0
 65146  1  0  0  0
 68 86  1  0  0  0
 71 72  2  0  0  0
 71 74  1  0  0  0
 71147  1  0  0  0
 72 73  1  0  0  0
 72 81  1  0  0  0
 73 75  2  0  0  0
 73 82  1  0  0  0
 74 83  1  0  0  0
 74 85  2  0  0  0
 75 85  1  0  0  0
 75 87  1  0  0  0
 76 78  1  0  0  0
 76 80  1  0  0  0
 76148  1  0  0  0
 76149  1  0  0  0
 77 79  1  0  0  0
 77 80  1  0  0  0
 77150  1  0  0  0
 77151  1  0  0  0
 78 86  1  0  0  0
 78152  1  0  0  0
 78153  1  0  0  0
 79 86  1  0  0  0
 79154  1  0  0  0
 79155  1  0  0  0
 80 84  1  0  0  0
 80156  1  0  0  0
 81157  1  0  0  0
 81158  1  0  0  0
 81159  1  0  0  0
 82160  1  0  0  0
 82161  1  0  0  0
 82162  1  0  0  0
 83 84  1  0  0  0
 83163  1  0  0  0
 83164  1  0  0  0
 84165  1  0  0  0
 84166  1  0  0  0
 87167  1  0  0  0
M  ISO  4   1 100  68 101  86 101  87 100
M  END
> <chiral flag>
0

> <version>
0

> <s_m_source_file>
/data/baiqing/PycharmProjects/Reinvent-master-3.2/result/LINK_invent/BTK/process_docking_weight1_custom_sum_contain_oxygen_bond_distance_aromatic_linkinvent_7_9_3/rearranged_h_0139.sdf

> <i_m_source_file_index>
6

> <r_mmod_Potential_Energy-OPLS-2005>
-70.874267578125

> <r_mmod_Stretch_Energy-OPLS-2005>
35.1682586669922

> <r_mmod_Bend_Energy-OPLS-2005>
128.81477355957

> <r_mmod_Torsional_Energy-OPLS-2005>
289.471710205078

> <r_mmod_Improper_Torsional_Energy-OPLS-2005>
8.74849224090576

> <r_mmod_Van_der_Waal_Energy-OPLS-2005>
197.343780517578

> <r_mmod_Electrostatic_Energy-OPLS-2005>
-541.769470214844

> <r_mmod_Solvation_Energy-OPLS-2005>
-221.168701171875

> <b_mmod_Minimization_Converged-OPLS-2005>
0

> <r_mmod_RMS_Derivative-OPLS-2005>
4.9250636100769

$$$$
6
                    3D
 Structure written by MMmdl.
166175  0  0  1  0            999 V2000
  -30.6248  -14.5846   20.5517 C   0  0  0  0  0  0
  -30.4402  -12.3716   19.4327 C   0  0  0  0  0  0
  -29.5041  -12.5156   18.2128 C   0  0  0  0  0  0
  -28.0246  -12.3577   18.6221 C   0  0  0  0  0  0
  -27.6563  -13.2068   19.8678 C   0  0  2  0  0  0
  -28.6993  -13.0133   20.9896 C   0  0  0  0  0  0
  -25.2563  -13.8150   20.5668 C   0  0  0  0  0  0
  -24.1829  -13.0428   20.9171 C   0  0  0  0  0  0
  -24.6386  -11.6894   20.8733 C   0  0  0  0  0  0
  -23.9056  -10.4286   21.0410 C   0  0  0  0  0  0
  -24.3610   -9.4202   21.9181 C   0  0  0  0  0  0
  -23.6286   -8.2241   22.0755 C   0  0  0  0  0  0
  -22.4266   -8.0279   21.3548 C   0  0  0  0  0  0
  -21.9905   -9.0249   20.4645 C   0  0  0  0  0  0
  -22.7238  -10.2125   20.3052 C   0  0  0  0  0  0
  -21.6851   -6.0735   22.5279 C   0  0  0  0  0  0
  -21.4012   -6.5641   23.8209 C   0  0  0  0  0  0
  -21.3657   -5.6795   24.9173 C   0  0  0  0  0  0
  -21.6048   -4.3057   24.7228 C   0  0  0  0  0  0
  -21.8822   -3.8146   23.4348 C   0  0  0  0  0  0
  -21.9189   -4.6961   22.3404 C   0  0  0  0  0  0
  -22.7852  -13.5220   21.1848 C   0  0  0  0  0  0
  -22.1663   -4.2147   21.0983 F   0  0  0  0  0  0
  -21.5625   -3.4541   25.7740 F   0  0  0  0  0  0
  -30.0169  -13.3659   20.4341 N   0  0  0  0  0  0
  -26.2994  -12.9317   20.3322 N   0  0  0  0  0  0
  -25.9306  -11.6479   20.5745 N   0  0  0  0  0  0
  -22.0502  -12.8210   22.0405 N   0  0  0  0  0  0
  -25.4289  -15.1877   20.4071 N   0  0  0  0  0  0
  -31.7752  -14.7860   20.1507 O   0  0  0  0  0  0
  -21.6637   -6.8876   21.4240 O   0  0  0  0  0  0
  -22.3538  -14.5540   20.6714 O   0  0  0  0  0  0
  -24.6246  -31.8607   23.2030 C   0  0  0  0  0  0
  -25.9098  -32.4782   23.8348 C   0  0  1  0  0  0
  -27.2273  -27.3497   20.1212 C   0  0  0  0  0  0
  -25.5916  -33.8578   24.2284 N   0  0  0  0  0  0
  -23.4138  -30.4856   21.5453 C   0  0  2  0  0  0
  -24.8574  -28.9353   20.1171 C   0  0  0  0  0  0
  -22.7439  -29.4650   22.4953 C   0  0  0  0  0  0
  -18.0276  -28.1391   22.8498 C   0  0  0  0  0  0
  -24.1466  -36.7310   23.2641 C   0  0  0  0  0  0
  -25.9480  -30.8077   21.3587 C   0  0  0  0  0  0
  -26.0249  -29.4330   20.7104 C   0  0  0  0  0  0
  -27.2139  -28.6537   20.6946 C   0  0  0  0  0  0
  -26.0313  -26.8781   19.5391 C   0  0  0  0  0  0
  -24.8602  -27.6610   19.5254 C   0  0  0  0  0  0
  -23.6241  -29.8143   20.1616 C   0  0  0  0  0  0
  -25.4088  -36.3096   24.0331 C   0  0  1  0  0  0
  -20.5867  -28.3699   23.1300 C   0  0  2  0  0  0
  -20.6765  -26.9427   22.5415 C   0  0  0  0  0  0
  -19.5747  -26.6401   21.5216 C   0  0  0  0  0  0
  -18.1925  -26.7939   22.1625 C   0  0  0  0  0  0
  -19.1517  -28.8860   23.2907 C   0  0  0  0  0  0
  -18.9450  -30.1467   23.8918 C   0  0  0  0  0  0
  -17.6450  -30.6599   24.0575 C   0  0  0  0  0  0
  -25.9030  -34.9460   23.5112 C   0  0  0  0  0  0
  -16.5346  -29.9098   23.6334 C   0  0  0  0  0  0
  -16.7264  -28.6513   23.0359 C   0  0  0  0  0  0
  -26.4484  -31.6574   25.0704 C   0  0  0  0  0  0
  -25.3738  -31.3681   26.1444 C   0  0  0  0  0  0
  -27.0334  -30.3021   24.6104 C   0  0  0  0  0  0
  -27.6046  -32.4300   25.7473 C   0  0  0  0  0  0
  -27.5568  -37.1799   24.8472 C   0  0  0  0  0  0
  -21.4151  -29.3064   22.3699 N   0  0  0  0  0  0
  -26.4276  -37.3792   23.9420 N   0  0  0  0  0  0
  -24.6817  -31.0667   22.0942 N   0  0  0  0  0  0
  -23.4176  -28.8175   23.3009 O   0  0  0  0  0  0
  -28.3899  -26.5789   20.1070 O   0  0  0  0  0  0
  -26.5604  -34.8934   22.4679 O   0  0  0  0  0  0
  -23.5426  -32.1361   23.7405 O   0  0  0  0  0  0
  -27.5903  -23.8420   16.9258 C   0  0  0  0  0  0
  -27.3320  -22.4830   17.1382 C   0  0  0  0  0  0
  -27.9773  -24.6496   18.0054 C   0  0  0  0  0  0
  -27.5495  -21.9046   18.4038 C   0  0  0  0  0  0
  -28.0838  -22.6750   19.4727 C   0  0  0  0  0  0
  -28.1598  -24.1155   19.3022 C   0  0  0  0  0  0
  -27.0989  -20.4648   18.6059 C   0  0  0  0  0  0
  -28.5063  -21.8977   20.7498 C   0  0  0  0  0  0
  -28.2382  -19.4449   18.6722 C   0  0  0  0  0  0
  -29.4579  -20.6353   20.5581 C   0  0  0  0  0  0
  -28.8550  -19.2622   20.0736 C   0  0  2  0  0  0
  -31.2107  -17.3630   22.1042 C   0  0  0  0  0  0
  -28.3483  -25.1465   20.4499 C   0  0  0  0  0  0
  -29.8369  -18.0075   20.0144 C   0  0  0  0  0  0
  -29.9641  -17.0520   21.2604 C   0  0  1  0  0  0
  -29.8099  -15.5832   20.9967 N   0  0  0  0  0  0
  -31.4789  -12.5119   19.1282 H   0  0  0  0  0  0
  -30.3820  -11.3644   19.8487 H   0  0  0  0  0  0
  -29.7614  -11.7795   17.4500 H   0  0  0  0  0  0
  -29.6526  -13.4946   17.7528 H   0  0  0  0  0  0
  -27.8477  -11.3018   18.8302 H   0  0  0  0  0  0
  -27.3745  -12.6176   17.7853 H   0  0  0  0  0  0
  -27.6888  -14.2507   19.5560 H   0  0  0  0  0  0
  -28.7018  -11.9774   21.3309 H   0  0  0  0  0  0
  -28.4465  -13.6061   21.8698 H   0  0  0  0  0  0
  -25.2758   -9.5675   22.4742 H   0  0  0  0  0  0
  -23.9997   -7.4632   22.7471 H   0  0  0  0  0  0
  -21.0839   -8.8773   19.8942 H   0  0  0  0  0  0
  -22.3708  -10.9664   19.6155 H   0  0  0  0  0  0
  -21.2010   -7.6147   23.9714 H   0  0  0  0  0  0
  -21.1475   -6.0525   25.9077 H   0  0  0  0  0  0
  -22.0602   -2.7606   23.2856 H   0  0  0  0  0  0
  -22.4128  -11.9860   22.4772 H   0  0  0  0  0  0
  -21.1116  -13.1229   22.2621 H   0  0  0  0  0  0
  -24.6596  -15.8412   20.5077 H   0  0  0  0  0  0
  -26.2760  -15.6257   20.0695 H   0  0  0  0  0  0
  -26.7165  -32.5474   23.1105 H   0  0  0  0  0  0
  -25.0088  -33.9697   25.0444 H   0  0  0  0  0  0
  -22.7093  -31.3079   21.4030 H   0  0  0  0  0  0
  -23.3723  -35.9646   23.3294 H   0  0  0  0  0  0
  -24.3587  -36.8952   22.2065 H   0  0  0  0  0  0
  -23.7204  -37.6508   23.6659 H   0  0  0  0  0  0
  -26.0622  -31.5673   20.5835 H   0  0  0  0  0  0
  -26.8354  -30.8696   21.9770 H   0  0  0  0  0  0
  -28.1176  -29.0373   21.1467 H   0  0  0  0  0  0
  -25.9852  -25.8969   19.0914 H   0  0  0  0  0  0
  -23.9621  -27.2676   19.0705 H   0  0  0  0  0  0
  -23.7437  -30.5881   19.4025 H   0  0  0  0  0  0
  -22.7420  -29.2465   19.8610 H   0  0  0  0  0  0
  -25.1253  -36.1955   25.0822 H   0  0  0  0  0  0
  -20.9980  -28.3273   24.1417 H   0  0  0  0  0  0
  -20.5679  -26.2305   23.3606 H   0  0  0  0  0  0
  -21.6630  -26.7476   22.1201 H   0  0  0  0  0  0
  -19.6916  -25.6315   21.1247 H   0  0  0  0  0  0
  -19.6676  -27.3208   20.6743 H   0  0  0  0  0  0
  -17.4187  -26.6699   21.4036 H   0  0  0  0  0  0
  -18.0330  -26.0077   22.9017 H   0  0  0  0  0  0
  -19.7930  -30.7283   24.2289 H   0  0  0  0  0  0
  -17.5009  -31.6282   24.5176 H   0  0  0  0  0  0
  -15.5344  -30.3012   23.7651 H   0  0  0  0  0  0
  -15.8663  -28.0846   22.7060 H   0  0  0  0  0  0
  -24.5912  -30.7021   25.7783 H   0  0  0  0  0  0
  -24.8909  -32.2827   26.4896 H   0  0  0  0  0  0
  -25.8093  -30.8852   27.0201 H   0  0  0  0  0  0
  -26.2897  -29.6765   24.1151 H   0  0  0  0  0  0
  -27.4115  -29.7282   25.4577 H   0  0  0  0  0  0
  -27.8714  -30.4368   23.9260 H   0  0  0  0  0  0
  -27.2666  -33.3610   26.2044 H   0  0  0  0  0  0
  -28.3854  -32.6845   25.0286 H   0  0  0  0  0  0
  -28.0699  -31.8419   26.5398 H   0  0  0  0  0  0
  -28.2575  -38.0111   24.7546 H   0  0  0  0  0  0
  -28.1075  -36.2644   24.6244 H   0  0  0  0  0  0
  -27.2316  -37.1405   25.8890 H   0  0  0  0  0  0
  -20.9321  -29.8801   21.6926 H   0  0  0  0  0  0
  -26.0163  -38.2868   24.1435 H   0  0  0  0  0  0
  -27.4231  -24.2786   15.9513 H   0  0  0  0  0  0
  -26.9449  -21.8862   16.3235 H   0  0  0  0  0  0
  -28.0823  -25.7113   17.8338 H   0  0  0  0  0  0
  -26.4448  -20.1905   17.7769 H   0  0  0  0  0  0
  -26.4634  -20.3998   19.4898 H   0  0  0  0  0  0
  -27.6103  -21.6018   21.2975 H   0  0  0  0  0  0
  -29.0245  -22.5965   21.4060 H   0  0  0  0  0  0
  -29.0004  -19.6743   17.9265 H   0  0  0  0  0  0
  -27.8042  -18.4900   18.3721 H   0  0  0  0  0  0
  -29.9087  -20.4332   21.5299 H   0  0  0  0  0  0
  -30.2927  -20.9169   19.9169 H   0  0  0  0  0  0
  -28.0388  -19.0030   20.7499 H   0  0  0  0  0  0
  -31.2221  -18.4119   22.4033 H   0  0  0  0  0  0
  -32.1302  -17.1699   21.5507 H   0  0  0  0  0  0
  -31.2348  -16.7663   23.0171 H   0  0  0  0  0  0
  -29.2930  -24.9167   20.9436 H   0  0  0  0  0  0
  -27.5697  -24.9756   21.1951 H   0  0  0  0  0  0
  -30.8271  -18.3509   19.7130 H   0  0  0  0  0  0
  -29.5247  -17.3711   19.1856 H   0  0  0  0  0  0
  -29.1100  -17.2735   21.9019 H   0  0  0  0  0  0
  -28.8892  -15.2366   21.2218 H   0  0  0  0  0  0
  1 25  1  0  0  0
  1 30  2  0  0  0
  1 86  1  0  0  0
  2  3  1  0  0  0
  2 25  1  0  0  0
  2 87  1  0  0  0
  2 88  1  0  0  0
  3  4  1  0  0  0
  3 89  1  0  0  0
  3 90  1  0  0  0
  4  5  1  0  0  0
  4 91  1  0  0  0
  4 92  1  0  0  0
  5  6  1  0  0  0
  5 26  1  0  0  0
  5 93  1  0  0  0
  6 25  1  0  0  0
  6 94  1  0  0  0
  6 95  1  0  0  0
  7  8  2  0  0  0
  7 26  1  0  0  0
  7 29  1  0  0  0
  8  9  1  0  0  0
  8 22  1  0  0  0
  9 10  1  0  0  0
  9 27  2  0  0  0
 10 11  2  0  0  0
 10 15  1  0  0  0
 11 12  1  0  0  0
 11 96  1  0  0  0
 12 13  2  0  0  0
 12 97  1  0  0  0
 13 14  1  0  0  0
 13 31  1  0  0  0
 14 15  2  0  0  0
 14 98  1  0  0  0
 15 99  1  0  0  0
 16 17  2  0  0  0
 16 21  1  0  0  0
 16 31  1  0  0  0
 17 18  1  0  0  0
 17100  1  0  0  0
 18 19  2  0  0  0
 18101  1  0  0  0
 19 20  1  0  0  0
 19 24  1  0  0  0
 20 21  2  0  0  0
 20102  1  0  0  0
 21 23  1  0  0  0
 22 28  1  0  0  0
 22 32  2  0  0  0
 26 27  1  0  0  0
 28103  1  0  0  0
 28104  1  0  0  0
 29105  1  0  0  0
 29106  1  0  0  0
 33 34  1  0  0  0
 33 66  1  0  0  0
 33 70  2  0  0  0
 34 36  1  0  0  0
 34 59  1  0  0  0
 34107  1  0  0  0
 35 44  2  0  0  0
 35 45  1  0  0  0
 35 68  1  0  0  0
 36 56  1  0  0  0
 36108  1  0  0  0
 37 39  1  0  0  0
 37 47  1  0  0  0
 37 66  1  0  0  0
 37109  1  0  0  0
 38 43  2  0  0  0
 38 46  1  0  0  0
 38 47  1  0  0  0
 39 64  1  0  0  0
 39 67  2  0  0  0
 40 52  1  0  0  0
 40 53  2  0  0  0
 40 58  1  0  0  0
 41110  1  0  0  0
 41111  1  0  0  0
 41112  1  0  0  0
 41 48  1  0  0  0
 42 43  1  0  0  0
 42 66  1  0  0  0
 42113  1  0  0  0
 42114  1  0  0  0
 43 44  1  0  0  0
 44115  1  0  0  0
 45 46  2  0  0  0
 45116  1  0  0  0
 46117  1  0  0  0
 47118  1  0  0  0
 47119  1  0  0  0
 48 56  1  0  0  0
 48 65  1  0  0  0
 48120  1  0  0  0
 49 50  1  0  0  0
 49 53  1  0  0  0
 49 64  1  0  0  0
 49121  1  0  0  0
 50 51  1  0  0  0
 50122  1  0  0  0
 50123  1  0  0  0
 51 52  1  0  0  0
 51124  1  0  0  0
 51125  1  0  0  0
 52126  1  0  0  0
 52127  1  0  0  0
 53 54  1  0  0  0
 54 55  2  0  0  0
 54128  1  0  0  0
 55 57  1  0  0  0
 55129  1  0  0  0
 56 69  2  0  0  0
 57 58  2  0  0  0
 57130  1  0  0  0
 58131  1  0  0  0
 59 60  1  0  0  0
 59 61  1  0  0  0
 59 62  1  0  0  0
 60132  1  0  0  0
 60133  1  0  0  0
 60134  1  0  0  0
 61135  1  0  0  0
 61136  1  0  0  0
 61137  1  0  0  0
 62138  1  0  0  0
 62139  1  0  0  0
 62140  1  0  0  0
 63 65  1  0  0  0
 63141  1  0  0  0
 63142  1  0  0  0
 63143  1  0  0  0
 64144  1  0  0  0
 65145  1  0  0  0
 68 83  1  0  0  0
 71 72  2  0  0  0
 71 73  1  0  0  0
 71146  1  0  0  0
 72 74  1  0  0  0
 72147  1  0  0  0
 73 76  2  0  0  0
 73148  1  0  0  0
 74 75  2  0  0  0
 74 77  1  0  0  0
 75 76  1  0  0  0
 75 78  1  0  0  0
 76 83  1  0  0  0
 77 79  1  0  0  0
 77149  1  0  0  0
 77150  1  0  0  0
 78 80  1  0  0  0
 78151  1  0  0  0
 78152  1  0  0  0
 79 81  1  0  0  0
 79153  1  0  0  0
 79154  1  0  0  0
 80 81  1  0  0  0
 80155  1  0  0  0
 80156  1  0  0  0
 81 84  1  0  0  0
 81157  1  0  0  0
 82158  1  0  0  0
 82159  1  0  0  0
 82160  1  0  0  0
 82 85  1  0  0  0
 83161  1  0  0  0
 83162  1  0  0  0
 84 85  1  0  0  0
 84163  1  0  0  0
 84164  1  0  0  0
 85 86  1  0  0  0
 85165  1  0  0  0
 86166  1  0  0  0
M  ISO  4   1 100  68 101  83 101  86 100
M  END
> <chiral flag>
0

> <version>
0

> <s_m_source_file>
/data/baiqing/PycharmProjects/Reinvent-master-3.2/result/LINK_invent/BTK/process_docking_weight1_custom_sum_contain_oxygen_bond_distance_aromatic_linkinvent_7_9_3/rearranged_h_0139.sdf

> <i_m_source_file_index>
7

> <r_mmod_Potential_Energy-OPLS-2005>
114.435516357422

> <r_mmod_Stretch_Energy-OPLS-2005>
71.4751968383789

> <r_mmod_Bend_Energy-OPLS-2005>
149.751235961914

> <r_mmod_Torsional_Energy-OPLS-2005>
261.924621582031

> <r_mmod_Improper_Torsional_Energy-OPLS-2005>
3.92051935195923

> <r_mmod_Van_der_Waal_Energy-OPLS-2005>
143.472213745117

> <r_mmod_Electrostatic_Energy-OPLS-2005>
-347.967864990234

> <r_mmod_Solvation_Energy-OPLS-2005>
-199.542053222656

> <b_mmod_Minimization_Converged-OPLS-2005>
0

> <r_mmod_RMS_Derivative-OPLS-2005>
1.89470195770264

$$$$
7
                    3D
 Structure written by MMmdl.
168176  0  0  1  0            999 V2000
  -30.6372  -14.7322   20.4300 C   0  0  0  0  0  0
  -30.4321  -12.4028   19.5033 C   0  0  0  0  0  0
  -29.5174  -12.4865   18.2613 C   0  0  0  0  0  0
  -28.0408  -12.3201   18.6565 C   0  0  0  0  0  0
  -27.6434  -13.2311   19.8472 C   0  0  2  0  0  0
  -28.6732  -13.1812   20.9934 C   0  0  0  0  0  0
  -25.2539  -13.8214   20.5680 C   0  0  0  0  0  0
  -24.1819  -13.0461   20.9170 C   0  0  0  0  0  0
  -24.6394  -11.6933   20.8696 C   0  0  0  0  0  0
  -23.9074  -10.4316   21.0372 C   0  0  0  0  0  0
  -24.3630   -9.4233   21.9155 C   0  0  0  0  0  0
  -23.6326   -8.2262   22.0750 C   0  0  0  0  0  0
  -22.4301   -8.0289   21.3560 C   0  0  0  0  0  0
  -21.9930   -9.0249   20.4646 C   0  0  0  0  0  0
  -22.7244  -10.2131   20.3052 C   0  0  0  0  0  0
  -21.6873   -6.0731   22.5278 C   0  0  0  0  0  0
  -21.4014   -6.5633   23.8205 C   0  0  0  0  0  0
  -21.3667   -5.6793   24.9169 C   0  0  0  0  0  0
  -21.6046   -4.3056   24.7220 C   0  0  0  0  0  0
  -21.8831   -3.8152   23.4341 C   0  0  0  0  0  0
  -21.9209   -4.6965   22.3399 C   0  0  0  0  0  0
  -22.7850  -13.5230   21.1863 C   0  0  0  0  0  0
  -22.1687   -4.2139   21.0980 F   0  0  0  0  0  0
  -21.5638   -3.4551   25.7739 F   0  0  0  0  0  0
  -29.9946  -13.4649   20.4340 N   0  0  0  0  0  0
  -26.2946  -12.9412   20.3237 N   0  0  0  0  0  0
  -25.9319  -11.6547   20.5707 N   0  0  0  0  0  0
  -22.0541  -12.8169   22.0405 N   0  0  0  0  0  0
  -25.4292  -15.1940   20.4155 N   0  0  0  0  0  0
  -31.8204  -14.8601   20.1054 O   0  0  0  0  0  0
  -21.6679   -6.8873   21.4244 O   0  0  0  0  0  0
  -22.3506  -14.5535   20.6741 O   0  0  0  0  0  0
  -24.6260  -31.8567   23.2005 C   0  0  0  0  0  0
  -25.9105  -32.4771   23.8330 C   0  0  1  0  0  0
  -27.2319  -27.2844   20.1323 C   0  0  0  0  0  0
  -25.5943  -33.8569   24.2250 N   0  0  0  0  0  0
  -23.4223  -30.4775   21.5431 C   0  0  2  0  0  0
  -24.8764  -28.9373   20.1051 C   0  0  0  0  0  0
  -22.7483  -29.4557   22.4900 C   0  0  0  0  0  0
  -18.0276  -28.1345   22.8475 C   0  0  0  0  0  0
  -24.1500  -36.7285   23.2634 C   0  0  0  0  0  0
  -25.9662  -30.7776   21.3796 C   0  0  0  0  0  0
  -26.0419  -29.4018   20.7247 C   0  0  0  0  0  0
  -27.2157  -28.5851   20.7371 C   0  0  0  0  0  0
  -26.0496  -26.9043   19.4483 C   0  0  0  0  0  0
  -24.8850  -27.6964   19.4549 C   0  0  0  0  0  0
  -23.6432  -29.8206   20.1545 C   0  0  0  0  0  0
  -25.4126  -36.3069   24.0318 C   0  0  1  0  0  0
  -20.5881  -28.3649   23.1267 C   0  0  2  0  0  0
  -20.6748  -26.9355   22.5406 C   0  0  0  0  0  0
  -19.5734  -26.6348   21.5189 C   0  0  0  0  0  0
  -18.1914  -26.7893   22.1611 C   0  0  0  0  0  0
  -19.1523  -28.8808   23.2877 C   0  0  0  0  0  0
  -18.9463  -30.1423   23.8882 C   0  0  0  0  0  0
  -17.6461  -30.6563   24.0539 C   0  0  0  0  0  0
  -25.9056  -34.9442   23.5083 C   0  0  0  0  0  0
  -16.5351  -29.9054   23.6314 C   0  0  0  0  0  0
  -16.7264  -28.6468   23.0335 C   0  0  0  0  0  0
  -26.4496  -31.6562   25.0687 C   0  0  0  0  0  0
  -25.3733  -31.3716   26.1434 C   0  0  0  0  0  0
  -27.0307  -30.2971   24.6110 C   0  0  0  0  0  0
  -27.6023  -32.4316   25.7495 C   0  0  0  0  0  0
  -27.5588  -37.1818   24.8469 C   0  0  0  0  0  0
  -21.4183  -29.3018   22.3683 N   0  0  0  0  0  0
  -26.4298  -37.3768   23.9393 N   0  0  0  0  0  0
  -24.6902  -31.0546   22.0989 N   0  0  0  0  0  0
  -23.4216  -28.8056   23.2942 O   0  0  0  0  0  0
  -28.3450  -26.4161   20.2376 O   0  0  0  0  0  0
  -26.5617  -34.8926   22.4647 O   0  0  0  0  0  0
  -23.5411  -32.1379   23.7319 O   0  0  0  0  0  0
  -30.3538  -19.8031   18.9443 C   0  0  0  0  0  0
  -30.6288  -18.6317   18.2176 C   0  0  0  0  0  0
  -29.6086  -18.4156   20.7886 C   0  0  0  0  0  0
  -29.7617  -19.7497   20.2206 C   0  0  0  0  0  0
  -30.3668  -17.3340   18.7314 C   0  0  0  0  0  0
  -29.9374  -17.1809   20.0847 C   0  0  0  0  0  0
  -30.6336  -15.1241   14.2849 C   0  0  0  0  0  0
  -30.4690  -21.4870   21.9608 C   0  0  0  0  0  0
  -27.8180  -22.0304   19.2133 C   0  0  0  0  0  0
  -30.4211  -15.0482   15.8029 C   0  0  0  0  0  0
  -28.8853  -23.7563   20.7027 C   0  0  0  0  0  0
  -30.6614  -16.3796   16.5259 C   0  0  0  0  0  0
  -28.2845  -24.9732   19.8215 C   0  0  0  0  0  0
  -29.3731  -21.1270   20.9406 C   0  0  1  0  0  0
  -28.9972  -22.3470   20.0599 N   0  3  1  0  0  0
  -29.7503  -15.8719   20.6385 O   0  0  0  0  0  0
  -30.4788  -16.2086   17.9336 O   0  0  0  0  0  0
  -31.4772  -12.5160   19.2110 H   0  0  0  0  0  0
  -30.3545  -11.4239   19.9787 H   0  0  0  0  0  0
  -29.8000  -11.7420   17.5165 H   0  0  0  0  0  0
  -29.6484  -13.4602   17.8010 H   0  0  0  0  0  0
  -27.8894  -11.2743   18.9206 H   0  0  0  0  0  0
  -27.3932  -12.5174   17.8010 H   0  0  0  0  0  0
  -27.6429  -14.2498   19.4584 H   0  0  0  0  0  0
  -28.6745  -12.2060   21.4804 H   0  0  0  0  0  0
  -28.4209  -13.9095   21.7651 H   0  0  0  0  0  0
  -25.2776   -9.5722   22.4711 H   0  0  0  0  0  0
  -24.0067   -7.4651   22.7449 H   0  0  0  0  0  0
  -21.0884   -8.8734   19.8929 H   0  0  0  0  0  0
  -22.3688  -10.9662   19.6162 H   0  0  0  0  0  0
  -21.1993   -7.6146   23.9686 H   0  0  0  0  0  0
  -21.1485   -6.0534   25.9062 H   0  0  0  0  0  0
  -22.0606   -2.7619   23.2843 H   0  0  0  0  0  0
  -22.4240  -11.9850   22.4754 H   0  0  0  0  0  0
  -21.1139  -13.1099   22.2621 H   0  0  0  0  0  0
  -24.6725  -15.8585   20.5399 H   0  0  0  0  0  0
  -26.2956  -15.6298   20.1242 H   0  0  0  0  0  0
  -26.7154  -32.5449   23.1055 H   0  0  0  0  0  0
  -25.0174  -33.9715   25.0461 H   0  0  0  0  0  0
  -22.7179  -31.2996   21.3996 H   0  0  0  0  0  0
  -23.3766  -35.9618   23.3283 H   0  0  0  0  0  0
  -24.3606  -36.8921   22.2057 H   0  0  0  0  0  0
  -23.7248  -37.6480   23.6673 H   0  0  0  0  0  0
  -26.0972  -31.5384   20.6084 H   0  0  0  0  0  0
  -26.8461  -30.8306   22.0085 H   0  0  0  0  0  0
  -28.1015  -28.9340   21.2512 H   0  0  0  0  0  0
  -25.9734  -25.9878   18.8892 H   0  0  0  0  0  0
  -24.0022  -27.3433   18.9406 H   0  0  0  0  0  0
  -23.7707  -30.6049   19.4056 H   0  0  0  0  0  0
  -22.7637  -29.2560   19.8438 H   0  0  0  0  0  0
  -25.1294  -36.1926   25.0802 H   0  0  0  0  0  0
  -20.9977  -28.3202   24.1384 H   0  0  0  0  0  0
  -20.5579  -26.2238   23.3602 H   0  0  0  0  0  0
  -21.6620  -26.7329   22.1237 H   0  0  0  0  0  0
  -19.6886  -25.6257   21.1217 H   0  0  0  0  0  0
  -19.6677  -27.3151   20.6716 H   0  0  0  0  0  0
  -17.4170  -26.6609   21.4031 H   0  0  0  0  0  0
  -18.0334  -26.0025   22.9003 H   0  0  0  0  0  0
  -19.7937  -30.7226   24.2241 H   0  0  0  0  0  0
  -17.5019  -31.6246   24.5142 H   0  0  0  0  0  0
  -15.5346  -30.2958   23.7638 H   0  0  0  0  0  0
  -15.8669  -28.0803   22.7035 H   0  0  0  0  0  0
  -24.5922  -30.7027   25.7808 H   0  0  0  0  0  0
  -24.8925  -32.2895   26.4823 H   0  0  0  0  0  0
  -25.8104  -30.8958   27.0219 H   0  0  0  0  0  0
  -26.2846  -29.6768   24.1139 H   0  0  0  0  0  0
  -27.3993  -29.7175   25.4579 H   0  0  0  0  0  0
  -27.8729  -30.4213   23.9300 H   0  0  0  0  0  0
  -27.2565  -33.3597   26.2049 H   0  0  0  0  0  0
  -28.3883  -32.6912   25.0392 H   0  0  0  0  0  0
  -28.0627  -31.8462   26.5461 H   0  0  0  0  0  0
  -28.2595  -38.0127   24.7519 H   0  0  0  0  0  0
  -28.1088  -36.2660   24.6283 H   0  0  0  0  0  0
  -27.2303  -37.1448   25.8872 H   0  0  0  0  0  0
  -20.9315  -29.8870   21.7035 H   0  0  0  0  0  0
  -26.0168  -38.2831   24.1425 H   0  0  0  0  0  0
  -30.5712  -20.7534   18.4757 H   0  0  0  0  0  0
  -31.0296  -18.7654   17.2231 H   0  0  0  0  0  0
  -29.2108  -18.3318   21.7912 H   0  0  0  0  0  0
  -30.3830  -14.1720   13.8144 H   0  0  0  0  0  0
  -31.6719  -15.3494   14.0397 H   0  0  0  0  0  0
  -30.0046  -15.8879   13.8274 H   0  0  0  0  0  0
  -30.6747  -20.6485   22.6261 H   0  0  0  0  0  0
  -30.1716  -22.3159   22.6012 H   0  0  0  0  0  0
  -31.4037  -21.7587   21.4695 H   0  0  0  0  0  0
  -27.6686  -22.7703   18.4274 H   0  0  0  0  0  0
  -26.9093  -21.9792   19.8134 H   0  0  0  0  0  0
  -27.9272  -21.0737   18.7039 H   0  0  0  0  0  0
  -31.0765  -14.2806   16.2166 H   0  0  0  0  0  0
  -29.3943  -14.7306   15.9876 H   0  0  0  0  0  0
  -28.2754  -23.6701   21.6018 H   0  0  0  0  0  0
  -29.8744  -24.0581   21.0458 H   0  0  0  0  0  0
  -29.9642  -17.1191   16.1279 H   0  0  0  0  0  0
  -31.6750  -16.7329   16.3314 H   0  0  0  0  0  0
  -27.2567  -24.6729   19.6697 H   0  0  0  0  0  0
  -28.7606  -24.9433   18.8407 H   0  0  0  0  0  0
  -28.4775  -20.9081   21.5239 H   0  0  0  0  0  0
  -29.7636  -22.4362   19.4091 H   0  0  0  0  0  0
  1 25  1  0  0  0
  1 30  2  0  0  0
  1 86  1  0  0  0
  2  3  1  0  0  0
  2 25  1  0  0  0
  2 88  1  0  0  0
  2 89  1  0  0  0
  3  4  1  0  0  0
  3 90  1  0  0  0
  3 91  1  0  0  0
  4  5  1  0  0  0
  4 92  1  0  0  0
  4 93  1  0  0  0
  5  6  1  0  0  0
  5 26  1  0  0  0
  5 94  1  0  0  0
  6 25  1  0  0  0
  6 95  1  0  0  0
  6 96  1  0  0  0
  7  8  2  0  0  0
  7 26  1  0  0  0
  7 29  1  0  0  0
  8  9  1  0  0  0
  8 22  1  0  0  0
  9 10  1  0  0  0
  9 27  2  0  0  0
 10 11  2  0  0  0
 10 15  1  0  0  0
 11 12  1  0  0  0
 11 97  1  0  0  0
 12 13  2  0  0  0
 12 98  1  0  0  0
 13 14  1  0  0  0
 13 31  1  0  0  0
 14 15  2  0  0  0
 14 99  1  0  0  0
 15100  1  0  0  0
 16 17  2  0  0  0
 16 21  1  0  0  0
 16 31  1  0  0  0
 17 18  1  0  0  0
 17101  1  0  0  0
 18 19  2  0  0  0
 18102  1  0  0  0
 19 20  1  0  0  0
 19 24  1  0  0  0
 20 21  2  0  0  0
 20103  1  0  0  0
 21 23  1  0  0  0
 22 28  1  0  0  0
 22 32  2  0  0  0
 26 27  1  0  0  0
 28104  1  0  0  0
 28105  1  0  0  0
 29106  1  0  0  0
 29107  1  0  0  0
 33 34  1  0  0  0
 33 66  1  0  0  0
 33 70  2  0  0  0
 34 36  1  0  0  0
 34 59  1  0  0  0
 34108  1  0  0  0
 35 44  2  0  0  0
 35 45  1  0  0  0
 35 68  1  0  0  0
 36 56  1  0  0  0
 36109  1  0  0  0
 37 39  1  0  0  0
 37 47  1  0  0  0
 37 66  1  0  0  0
 37110  1  0  0  0
 38 43  2  0  0  0
 38 46  1  0  0  0
 38 47  1  0  0  0
 39 64  1  0  0  0
 39 67  2  0  0  0
 40 52  1  0  0  0
 40 53  2  0  0  0
 40 58  1  0  0  0
 41111  1  0  0  0
 41112  1  0  0  0
 41113  1  0  0  0
 41 48  1  0  0  0
 42 43  1  0  0  0
 42 66  1  0  0  0
 42114  1  0  0  0
 42115  1  0  0  0
 43 44  1  0  0  0
 44116  1  0  0  0
 45 46  2  0  0  0
 45117  1  0  0  0
 46118  1  0  0  0
 47119  1  0  0  0
 47120  1  0  0  0
 48 56  1  0  0  0
 48 65  1  0  0  0
 48121  1  0  0  0
 49 50  1  0  0  0
 49 53  1  0  0  0
 49 64  1  0  0  0
 49122  1  0  0  0
 50 51  1  0  0  0
 50123  1  0  0  0
 50124  1  0  0  0
 51 52  1  0  0  0
 51125  1  0  0  0
 51126  1  0  0  0
 52127  1  0  0  0
 52128  1  0  0  0
 53 54  1  0  0  0
 54 55  2  0  0  0
 54129  1  0  0  0
 55 57  1  0  0  0
 55130  1  0  0  0
 56 69  2  0  0  0
 57 58  2  0  0  0
 57131  1  0  0  0
 58132  1  0  0  0
 59 60  1  0  0  0
 59 61  1  0  0  0
 59 62  1  0  0  0
 60133  1  0  0  0
 60134  1  0  0  0
 60135  1  0  0  0
 61136  1  0  0  0
 61137  1  0  0  0
 61138  1  0  0  0
 62139  1  0  0  0
 62140  1  0  0  0
 62141  1  0  0  0
 63 65  1  0  0  0
 63142  1  0  0  0
 63143  1  0  0  0
 63144  1  0  0  0
 64145  1  0  0  0
 65146  1  0  0  0
 68 83  1  0  0  0
 71 72  2  0  0  0
 71 74  1  0  0  0
 71147  1  0  0  0
 72 75  1  0  0  0
 72148  1  0  0  0
 73 74  2  0  0  0
 73 76  1  0  0  0
 73149  1  0  0  0
 74 84  1  0  0  0
 75 76  2  0  0  0
 75 87  1  0  0  0
 76 86  1  0  0  0
 77 80  1  0  0  0
 77150  1  0  0  0
 77151  1  0  0  0
 77152  1  0  0  0
 78153  1  0  0  0
 78154  1  0  0  0
 78155  1  0  0  0
 78 84  1  0  0  0
 79156  1  0  0  0
 79157  1  0  0  0
 79158  1  0  0  0
 79 85  1  0  0  0
 80 82  1  0  0  0
 80159  1  0  0  0
 80160  1  0  0  0
 81 83  1  0  0  0
 81 85  1  0  0  0
 81161  1  0  0  0
 81162  1  0  0  0
 82 87  1  0  0  0
 82163  1  0  0  0
 82164  1  0  0  0
 83165  1  0  0  0
 83166  1  0  0  0
 84 85  1  0  0  0
 84167  1  0  0  0
 85168  1  0  0  0
M  CHG  1  85   1
M  ISO  4   1 100  68 101  83 101  86 100
M  END
> <chiral flag>
0

> <version>
0

> <s_m_source_file>
/data/baiqing/PycharmProjects/Reinvent-master-3.2/result/LINK_invent/BTK/process_docking_weight1_custom_sum_contain_oxygen_bond_distance_aromatic_linkinvent_7_9_3/rearranged_h_0139.sdf

> <i_m_source_file_index>
8

> <r_mmod_Potential_Energy-OPLS-2005>
93.0050582885742

> <r_mmod_Stretch_Energy-OPLS-2005>
135.441390991211

> <r_mmod_Bend_Energy-OPLS-2005>
171.090438842773

> <r_mmod_Torsional_Energy-OPLS-2005>
192.138748168945

> <r_mmod_Improper_Torsional_Energy-OPLS-2005>
4.51439428329468

> <r_mmod_Van_der_Waal_Energy-OPLS-2005>
151.370254516602

> <r_mmod_Electrostatic_Energy-OPLS-2005>
-206.193023681641

> <r_mmod_Solvation_Energy-OPLS-2005>
-432.521484375

> <b_mmod_Minimization_Converged-OPLS-2005>
0

> <r_mmod_RMS_Derivative-OPLS-2005>
3.46881175041199

$$$$
8
                    3D
 Structure written by MMmdl.
166175  0  0  1  0            999 V2000
  -30.6613  -14.6275   20.5042 C   0  0  0  0  0  0
  -30.4250  -12.3840   19.4688 C   0  0  0  0  0  0
  -29.5070  -12.4995   18.2330 C   0  0  0  0  0  0
  -28.0306  -12.3390   18.6431 C   0  0  0  0  0  0
  -27.6499  -13.2229   19.8615 C   0  0  2  0  0  0
  -28.6915  -13.1076   20.9981 C   0  0  0  0  0  0
  -25.2536  -13.8186   20.5687 C   0  0  0  0  0  0
  -24.1815  -13.0442   20.9204 C   0  0  0  0  0  0
  -24.6390  -11.6913   20.8748 C   0  0  0  0  0  0
  -23.9065  -10.4293   21.0409 C   0  0  0  0  0  0
  -24.3617   -9.4208   21.9186 C   0  0  0  0  0  0
  -23.6289   -8.2244   22.0754 C   0  0  0  0  0  0
  -22.4273   -8.0283   21.3543 C   0  0  0  0  0  0
  -21.9913   -9.0256   20.4645 C   0  0  0  0  0  0
  -22.7242  -10.2133   20.3053 C   0  0  0  0  0  0
  -21.6852   -6.0734   22.5278 C   0  0  0  0  0  0
  -21.4017   -6.5638   23.8212 C   0  0  0  0  0  0
  -21.3661   -5.6791   24.9175 C   0  0  0  0  0  0
  -21.6043   -4.3053   24.7225 C   0  0  0  0  0  0
  -21.8818   -3.8144   23.4347 C   0  0  0  0  0  0
  -21.9191   -4.6961   22.3402 C   0  0  0  0  0  0
  -22.7835  -13.5230   21.1855 C   0  0  0  0  0  0
  -22.1658   -4.2145   21.0980 F   0  0  0  0  0  0
  -21.5630   -3.4537   25.7740 F   0  0  0  0  0  0
  -30.0091  -13.4250   20.4317 N   0  0  0  0  0  0
  -26.2969  -12.9379   20.3315 N   0  0  0  0  0  0
  -25.9318  -11.6529   20.5766 N   0  0  0  0  0  0
  -22.0467  -12.8220   22.0406 N   0  0  0  0  0  0
  -25.4240  -15.1908   20.4084 N   0  0  0  0  0  0
  -31.8178  -14.7429   20.0924 O   0  0  0  0  0  0
  -21.6638   -6.8877   21.4240 O   0  0  0  0  0  0
  -22.3525  -14.5539   20.6704 O   0  0  0  0  0  0
  -24.6229  -31.8621   23.2050 C   0  0  0  0  0  0
  -25.9090  -32.4793   23.8363 C   0  0  1  0  0  0
  -27.2183  -27.3227   20.1296 C   0  0  0  0  0  0
  -25.5920  -33.8594   24.2302 N   0  0  0  0  0  0
  -23.4166  -30.4848   21.5462 C   0  0  2  0  0  0
  -24.8647  -28.9405   20.1107 C   0  0  0  0  0  0
  -22.7464  -29.4627   22.4943 C   0  0  0  0  0  0
  -18.0287  -28.1386   22.8496 C   0  0  0  0  0  0
  -24.1488  -36.7296   23.2633 C   0  0  0  0  0  0
  -25.9543  -30.7906   21.3792 C   0  0  0  0  0  0
  -26.0268  -29.4142   20.7320 C   0  0  0  0  0  0
  -27.2027  -28.6110   20.7444 C   0  0  0  0  0  0
  -26.0520  -26.9223   19.4413 C   0  0  0  0  0  0
  -24.8780  -27.6978   19.4574 C   0  0  0  0  0  0
  -23.6328  -29.8201   20.1608 C   0  0  0  0  0  0
  -25.4112  -36.3097   24.0333 C   0  0  1  0  0  0
  -20.5882  -28.3688   23.1294 C   0  0  2  0  0  0
  -20.6775  -26.9413   22.5414 C   0  0  0  0  0  0
  -19.5753  -26.6394   21.5207 C   0  0  0  0  0  0
  -18.1932  -26.7932   22.1624 C   0  0  0  0  0  0
  -19.1537  -28.8854   23.2896 C   0  0  0  0  0  0
  -18.9457  -30.1455   23.8914 C   0  0  0  0  0  0
  -17.6456  -30.6591   24.0567 C   0  0  0  0  0  0
  -25.9046  -34.9463   23.5122 C   0  0  0  0  0  0
  -16.5350  -29.9091   23.6321 C   0  0  0  0  0  0
  -16.7273  -28.6505   23.0351 C   0  0  0  0  0  0
  -26.4487  -31.6586   25.0715 C   0  0  0  0  0  0
  -25.3732  -31.3715   26.1451 C   0  0  0  0  0  0
  -27.0310  -30.3012   24.6137 C   0  0  0  0  0  0
  -27.6066  -32.4302   25.7481 C   0  0  0  0  0  0
  -27.5587  -37.1803   24.8465 C   0  0  0  0  0  0
  -21.4179  -29.3043   22.3686 N   0  0  0  0  0  0
  -26.4296  -37.3785   23.9409 N   0  0  0  0  0  0
  -24.6828  -31.0630   22.1006 N   0  0  0  0  0  0
  -23.4192  -28.8168   23.3022 O   0  0  0  0  0  0
  -28.3483  -26.4951   20.1487 O   0  0  0  0  0  0
  -26.5604  -34.8923   22.4680 O   0  0  0  0  0  0
  -23.5401  -32.1426   23.7379 O   0  0  0  0  0  0
  -27.2834  -22.9221   20.8973 C   0  0  0  0  0  0
  -27.1737  -24.3210   20.6915 C   0  0  0  0  0  0
  -28.5392  -22.2671   20.8643 C   0  0  0  0  0  0
  -28.3192  -25.0962   20.3924 C   0  0  0  0  0  0
  -29.6405  -23.1207   20.6048 C   0  0  0  0  0  0
  -33.6571  -21.4608   19.8193 C   0  0  0  0  0  0
  -34.4792  -22.7270   19.7957 C   0  0  0  0  0  0
  -33.2856  -22.6191   20.7168 C   0  0  0  0  0  0
  -31.5002  -17.5217   21.6434 C   0  0  0  0  0  0
  -28.6301  -20.7516   21.3067 C   0  0  0  0  0  0
  -32.0254  -23.4204   20.4629 C   0  0  0  0  0  0
  -29.1604  -18.2587   20.9200 C   0  0  0  0  0  0
  -30.3263  -17.1920   20.6971 C   0  0  2  0  0  0
  -29.5272  -24.4680   20.3528 N   0  0  0  0  0  0
  -29.9344  -15.7370   20.8569 N   0  0  0  0  0  0
  -29.4526  -19.7137   20.5702 N   0  3  0  0  0  0
  -30.9015  -22.5650   20.6437 O   0  0  0  0  0  0
  -31.4704  -12.4813   19.1718 H   0  0  0  0  0  0
  -30.3376  -11.3959   19.9231 H   0  0  0  0  0  0
  -29.7743  -11.7436   17.4930 H   0  0  0  0  0  0
  -29.6538  -13.4675   17.7509 H   0  0  0  0  0  0
  -27.8719  -11.2882   18.8877 H   0  0  0  0  0  0
  -27.3767  -12.5557   17.7976 H   0  0  0  0  0  0
  -27.6626  -14.2536   19.5061 H   0  0  0  0  0  0
  -28.6957  -12.1003   21.4173 H   0  0  0  0  0  0
  -28.4391  -13.7757   21.8231 H   0  0  0  0  0  0
  -25.2759   -9.5682   22.4765 H   0  0  0  0  0  0
  -23.9996   -7.4634   22.7475 H   0  0  0  0  0  0
  -21.0846   -8.8776   19.8947 H   0  0  0  0  0  0
  -22.3706  -10.9671   19.6161 H   0  0  0  0  0  0
  -21.2011   -7.6145   23.9715 H   0  0  0  0  0  0
  -21.1487   -6.0521   25.9079 H   0  0  0  0  0  0
  -22.0596   -2.7603   23.2849 H   0  0  0  0  0  0
  -22.4069  -11.9875   22.4796 H   0  0  0  0  0  0
  -21.1078  -13.1241   22.2588 H   0  0  0  0  0  0
  -24.6515  -15.8411   20.5053 H   0  0  0  0  0  0
  -26.2608  -15.6232   20.0395 H   0  0  0  0  0  0
  -26.7152  -32.5489   23.1110 H   0  0  0  0  0  0
  -25.0092  -33.9741   25.0464 H   0  0  0  0  0  0
  -22.7089  -31.3041   21.4038 H   0  0  0  0  0  0
  -23.3755  -35.9623   23.3300 H   0  0  0  0  0  0
  -24.3581  -36.8906   22.2047 H   0  0  0  0  0  0
  -23.7236  -37.6500   23.6641 H   0  0  0  0  0  0
  -26.0783  -31.5470   20.6033 H   0  0  0  0  0  0
  -26.8378  -30.8477   22.0029 H   0  0  0  0  0  0
  -28.0951  -28.9646   21.2419 H   0  0  0  0  0  0
  -26.0372  -25.9869   18.9005 H   0  0  0  0  0  0
  -23.9940  -27.3395   18.9478 H   0  0  0  0  0  0
  -23.7535  -30.5962   19.4040 H   0  0  0  0  0  0
  -22.7531  -29.2491   19.8581 H   0  0  0  0  0  0
  -25.1286  -36.1957   25.0824 H   0  0  0  0  0  0
  -20.9978  -28.3268   24.1415 H   0  0  0  0  0  0
  -20.5666  -26.2294   23.3610 H   0  0  0  0  0  0
  -21.6642  -26.7450   22.1205 H   0  0  0  0  0  0
  -19.6908  -25.6303   21.1237 H   0  0  0  0  0  0
  -19.6685  -27.3207   20.6739 H   0  0  0  0  0  0
  -17.4196  -26.6685   21.4035 H   0  0  0  0  0  0
  -18.0340  -26.0068   22.9016 H   0  0  0  0  0  0
  -19.7933  -30.7269   24.2293 H   0  0  0  0  0  0
  -17.5010  -31.6271   24.5167 H   0  0  0  0  0  0
  -15.5352  -30.2997   23.7633 H   0  0  0  0  0  0
  -15.8676  -28.0830   22.7053 H   0  0  0  0  0  0
  -24.5936  -30.7021   25.7791 H   0  0  0  0  0  0
  -24.8881  -32.2868   26.4855 H   0  0  0  0  0  0
  -25.8075  -30.8931   27.0238 H   0  0  0  0  0  0
  -26.2870  -29.6789   24.1150 H   0  0  0  0  0  0
  -27.4006  -29.7240   25.4620 H   0  0  0  0  0  0
  -27.8739  -30.4296   23.9343 H   0  0  0  0  0  0
  -27.2704  -33.3613   26.2056 H   0  0  0  0  0  0
  -28.3879  -32.6843   25.0304 H   0  0  0  0  0  0
  -28.0715  -31.8413   26.5399 H   0  0  0  0  0  0
  -28.2600  -38.0106   24.7522 H   0  0  0  0  0  0
  -28.1088  -36.2640   24.6277 H   0  0  0  0  0  0
  -27.2301  -37.1437   25.8867 H   0  0  0  0  0  0
  -20.9348  -29.8759   21.6893 H   0  0  0  0  0  0
  -26.0187  -38.2859   24.1425 H   0  0  0  0  0  0
  -26.3904  -22.3635   21.1382 H   0  0  0  0  0  0
  -26.1980  -24.7715   20.7884 H   0  0  0  0  0  0
  -34.1000  -20.5840   20.2891 H   0  0  0  0  0  0
  -33.0153  -21.2581   18.9637 H   0  0  0  0  0  0
  -34.3905  -23.3663   18.9190 H   0  0  0  0  0  0
  -35.4671  -22.6999   20.2523 H   0  0  0  0  0  0
  -33.4940  -22.4640   21.7741 H   0  0  0  0  0  0
  -31.8288  -18.5553   21.5363 H   0  0  0  0  0  0
  -32.3731  -16.9010   21.4443 H   0  0  0  0  0  0
  -31.2229  -17.3722   22.6878 H   0  0  0  0  0  0
  -27.6071  -20.3729   21.3189 H   0  0  0  0  0  0
  -28.9501  -20.7409   22.3493 H   0  0  0  0  0  0
  -32.0344  -23.8157   19.4459 H   0  0  0  0  0  0
  -32.0076  -24.2628   21.1565 H   0  0  0  0  0  0
  -28.8637  -18.2127   21.9693 H   0  0  0  0  0  0
  -28.2774  -17.9587   20.3543 H   0  0  0  0  0  0
  -30.6775  -17.3021   19.6691 H   0  0  0  0  0  0
  -28.9900  -15.5531   21.1614 H   0  0  0  0  0  0
  -30.4231  -19.9027   20.7591 H   0  0  0  0  0  0
  -29.3096  -19.8223   19.5793 H   0  0  0  0  0  0
  1 25  1  0  0  0
  1 30  2  0  0  0
  1 85  1  0  0  0
  2  3  1  0  0  0
  2 25  1  0  0  0
  2 88  1  0  0  0
  2 89  1  0  0  0
  3  4  1  0  0  0
  3 90  1  0  0  0
  3 91  1  0  0  0
  4  5  1  0  0  0
  4 92  1  0  0  0
  4 93  1  0  0  0
  5  6  1  0  0  0
  5 26  1  0  0  0
  5 94  1  0  0  0
  6 25  1  0  0  0
  6 95  1  0  0  0
  6 96  1  0  0  0
  7  8  2  0  0  0
  7 26  1  0  0  0
  7 29  1  0  0  0
  8  9  1  0  0  0
  8 22  1  0  0  0
  9 10  1  0  0  0
  9 27  2  0  0  0
 10 11  2  0  0  0
 10 15  1  0  0  0
 11 12  1  0  0  0
 11 97  1  0  0  0
 12 13  2  0  0  0
 12 98  1  0  0  0
 13 14  1  0  0  0
 13 31  1  0  0  0
 14 15  2  0  0  0
 14 99  1  0  0  0
 15100  1  0  0  0
 16 17  2  0  0  0
 16 21  1  0  0  0
 16 31  1  0  0  0
 17 18  1  0  0  0
 17101  1  0  0  0
 18 19  2  0  0  0
 18102  1  0  0  0
 19 20  1  0  0  0
 19 24  1  0  0  0
 20 21  2  0  0  0
 20103  1  0  0  0
 21 23  1  0  0  0
 22 28  1  0  0  0
 22 32  2  0  0  0
 26 27  1  0  0  0
 28104  1  0  0  0
 28105  1  0  0  0
 29106  1  0  0  0
 29107  1  0  0  0
 33 34  1  0  0  0
 33 66  1  0  0  0
 33 70  2  0  0  0
 34 36  1  0  0  0
 34 59  1  0  0  0
 34108  1  0  0  0
 35 44  2  0  0  0
 35 45  1  0  0  0
 35 68  1  0  0  0
 36 56  1  0  0  0
 36109  1  0  0  0
 37 39  1  0  0  0
 37 47  1  0  0  0
 37 66  1  0  0  0
 37110  1  0  0  0
 38 43  2  0  0  0
 38 46  1  0  0  0
 38 47  1  0  0  0
 39 64  1  0  0  0
 39 67  2  0  0  0
 40 52  1  0  0  0
 40 53  2  0  0  0
 40 58  1  0  0  0
 41111  1  0  0  0
 41112  1  0  0  0
 41113  1  0  0  0
 41 48  1  0  0  0
 42 43  1  0  0  0
 42 66  1  0  0  0
 42114  1  0  0  0
 42115  1  0  0  0
 43 44  1  0  0  0
 44116  1  0  0  0
 45 46  2  0  0  0
 45117  1  0  0  0
 46118  1  0  0  0
 47119  1  0  0  0
 47120  1  0  0  0
 48 56  1  0  0  0
 48 65  1  0  0  0
 48121  1  0  0  0
 49 50  1  0  0  0
 49 53  1  0  0  0
 49 64  1  0  0  0
 49122  1  0  0  0
 50 51  1  0  0  0
 50123  1  0  0  0
 50124  1  0  0  0
 51 52  1  0  0  0
 51125  1  0  0  0
 51126  1  0  0  0
 52127  1  0  0  0
 52128  1  0  0  0
 53 54  1  0  0  0
 54 55  2  0  0  0
 54129  1  0  0  0
 55 57  1  0  0  0
 55130  1  0  0  0
 56 69  2  0  0  0
 57 58  2  0  0  0
 57131  1  0  0  0
 58132  1  0  0  0
 59 60  1  0  0  0
 59 61  1  0  0  0
 59 62  1  0  0  0
 60133  1  0  0  0
 60134  1  0  0  0
 60135  1  0  0  0
 61136  1  0  0  0
 61137  1  0  0  0
 61138  1  0  0  0
 62139  1  0  0  0
 62140  1  0  0  0
 62141  1  0  0  0
 63 65  1  0  0  0
 63142  1  0  0  0
 63143  1  0  0  0
 63144  1  0  0  0
 64145  1  0  0  0
 65146  1  0  0  0
 68 74  1  0  0  0
 71 72  2  0  0  0
 71 73  1  0  0  0
 71147  1  0  0  0
 72 74  1  0  0  0
 72148  1  0  0  0
 73 75  2  0  0  0
 73 80  1  0  0  0
 74 84  2  0  0  0
 75 84  1  0  0  0
 75 87  1  0  0  0
 76 77  1  0  0  0
 76 78  1  0  0  0
 76149  1  0  0  0
 76150  1  0  0  0
 77 78  1  0  0  0
 77151  1  0  0  0
 77152  1  0  0  0
 78 81  1  0  0  0
 78153  1  0  0  0
 79154  1  0  0  0
 79155  1  0  0  0
 79156  1  0  0  0
 79 83  1  0  0  0
 80 86  1  0  0  0
 80157  1  0  0  0
 80158  1  0  0  0
 81 87  1  0  0  0
 81159  1  0  0  0
 81160  1  0  0  0
 82 83  1  0  0  0
 82 86  1  0  0  0
 82161  1  0  0  0
 82162  1  0  0  0
 83 85  1  0  0  0
 83163  1  0  0  0
 85164  1  0  0  0
 86165  1  0  0  0
 86166  1  0  0  0
M  CHG  1  86   1
M  ISO  4   1 100  68 101  74 101  85 100
M  END
> <chiral flag>
0

> <version>
0

> <s_m_source_file>
/data/baiqing/PycharmProjects/Reinvent-master-3.2/result/LINK_invent/BTK/process_docking_weight1_custom_sum_contain_oxygen_bond_distance_aromatic_linkinvent_7_9_3/rearranged_h_0139.sdf

> <i_m_source_file_index>
9

> <r_mmod_Potential_Energy-OPLS-2005>
-276.555114746094

> <r_mmod_Stretch_Energy-OPLS-2005>
76.9036636352539

> <r_mmod_Bend_Energy-OPLS-2005>
147.026519775391

> <r_mmod_Torsional_Energy-OPLS-2005>
230.10986328125

> <r_mmod_Improper_Torsional_Energy-OPLS-2005>
5.62655878067017

> <r_mmod_Van_der_Waal_Energy-OPLS-2005>
150.213180541992

> <r_mmod_Electrostatic_Energy-OPLS-2005>
-458.631011962891

> <r_mmod_Solvation_Energy-OPLS-2005>
-473.178344726562

> <b_mmod_Minimization_Converged-OPLS-2005>
0

> <r_mmod_RMS_Derivative-OPLS-2005>
1.23405253887177

$$$$
9
                    3D
 Structure written by MMmdl.
168177  0  0  1  0            999 V2000
  -30.4359  -15.1230   20.3167 C   0  0  0  0  0  0
  -30.4450  -12.7022   19.4588 C   0  0  0  0  0  0
  -29.5023  -12.4641   18.2509 C   0  0  0  0  0  0
  -28.0707  -12.1392   18.7240 C   0  0  0  0  0  0
  -27.5962  -13.1228   19.8079 C   0  0  2  0  0  0
  -28.6620  -13.3005   20.9249 C   0  0  0  0  0  0
  -25.2232  -13.7693   20.5958 C   0  0  0  0  0  0
  -24.1546  -12.9989   20.9465 C   0  0  0  0  0  0
  -24.6158  -11.6554   20.8838 C   0  0  0  0  0  0
  -23.8882  -10.4022   21.0396 C   0  0  0  0  0  0
  -24.3504   -9.4012   21.9173 C   0  0  0  0  0  0
  -23.6212   -8.2071   22.0773 C   0  0  0  0  0  0
  -22.4198   -8.0144   21.3558 C   0  0  0  0  0  0
  -21.9763   -9.0082   20.4638 C   0  0  0  0  0  0
  -22.7078  -10.1950   20.3011 C   0  0  0  0  0  0
  -21.6820   -6.0669   22.5297 C   0  0  0  0  0  0
  -21.3979   -6.5602   23.8218 C   0  0  0  0  0  0
  -21.3620   -5.6760   24.9178 C   0  0  0  0  0  0
  -21.6034   -4.3036   24.7212 C   0  0  0  0  0  0
  -21.8821   -3.8121   23.4333 C   0  0  0  0  0  0
  -21.9224   -4.6921   22.3379 C   0  0  0  0  0  0
  -22.7639  -13.4891   21.2082 C   0  0  0  0  0  0
  -22.1692   -4.2106   21.0973 F   0  0  0  0  0  0
  -21.5668   -3.4557   25.7749 F   0  0  0  0  0  0
  -29.8839  -13.8219   20.2800 N   0  0  0  0  0  0
  -26.2622  -12.8795   20.3273 N   0  0  0  0  0  0
  -25.9042  -11.6072   20.5830 N   0  0  0  0  0  0
  -22.0276  -12.7924   22.0654 N   0  0  0  0  0  0
  -25.3374  -15.1387   20.4543 N   0  0  0  0  0  0
  -31.6684  -15.1657   20.2017 O   0  0  0  0  0  0
  -21.6558   -6.8770   21.4270 O   0  0  0  0  0  0
  -22.3382  -14.5183   20.6882 O   0  0  0  0  0  0
  -24.6321  -31.8487   23.1912 C   0  0  0  0  0  0
  -25.9115  -32.4747   23.8309 C   0  0  1  0  0  0
  -27.2885  -27.2197   20.2107 C   0  0  0  0  0  0
  -25.5906  -33.8558   24.2243 N   0  0  0  0  0  0
  -23.4378  -30.4574   21.5338 C   0  0  2  0  0  0
  -24.9054  -28.8814   20.1289 C   0  0  0  0  0  0
  -22.7509  -29.4548   22.4908 C   0  0  0  0  0  0
  -18.0295  -28.1397   22.8481 C   0  0  0  0  0  0
  -24.1485  -36.7266   23.2662 C   0  0  0  0  0  0
  -25.9823  -30.7575   21.3748 C   0  0  0  0  0  0
  -26.0691  -29.3668   20.7368 C   0  0  0  0  0  0
  -27.2534  -28.5532   20.7531 C   0  0  0  0  0  0
  -26.0945  -26.8020   19.5721 C   0  0  0  0  0  0
  -24.9287  -27.6100   19.5271 C   0  0  0  0  0  0
  -23.6684  -29.7664   20.1598 C   0  0  0  0  0  0
  -25.4107  -36.3062   24.0346 C   0  0  1  0  0  0
  -20.5898  -28.3725   23.1273 C   0  0  2  0  0  0
  -20.6769  -26.9434   22.5429 C   0  0  0  0  0  0
  -19.5760  -26.6387   21.5214 C   0  0  0  0  0  0
  -18.1936  -26.7932   22.1622 C   0  0  0  0  0  0
  -19.1554  -28.8876   23.2857 C   0  0  0  0  0  0
  -18.9468  -30.1465   23.8878 C   0  0  0  0  0  0
  -17.6471  -30.6601   24.0557 C   0  0  0  0  0  0
  -25.9035  -34.9438   23.5098 C   0  0  0  0  0  0
  -16.5355  -29.9093   23.6345 C   0  0  0  0  0  0
  -16.7276  -28.6512   23.0354 C   0  0  0  0  0  0
  -26.4457  -31.6584   25.0722 C   0  0  0  0  0  0
  -25.3681  -31.3714   26.1455 C   0  0  0  0  0  0
  -27.0312  -30.3010   24.6213 C   0  0  0  0  0  0
  -27.6023  -32.4334   25.7473 C   0  0  0  0  0  0
  -27.5554  -37.1772   24.8470 C   0  0  0  0  0  0
  -21.4216  -29.3044   22.3631 N   0  0  0  0  0  0
  -26.4265  -37.3767   23.9415 N   0  0  0  0  0  0
  -24.7019  -31.0408   22.0911 N   0  0  0  0  0  0
  -23.4163  -28.8112   23.3054 O   0  0  0  0  0  0
  -28.4513  -26.3861   20.2602 O   0  0  0  0  0  0
  -26.5634  -34.8905   22.4689 O   0  0  0  0  0  0
  -23.5448  -32.1294   23.7183 O   0  0  0  0  0  0
  -28.4940  -18.3261   20.9470 C   0  0  0  0  0  0
  -27.3964  -17.4713   20.4846 C   0  0  0  0  0  0
  -30.5459  -23.0733   21.0165 C   0  0  0  0  0  0
  -28.4865  -22.2765   19.8945 C   0  0  0  0  0  0
  -29.7363  -24.3920   21.4697 C   0  0  0  0  0  0
  -28.3498  -23.8322   19.5036 C   0  0  0  0  0  0
  -29.7592  -17.9358   20.1912 C   0  0  1  0  0  0
  -29.7310  -21.7496   20.7406 C   0  0  1  0  0  0
  -28.4711  -24.9023   20.6397 C   0  0  2  0  0  0
  -28.1657  -16.2827   19.8805 C   0  0  1  0  0  0
  -26.4460  -16.2612   17.7941 C   0  0  0  0  0  0
  -30.7754  -19.0943   20.7216 C   0  0  0  0  0  0
  -27.9134  -16.2515   18.3173 C   0  0  0  0  0  0
  -29.6247  -16.3427   20.2663 N   0  0  0  0  0  0
  -30.5374  -20.5459   20.1325 N   0  3  0  0  0  0
  -28.3403  -19.1368   21.8662 O   0  0  0  0  0  0
  -31.4449  -12.9395   19.0998 H   0  0  0  0  0  0
  -30.5493  -11.7895   20.0465 H   0  0  0  0  0  0
  -29.8798  -11.6533   17.6260 H   0  0  0  0  0  0
  -29.4836  -13.3447   17.6113 H   0  0  0  0  0  0
  -28.0755  -11.1282   19.1289 H   0  0  0  0  0  0
  -27.3810  -12.1185   17.8797 H   0  0  0  0  0  0
  -27.4632  -13.9837   19.1866 H   0  0  0  0  0  0
  -28.8651  -12.3508   21.4228 H   0  0  0  0  0  0
  -28.3159  -13.9588   21.7211 H   0  0  0  0  0  0
  -25.2642   -9.5558   22.4748 H   0  0  0  0  0  0
  -23.9979   -7.4461   22.7464 H   0  0  0  0  0  0
  -21.0700   -8.8518   19.8932 H   0  0  0  0  0  0
  -22.3536  -10.9496   19.6131 H   0  0  0  0  0  0
  -21.1976   -7.6129   23.9702 H   0  0  0  0  0  0
  -21.1428   -6.0480   25.9047 H   0  0  0  0  0  0
  -22.0652   -2.7599   23.2815 H   0  0  0  0  0  0
  -22.3897  -11.9561   22.5013 H   0  0  0  0  0  0
  -21.0851  -13.0933   22.2754 H   0  0  0  0  0  0
  -24.5488  -15.7528   20.6199 H   0  0  0  0  0  0
  -26.1079  -15.6050   19.9959 H   0  0  0  0  0  0
  -26.7192  -32.5362   23.1067 H   0  0  0  0  0  0
  -25.0006  -33.9707   25.0356 H   0  0  0  0  0  0
  -22.7399  -31.2798   21.3691 H   0  0  0  0  0  0
  -23.3754  -35.9581   23.3302 H   0  0  0  0  0  0
  -24.3562  -36.8911   22.2068 H   0  0  0  0  0  0
  -23.7173  -37.6448   23.6686 H   0  0  0  0  0  0
  -26.1143  -31.5079   20.5937 H   0  0  0  0  0  0
  -26.8620  -30.8271   22.0044 H   0  0  0  0  0  0
  -28.1451  -28.9336   21.2324 H   0  0  0  0  0  0
  -26.0591  -25.8267   19.1133 H   0  0  0  0  0  0
  -24.0419  -27.2306   19.0386 H   0  0  0  0  0  0
  -23.7926  -30.5298   19.3919 H   0  0  0  0  0  0
  -22.7898  -29.1943   19.8551 H   0  0  0  0  0  0
  -25.1261  -36.1923   25.0829 H   0  0  0  0  0  0
  -20.9967  -28.3317   24.1407 H   0  0  0  0  0  0
  -20.5655  -26.2318   23.3629 H   0  0  0  0  0  0
  -21.6623  -26.7436   22.1229 H   0  0  0  0  0  0
  -19.6914  -25.6295   21.1248 H   0  0  0  0  0  0
  -19.6693  -27.3184   20.6732 H   0  0  0  0  0  0
  -17.4188  -26.6693   21.4039 H   0  0  0  0  0  0
  -18.0344  -26.0083   22.9033 H   0  0  0  0  0  0
  -19.7925  -30.7302   24.2236 H   0  0  0  0  0  0
  -17.5003  -31.6280   24.5164 H   0  0  0  0  0  0
  -15.5340  -30.2983   23.7685 H   0  0  0  0  0  0
  -15.8668  -28.0813   22.7093 H   0  0  0  0  0  0
  -24.5900  -30.7036   25.7764 H   0  0  0  0  0  0
  -24.8843  -32.2879   26.4850 H   0  0  0  0  0  0
  -25.8040  -30.8907   27.0239 H   0  0  0  0  0  0
  -26.2920  -29.6767   24.1226 H   0  0  0  0  0  0
  -27.3972  -29.7267   25.4722 H   0  0  0  0  0  0
  -27.8778  -30.4291   23.9483 H   0  0  0  0  0  0
  -27.2672  -33.3688   26.1966 H   0  0  0  0  0  0
  -28.3857  -32.6820   25.0302 H   0  0  0  0  0  0
  -28.0664  -31.8516   26.5440 H   0  0  0  0  0  0
  -28.2570  -38.0074   24.7515 H   0  0  0  0  0  0
  -28.1058  -36.2604   24.6302 H   0  0  0  0  0  0
  -27.2292  -37.1413   25.8884 H   0  0  0  0  0  0
  -20.9449  -29.8740   21.6783 H   0  0  0  0  0  0
  -26.0156  -38.2846   24.1447 H   0  0  0  0  0  0
  -26.8165  -18.0418   19.7612 H   0  0  0  0  0  0
  -26.7700  -17.2098   21.3390 H   0  0  0  0  0  0
  -31.2827  -22.8468   21.7904 H   0  0  0  0  0  0
  -31.1366  -23.3205   20.1328 H   0  0  0  0  0  0
  -28.4124  -21.7015   18.9722 H   0  0  0  0  0  0
  -27.5878  -22.0061   20.4495 H   0  0  0  0  0  0
  -30.4474  -25.2119   21.5766 H   0  0  0  0  0  0
  -29.3987  -24.2042   22.4914 H   0  0  0  0  0  0
  -27.3939  -23.9748   19.0120 H   0  0  0  0  0  0
  -29.1005  -24.0641   18.7486 H   0  0  0  0  0  0
  -29.6561  -18.1821   19.1364 H   0  0  0  0  0  0
  -29.3729  -21.4274   21.7174 H   0  0  0  0  0  0
  -27.6162  -24.7602   21.3063 H   0  0  0  0  0  0
  -27.7344  -15.4927   20.4450 H   0  0  0  0  0  0
  -26.4123  -16.5408   16.7375 H   0  0  0  0  0  0
  -25.7994  -16.9869   18.2909 H   0  0  0  0  0  0
  -25.9607  -15.2856   17.8563 H   0  0  0  0  0  0
  -31.7904  -18.8106   20.4408 H   0  0  0  0  0  0
  -30.8177  -19.1408   21.8124 H   0  0  0  0  0  0
  -28.4243  -15.3988   17.8718 H   0  0  0  0  0  0
  -28.3774  -17.1131   17.8459 H   0  0  0  0  0  0
  -31.4709  -20.9150   20.0391 H   0  0  0  0  0  0
  -30.2274  -20.4390   19.1802 H   0  0  0  0  0  0
  1 25  1  0  0  0
  1 30  2  0  0  0
  1 84  1  0  0  0
  2  3  1  0  0  0
  2 25  1  0  0  0
  2 87  1  0  0  0
  2 88  1  0  0  0
  3  4  1  0  0  0
  3 89  1  0  0  0
  3 90  1  0  0  0
  4  5  1  0  0  0
  4 91  1  0  0  0
  4 92  1  0  0  0
  5  6  1  0  0  0
  5 26  1  0  0  0
  5 93  1  0  0  0
  6 25  1  0  0  0
  6 94  1  0  0  0
  6 95  1  0  0  0
  7  8  2  0  0  0
  7 26  1  0  0  0
  7 29  1  0  0  0
  8  9  1  0  0  0
  8 22  1  0  0  0
  9 10  1  0  0  0
  9 27  2  0  0  0
 10 11  2  0  0  0
 10 15  1  0  0  0
 11 12  1  0  0  0
 11 96  1  0  0  0
 12 13  2  0  0  0
 12 97  1  0  0  0
 13 14  1  0  0  0
 13 31  1  0  0  0
 14 15  2  0  0  0
 14 98  1  0  0  0
 15 99  1  0  0  0
 16 17  2  0  0  0
 16 21  1  0  0  0
 16 31  1  0  0  0
 17 18  1  0  0  0
 17100  1  0  0  0
 18 19  2  0  0  0
 18101  1  0  0  0
 19 20  1  0  0  0
 19 24  1  0  0  0
 20 21  2  0  0  0
 20102  1  0  0  0
 21 23  1  0  0  0
 22 28  1  0  0  0
 22 32  2  0  0  0
 26 27  1  0  0  0
 28103  1  0  0  0
 28104  1  0  0  0
 29105  1  0  0  0
 29106  1  0  0  0
 33 34  1  0  0  0
 33 66  1  0  0  0
 33 70  2  0  0  0
 34 36  1  0  0  0
 34 59  1  0  0  0
 34107  1  0  0  0
 35 44  2  0  0  0
 35 45  1  0  0  0
 35 68  1  0  0  0
 36 56  1  0  0  0
 36108  1  0  0  0
 37 39  1  0  0  0
 37 47  1  0  0  0
 37 66  1  0  0  0
 37109  1  0  0  0
 38 43  2  0  0  0
 38 46  1  0  0  0
 38 47  1  0  0  0
 39 64  1  0  0  0
 39 67  2  0  0  0
 40 52  1  0  0  0
 40 53  2  0  0  0
 40 58  1  0  0  0
 41110  1  0  0  0
 41111  1  0  0  0
 41112  1  0  0  0
 41 48  1  0  0  0
 42 43  1  0  0  0
 42 66  1  0  0  0
 42113  1  0  0  0
 42114  1  0  0  0
 43 44  1  0  0  0
 44115  1  0  0  0
 45 46  2  0  0  0
 45116  1  0  0  0
 46117  1  0  0  0
 47118  1  0  0  0
 47119  1  0  0  0
 48 56  1  0  0  0
 48 65  1  0  0  0
 48120  1  0  0  0
 49 50  1  0  0  0
 49 53  1  0  0  0
 49 64  1  0  0  0
 49121  1  0  0  0
 50 51  1  0  0  0
 50122  1  0  0  0
 50123  1  0  0  0
 51 52  1  0  0  0
 51124  1  0  0  0
 51125  1  0  0  0
 52126  1  0  0  0
 52127  1  0  0  0
 53 54  1  0  0  0
 54 55  2  0  0  0
 54128  1  0  0  0
 55 57  1  0  0  0
 55129  1  0  0  0
 56 69  2  0  0  0
 57 58  2  0  0  0
 57130  1  0  0  0
 58131  1  0  0  0
 59 60  1  0  0  0
 59 61  1  0  0  0
 59 62  1  0  0  0
 60132  1  0  0  0
 60133  1  0  0  0
 60134  1  0  0  0
 61135  1  0  0  0
 61136  1  0  0  0
 61137  1  0  0  0
 62138  1  0  0  0
 62139  1  0  0  0
 62140  1  0  0  0
 63 65  1  0  0  0
 63141  1  0  0  0
 63142  1  0  0  0
 63143  1  0  0  0
 64144  1  0  0  0
 65145  1  0  0  0
 68 79  1  0  0  0
 71 72  1  0  0  0
 71 77  1  0  0  0
 71 86  2  0  0  0
 72 80  1  0  0  0
 72146  1  0  0  0
 72147  1  0  0  0
 73 75  1  0  0  0
 73 78  1  0  0  0
 73148  1  0  0  0
 73149  1  0  0  0
 74 76  1  0  0  0
 74 78  1  0  0  0
 74150  1  0  0  0
 74151  1  0  0  0
 75 79  1  0  0  0
 75152  1  0  0  0
 75153  1  0  0  0
 76 79  1  0  0  0
 76154  1  0  0  0
 76155  1  0  0  0
 77 82  1  0  0  0
 77 84  1  0  0  0
 77156  1  0  0  0
 78 85  1  0  0  0
 78157  1  0  0  0
 79158  1  0  0  0
 80 83  1  0  0  0
 80 84  1  0  0  0
 80159  1  0  0  0
 81 83  1  0  0  0
 81160  1  0  0  0
 81161  1  0  0  0
 81162  1  0  0  0
 82 85  1  0  0  0
 82163  1  0  0  0
 82164  1  0  0  0
 83165  1  0  0  0
 83166  1  0  0  0
 85167  1  0  0  0
 85168  1  0  0  0
M  CHG  1  85   1
M  ISO  4   1 100  68 101  79 101  84 100
M  END
> <chiral flag>
0

> <version>
0

> <s_m_source_file>
/data/baiqing/PycharmProjects/Reinvent-master-3.2/result/LINK_invent/BTK/process_docking_weight1_custom_sum_contain_oxygen_bond_distance_aromatic_linkinvent_7_9_3/rearranged_h_0139.sdf

> <i_m_source_file_index>
10

> <r_mmod_Potential_Energy-OPLS-2005>
697.607543945312

> <r_mmod_Stretch_Energy-OPLS-2005>
239.455856323242

> <r_mmod_Bend_Energy-OPLS-2005>
450.466583251953

> <r_mmod_Torsional_Energy-OPLS-2005>
357.563171386719

> <r_mmod_Improper_Torsional_Energy-OPLS-2005>
6.22172021865845

> <r_mmod_Van_der_Waal_Energy-OPLS-2005>
156.676483154297

> <r_mmod_Electrostatic_Energy-OPLS-2005>
-307.350646972656

> <r_mmod_Solvation_Energy-OPLS-2005>
-457.050262451172

> <b_mmod_Minimization_Converged-OPLS-2005>
0

> <r_mmod_RMS_Derivative-OPLS-2005>
7.20450067520142

$$$$
10
                    3D
 Structure written by MMmdl.
181190  0  0  1  0            999 V2000
  -30.6169  -14.6958   20.4805 C   0  0  0  0  0  0
  -30.4317  -12.4332   19.4478 C   0  0  0  0  0  0
  -29.5008  -12.5018   18.2185 C   0  0  0  0  0  0
  -28.0253  -12.3339   18.6363 C   0  0  0  0  0  0
  -27.6393  -13.2238   19.8469 C   0  0  2  0  0  0
  -28.6870  -13.1292   20.9751 C   0  0  0  0  0  0
  -25.2494  -13.8176   20.5682 C   0  0  0  0  0  0
  -24.1782  -13.0434   20.9209 C   0  0  0  0  0  0
  -24.6366  -11.6913   20.8732 C   0  0  0  0  0  0
  -23.9037  -10.4295   21.0389 C   0  0  0  0  0  0
  -24.3601   -9.4217   21.9172 C   0  0  0  0  0  0
  -23.6290   -8.2242   22.0744 C   0  0  0  0  0  0
  -22.4267   -8.0266   21.3542 C   0  0  0  0  0  0
  -21.9892   -9.0227   20.4640 C   0  0  0  0  0  0
  -22.7207  -10.2122   20.3043 C   0  0  0  0  0  0
  -21.6859   -6.0722   22.5279 C   0  0  0  0  0  0
  -21.4012   -6.5633   23.8207 C   0  0  0  0  0  0
  -21.3655   -5.6788   24.9173 C   0  0  0  0  0  0
  -21.6043   -4.3050   24.7229 C   0  0  0  0  0  0
  -21.8824   -3.8138   23.4352 C   0  0  0  0  0  0
  -21.9198   -4.6948   22.3405 C   0  0  0  0  0  0
  -22.7814  -13.5219   21.1877 C   0  0  0  0  0  0
  -22.1669   -4.2133   21.0984 F   0  0  0  0  0  0
  -21.5625   -3.4534   25.7743 F   0  0  0  0  0  0
  -29.9867  -13.4808   20.3895 N   0  0  0  0  0  0
  -26.2912  -12.9370   20.3258 N   0  0  0  0  0  0
  -25.9292  -11.6524   20.5737 N   0  0  0  0  0  0
  -22.0472  -12.8202   22.0435 N   0  0  0  0  0  0
  -25.4199  -15.1898   20.4110 N   0  0  0  0  0  0
  -31.8080  -14.8090   20.1889 O   0  0  0  0  0  0
  -21.6645   -6.8856   21.4240 O   0  0  0  0  0  0
  -22.3507  -14.5531   20.6733 O   0  0  0  0  0  0
  -24.6268  -31.8565   23.1980 C   0  0  0  0  0  0
  -25.9114  -32.4761   23.8325 C   0  0  1  0  0  0
  -27.2346  -27.3026   20.0980 C   0  0  0  0  0  0
  -25.5951  -33.8567   24.2242 N   0  0  0  0  0  0
  -23.4213  -30.4775   21.5408 C   0  0  2  0  0  0
  -24.8686  -28.9259   20.1063 C   0  0  0  0  0  0
  -22.7481  -29.4605   22.4920 C   0  0  0  0  0  0
  -18.0304  -28.1375   22.8498 C   0  0  0  0  0  0
  -24.1495  -36.7244   23.2638 C   0  0  0  0  0  0
  -25.9631  -30.7789   21.3726 C   0  0  0  0  0  0
  -26.0364  -29.4063   20.7104 C   0  0  0  0  0  0
  -27.2158  -28.6025   20.7002 C   0  0  0  0  0  0
  -26.0354  -26.8689   19.4900 C   0  0  0  0  0  0
  -24.8704  -27.6637   19.4924 C   0  0  0  0  0  0
  -23.6359  -29.8074   20.1576 C   0  0  0  0  0  0
  -25.4129  -36.3057   24.0332 C   0  0  1  0  0  0
  -20.5895  -28.3678   23.1287 C   0  0  2  0  0  0
  -20.6789  -26.9404   22.5413 C   0  0  0  0  0  0
  -19.5764  -26.6369   21.5224 C   0  0  0  0  0  0
  -18.1942  -26.7919   22.1627 C   0  0  0  0  0  0
  -19.1548  -28.8853   23.2883 C   0  0  0  0  0  0
  -18.9470  -30.1452   23.8894 C   0  0  0  0  0  0
  -17.6467  -30.6591   24.0563 C   0  0  0  0  0  0
  -25.9082  -34.9441   23.5078 C   0  0  0  0  0  0
  -16.5367  -29.9087   23.6334 C   0  0  0  0  0  0
  -16.7285  -28.6498   23.0380 C   0  0  0  0  0  0
  -26.4506  -31.6593   25.0697 C   0  0  0  0  0  0
  -25.3740  -31.3731   26.1427 C   0  0  0  0  0  0
  -27.0333  -30.3015   24.6154 C   0  0  0  0  0  0
  -27.6074  -32.4326   25.7463 C   0  0  0  0  0  0
  -27.5574  -37.1781   24.8478 C   0  0  0  0  0  0
  -21.4192  -29.3024   22.3661 N   0  0  0  0  0  0
  -26.4296  -37.3764   23.9419 N   0  0  0  0  0  0
  -24.6891  -31.0554   22.0942 N   0  0  0  0  0  0
  -23.4201  -28.8160   23.3015 O   0  0  0  0  0  0
  -28.3786  -26.4829   20.1558 O   0  0  0  0  0  0
  -26.5625  -34.8924   22.4630 O   0  0  0  0  0  0
  -23.5431  -32.1365   23.7314 O   0  0  0  0  0  0
  -29.6344  -20.3089   18.8693 C   0  0  0  0  0  0
  -29.1993  -19.6285   21.4435 C   0  0  0  0  0  0
  -29.9418  -18.9729   19.2767 C   0  0  0  0  0  0
  -29.7401  -18.5722   20.6290 C   0  0  0  0  0  0
  -29.1613  -21.2865   19.7790 C   0  0  0  0  0  0
  -30.1811  -14.5268   26.9025 C   0  0  0  0  0  0
  -29.0210  -16.0045   25.3718 C   0  0  0  0  0  0
  -29.0244  -15.5357   26.8265 C   0  0  1  0  0  0
  -31.0796  -14.7794   25.6716 C   0  0  1  0  0  0
  -30.5020  -16.0294   24.9766 C   0  0  1  0  0  0
  -30.5608  -18.0327   18.2564 C   0  0  0  0  0  0
  -32.5667  -14.9137   26.0375 C   0  0  0  0  0  0
  -26.5861  -16.0725   27.3576 C   0  0  0  0  0  0
  -27.6651  -14.9831   27.2884 C   0  0  0  0  0  0
  -30.1898  -17.2282   22.8114 C   0  0  0  0  0  0
  -28.5126  -25.1791   19.4477 C   0  0  0  0  0  0
  -28.5465  -23.7575   20.2057 C   0  0  0  0  0  0
  -30.2903  -17.1908   21.2570 C   0  0  1  0  0  0
  -28.9324  -20.9191   21.0595 N   0  0  0  0  0  0
  -29.8492  -15.8052   20.7904 N   0  0  0  0  0  0
  -30.7156  -16.0309   23.5089 N   0  3  0  0  0  0
  -28.9579  -22.6249   19.3522 O   0  0  0  0  0  0
  -31.4700  -12.5684   19.1409 H   0  0  0  0  0  0
  -30.3831  -11.4517   19.9205 H   0  0  0  0  0  0
  -29.7751  -11.7335   17.4948 H   0  0  0  0  0  0
  -29.6302  -13.4596   17.7124 H   0  0  0  0  0  0
  -27.8727  -11.2838   18.8863 H   0  0  0  0  0  0
  -27.3688  -12.5419   17.7907 H   0  0  0  0  0  0
  -27.6396  -14.2502   19.4785 H   0  0  0  0  0  0
  -28.7173  -12.1201   21.3903 H   0  0  0  0  0  0
  -28.4241  -13.7890   21.8037 H   0  0  0  0  0  0
  -25.2739   -9.5708   22.4747 H   0  0  0  0  0  0
  -24.0003   -7.4636   22.7464 H   0  0  0  0  0  0
  -21.0823   -8.8734   19.8948 H   0  0  0  0  0  0
  -22.3646  -10.9648   19.6150 H   0  0  0  0  0  0
  -21.2003   -7.6143   23.9706 H   0  0  0  0  0  0
  -21.1469   -6.0519   25.9073 H   0  0  0  0  0  0
  -22.0607   -2.7600   23.2859 H   0  0  0  0  0  0
  -22.4102  -11.9846   22.4782 H   0  0  0  0  0  0
  -21.1088  -13.1208   22.2659 H   0  0  0  0  0  0
  -24.6430  -15.8349   20.5002 H   0  0  0  0  0  0
  -26.2537  -15.6306   20.0468 H   0  0  0  0  0  0
  -26.7172  -32.5411   23.1054 H   0  0  0  0  0  0
  -25.0212  -33.9726   25.0465 H   0  0  0  0  0  0
  -22.7151  -31.2983   21.3937 H   0  0  0  0  0  0
  -23.3789  -35.9555   23.3340 H   0  0  0  0  0  0
  -24.3585  -36.8808   22.2045 H   0  0  0  0  0  0
  -23.7235  -37.6445   23.6644 H   0  0  0  0  0  0
  -26.1041  -31.5472   20.6110 H   0  0  0  0  0  0
  -26.8372  -30.8175   22.0103 H   0  0  0  0  0  0
  -28.1116  -28.9682   21.1806 H   0  0  0  0  0  0
  -25.9564  -25.8958   19.0317 H   0  0  0  0  0  0
  -23.9718  -27.2836   19.0269 H   0  0  0  0  0  0
  -23.7520  -30.5809   19.3981 H   0  0  0  0  0  0
  -22.7557  -29.2363   19.8569 H   0  0  0  0  0  0
  -25.1313  -36.1883   25.0828 H   0  0  0  0  0  0
  -21.0003  -28.3260   24.1396 H   0  0  0  0  0  0
  -20.5707  -26.2294   23.3612 H   0  0  0  0  0  0
  -21.6654  -26.7463   22.1185 H   0  0  0  0  0  0
  -19.6946  -25.6280   21.1250 H   0  0  0  0  0  0
  -19.6713  -27.3184   20.6763 H   0  0  0  0  0  0
  -17.4225  -26.6711   21.4013 H   0  0  0  0  0  0
  -18.0329  -26.0039   22.8993 H   0  0  0  0  0  0
  -19.7956  -30.7271   24.2252 H   0  0  0  0  0  0
  -17.5040  -31.6270   24.5150 H   0  0  0  0  0  0
  -15.5364  -30.2996   23.7657 H   0  0  0  0  0  0
  -15.8687  -28.0803   22.7119 H   0  0  0  0  0  0
  -24.5950  -30.7037   25.7761 H   0  0  0  0  0  0
  -24.8896  -32.2887   26.4820 H   0  0  0  0  0  0
  -25.8052  -30.8940   27.0217 H   0  0  0  0  0  0
  -26.2877  -29.6774   24.1208 H   0  0  0  0  0  0
  -27.4057  -29.7273   25.4642 H   0  0  0  0  0  0
  -27.8755  -30.4304   23.9350 H   0  0  0  0  0  0
  -27.2713  -33.3670   26.1972 H   0  0  0  0  0  0
  -28.3908  -32.6796   25.0284 H   0  0  0  0  0  0
  -28.0714  -31.8482   26.5407 H   0  0  0  0  0  0
  -28.2597  -38.0068   24.7508 H   0  0  0  0  0  0
  -28.1033  -36.2592   24.6303 H   0  0  0  0  0  0
  -27.2273  -37.1423   25.8872 H   0  0  0  0  0  0
  -20.9381  -29.8693   21.6817 H   0  0  0  0  0  0
  -26.0152  -38.2820   24.1450 H   0  0  0  0  0  0
  -29.8100  -20.6057   17.8436 H   0  0  0  0  0  0
  -29.0149  -19.4769   22.4944 H   0  0  0  0  0  0
  -29.8093  -13.5004   26.8838 H   0  0  0  0  0  0
  -30.7230  -14.6442   27.8430 H   0  0  0  0  0  0
  -28.5399  -16.9772   25.2669 H   0  0  0  0  0  0
  -28.4719  -15.2912   24.7545 H   0  0  0  0  0  0
  -29.2930  -16.3862   27.4574 H   0  0  0  0  0  0
  -30.9642  -13.9169   25.0128 H   0  0  0  0  0  0
  -30.9581  -16.9228   25.4068 H   0  0  0  0  0  0
  -30.1206  -18.1844   17.2712 H   0  0  0  0  0  0
  -30.4142  -16.9857   18.5093 H   0  0  0  0  0  0
  -31.6331  -18.2145   18.1793 H   0  0  0  0  0  0
  -32.7377  -15.7510   26.7154 H   0  0  0  0  0  0
  -33.1827  -15.0722   25.1524 H   0  0  0  0  0  0
  -32.9313  -14.0117   26.5305 H   0  0  0  0  0  0
  -25.6277  -15.6568   27.6684 H   0  0  0  0  0  0
  -26.4347  -16.5510   26.3895 H   0  0  0  0  0  0
  -26.8585  -16.8498   28.0725 H   0  0  0  0  0  0
  -27.7703  -14.5239   28.2724 H   0  0  0  0  0  0
  -27.3377  -14.1878   26.6171 H   0  0  0  0  0  0
  -29.1346  -17.3276   23.0671 H   0  0  0  0  0  0
  -30.7049  -18.1054   23.2081 H   0  0  0  0  0  0
  -27.8483  -25.1197   18.5873 H   0  0  0  0  0  0
  -29.4968  -25.2685   18.9851 H   0  0  0  0  0  0
  -27.5619  -23.5426   20.6198 H   0  0  0  0  0  0
  -29.2388  -23.8184   21.0458 H   0  0  0  0  0  0
  -31.3576  -17.2401   21.0288 H   0  0  0  0  0  0
  -28.8584  -15.6252   20.8525 H   0  0  0  0  0  0
  -30.2779  -15.2120   23.1253 H   0  0  0  0  0  0
  -31.7059  -15.9700   23.3265 H   0  0  0  0  0  0
  1 25  1  0  0  0
  1 30  2  0  0  0
  1 90  1  0  0  0
  2  3  1  0  0  0
  2 25  1  0  0  0
  2 93  1  0  0  0
  2 94  1  0  0  0
  3  4  1  0  0  0
  3 95  1  0  0  0
  3 96  1  0  0  0
  4  5  1  0  0  0
  4 97  1  0  0  0
  4 98  1  0  0  0
  5  6  1  0  0  0
  5 26  1  0  0  0
  5 99  1  0  0  0
  6 25  1  0  0  0
  6100  1  0  0  0
  6101  1  0  0  0
  7  8  2  0  0  0
  7 26  1  0  0  0
  7 29  1  0  0  0
  8  9  1  0  0  0
  8 22  1  0  0  0
  9 10  1  0  0  0
  9 27  2  0  0  0
 10 11  2  0  0  0
 10 15  1  0  0  0
 11 12  1  0  0  0
 11102  1  0  0  0
 12 13  2  0  0  0
 12103  1  0  0  0
 13 14  1  0  0  0
 13 31  1  0  0  0
 14 15  2  0  0  0
 14104  1  0  0  0
 15105  1  0  0  0
 16 17  2  0  0  0
 16 21  1  0  0  0
 16 31  1  0  0  0
 17 18  1  0  0  0
 17106  1  0  0  0
 18 19  2  0  0  0
 18107  1  0  0  0
 19 20  1  0  0  0
 19 24  1  0  0  0
 20 21  2  0  0  0
 20108  1  0  0  0
 21 23  1  0  0  0
 22 28  1  0  0  0
 22 32  2  0  0  0
 26 27  1  0  0  0
 28109  1  0  0  0
 28110  1  0  0  0
 29111  1  0  0  0
 29112  1  0  0  0
 33 34  1  0  0  0
 33 66  1  0  0  0
 33 70  2  0  0  0
 34 36  1  0  0  0
 34 59  1  0  0  0
 34113  1  0  0  0
 35 44  2  0  0  0
 35 45  1  0  0  0
 35 68  1  0  0  0
 36 56  1  0  0  0
 36114  1  0  0  0
 37 39  1  0  0  0
 37 47  1  0  0  0
 37 66  1  0  0  0
 37115  1  0  0  0
 38 43  2  0  0  0
 38 46  1  0  0  0
 38 47  1  0  0  0
 39 64  1  0  0  0
 39 67  2  0  0  0
 40 52  1  0  0  0
 40 53  2  0  0  0
 40 58  1  0  0  0
 41116  1  0  0  0
 41117  1  0  0  0
 41118  1  0  0  0
 41 48  1  0  0  0
 42 43  1  0  0  0
 42 66  1  0  0  0
 42119  1  0  0  0
 42120  1  0  0  0
 43 44  1  0  0  0
 44121  1  0  0  0
 45 46  2  0  0  0
 45122  1  0  0  0
 46123  1  0  0  0
 47124  1  0  0  0
 47125  1  0  0  0
 48 56  1  0  0  0
 48 65  1  0  0  0
 48126  1  0  0  0
 49 50  1  0  0  0
 49 53  1  0  0  0
 49 64  1  0  0  0
 49127  1  0  0  0
 50 51  1  0  0  0
 50128  1  0  0  0
 50129  1  0  0  0
 51 52  1  0  0  0
 51130  1  0  0  0
 51131  1  0  0  0
 52132  1  0  0  0
 52133  1  0  0  0
 53 54  1  0  0  0
 54 55  2  0  0  0
 54134  1  0  0  0
 55 57  1  0  0  0
 55135  1  0  0  0
 56 69  2  0  0  0
 57 58  2  0  0  0
 57136  1  0  0  0
 58137  1  0  0  0
 59 60  1  0  0  0
 59 61  1  0  0  0
 59 62  1  0  0  0
 60138  1  0  0  0
 60139  1  0  0  0
 60140  1  0  0  0
 61141  1  0  0  0
 61142  1  0  0  0
 61143  1  0  0  0
 62144  1  0  0  0
 62145  1  0  0  0
 62146  1  0  0  0
 63 65  1  0  0  0
 63147  1  0  0  0
 63148  1  0  0  0
 63149  1  0  0  0
 64150  1  0  0  0
 65151  1  0  0  0
 68 86  1  0  0  0
 71 73  2  0  0  0
 71 75  1  0  0  0
 71152  1  0  0  0
 72 74  2  0  0  0
 72 89  1  0  0  0
 72153  1  0  0  0
 73 74  1  0  0  0
 73 81  1  0  0  0
 74 88  1  0  0  0
 75 89  2  0  0  0
 75 92  1  0  0  0
 76 78  1  0  0  0
 76 79  1  0  0  0
 76154  1  0  0  0
 76155  1  0  0  0
 77 78  1  0  0  0
 77 80  1  0  0  0
 77156  1  0  0  0
 77157  1  0  0  0
 78 84  1  0  0  0
 78158  1  0  0  0
 79 80  1  0  0  0
 79 82  1  0  0  0
 79159  1  0  0  0
 80 91  1  0  0  0
 80160  1  0  0  0
 81161  1  0  0  0
 81162  1  0  0  0
 81163  1  0  0  0
 82164  1  0  0  0
 82165  1  0  0  0
 82166  1  0  0  0
 83 84  1  0  0  0
 83167  1  0  0  0
 83168  1  0  0  0
 83169  1  0  0  0
 84170  1  0  0  0
 84171  1  0  0  0
 85 91  1  0  0  0
 85172  1  0  0  0
 85173  1  0  0  0
 85 88  1  0  0  0
 86 87  1  0  0  0
 86174  1  0  0  0
 86175  1  0  0  0
 87 92  1  0  0  0
 87176  1  0  0  0
 87177  1  0  0  0
 88 90  1  0  0  0
 88178  1  0  0  0
 90179  1  0  0  0
 91180  1  0  0  0
 91181  1  0  0  0
M  CHG  1  91   1
M  ISO  4   1 100  68 101  86 101  90 100
M  END
> <chiral flag>
0

> <version>
0

> <s_m_source_file>
/data/baiqing/PycharmProjects/Reinvent-master-3.2/result/LINK_invent/BTK/process_docking_weight1_custom_sum_contain_oxygen_bond_distance_aromatic_linkinvent_7_9_3/rearranged_h_0139.sdf

> <i_m_source_file_index>
11

> <r_mmod_Potential_Energy-OPLS-2005>
-130.953964233398

> <r_mmod_Stretch_Energy-OPLS-2005>
106.060165405273

> <r_mmod_Bend_Energy-OPLS-2005>
213.101791381836

> <r_mmod_Torsional_Energy-OPLS-2005>
289.728240966797

> <r_mmod_Improper_Torsional_Energy-OPLS-2005>
4.51675128936768

> <r_mmod_Van_der_Waal_Energy-OPLS-2005>
140.978668212891

> <r_mmod_Electrostatic_Energy-OPLS-2005>
-493.1259765625

> <r_mmod_Solvation_Energy-OPLS-2005>
-455.161499023438

> <b_mmod_Minimization_Converged-OPLS-2005>
0

> <r_mmod_RMS_Derivative-OPLS-2005>
2.62580871582031

$$$$
11
                    3D
 Structure written by MMmdl.
164172  0  0  1  0            999 V2000
  -30.5284  -14.9005   20.4446 C   0  0  0  0  0  0
  -30.4467  -12.5603   19.4822 C   0  0  0  0  0  0
  -29.5224  -12.5546   18.2404 C   0  0  0  0  0  0
  -28.0495  -12.3539   18.6497 C   0  0  0  0  0  0
  -27.6402  -13.2472   19.8507 C   0  0  2  0  0  0
  -28.6859  -13.2062   20.9879 C   0  0  0  0  0  0
  -25.2476  -13.8192   20.5653 C   0  0  0  0  0  0
  -24.1807  -13.0422   20.9200 C   0  0  0  0  0  0
  -24.6418  -11.6913   20.8745 C   0  0  0  0  0  0
  -23.9102  -10.4281   21.0409 C   0  0  0  0  0  0
  -24.3630   -9.4198   21.9195 C   0  0  0  0  0  0
  -23.6298   -8.2244   22.0774 C   0  0  0  0  0  0
  -22.4296   -8.0270   21.3548 C   0  0  0  0  0  0
  -21.9926   -9.0245   20.4658 C   0  0  0  0  0  0
  -22.7266  -10.2124   20.3061 C   0  0  0  0  0  0
  -21.6851   -6.0734   22.5271 C   0  0  0  0  0  0
  -21.4015   -6.5639   23.8201 C   0  0  0  0  0  0
  -21.3667   -5.6788   24.9157 C   0  0  0  0  0  0
  -21.6043   -4.3047   24.7202 C   0  0  0  0  0  0
  -21.8826   -3.8142   23.4324 C   0  0  0  0  0  0
  -21.9187   -4.6962   22.3384 C   0  0  0  0  0  0
  -22.7824  -13.5191   21.1829 C   0  0  0  0  0  0
  -22.1661   -4.2149   21.0960 F   0  0  0  0  0  0
  -21.5637   -3.4520   25.7720 F   0  0  0  0  0  0
  -29.9691  -13.6249   20.4074 N   0  0  0  0  0  0
  -26.2935  -12.9443   20.3263 N   0  0  0  0  0  0
  -25.9355  -11.6571   20.5729 N   0  0  0  0  0  0
  -22.0436  -12.8205   22.0373 N   0  0  0  0  0  0
  -25.4057  -15.1908   20.3979 N   0  0  0  0  0  0
  -31.7137  -15.0150   20.1069 O   0  0  0  0  0  0
  -21.6640   -6.8880   21.4246 O   0  0  0  0  0  0
  -22.3520  -14.5486   20.6649 O   0  0  0  0  0  0
  -24.6380  -31.8462   23.1889 C   0  0  0  0  0  0
  -25.9174  -32.4701   23.8274 C   0  0  1  0  0  0
  -27.2282  -27.1741   20.1420 C   0  0  0  0  0  0
  -25.5932  -33.8508   24.2175 N   0  0  0  0  0  0
  -23.4420  -30.4633   21.5327 C   0  0  2  0  0  0
  -24.8891  -28.8911   20.1079 C   0  0  0  0  0  0
  -22.7539  -29.4571   22.4888 C   0  0  0  0  0  0
  -18.0298  -28.1407   22.8529 C   0  0  0  0  0  0
  -24.1469  -36.7232   23.2655 C   0  0  0  0  0  0
  -25.9926  -30.7292   21.3818 C   0  0  0  0  0  0
  -26.0617  -29.3425   20.7238 C   0  0  0  0  0  0
  -27.2260  -28.4970   20.7313 C   0  0  0  0  0  0
  -26.0324  -26.8081   19.4872 C   0  0  0  0  0  0
  -24.8810  -27.6328   19.4800 C   0  0  0  0  0  0
  -23.6624  -29.7882   20.1524 C   0  0  0  0  0  0
  -25.4105  -36.3023   24.0319 C   0  0  1  0  0  0
  -20.5919  -28.3698   23.1275 C   0  0  2  0  0  0
  -20.6801  -26.9411   22.5429 C   0  0  0  0  0  0
  -19.5759  -26.6392   21.5250 C   0  0  0  0  0  0
  -18.1924  -26.7969   22.1627 C   0  0  0  0  0  0
  -19.1569  -28.8873   23.2897 C   0  0  0  0  0  0
  -18.9490  -30.1487   23.8884 C   0  0  0  0  0  0
  -17.6492  -30.6611   24.0588 C   0  0  0  0  0  0
  -25.9066  -34.9419   23.5060 C   0  0  0  0  0  0
  -16.5371  -29.9114   23.6377 C   0  0  0  0  0  0
  -16.7285  -28.6538   23.0388 C   0  0  0  0  0  0
  -26.4509  -31.6573   25.0703 C   0  0  0  0  0  0
  -25.3704  -31.3762   26.1401 C   0  0  0  0  0  0
  -27.0434  -30.3004   24.6263 C   0  0  0  0  0  0
  -27.6000  -32.4376   25.7527 C   0  0  0  0  0  0
  -27.5553  -37.1788   24.8465 C   0  0  0  0  0  0
  -21.4254  -29.3030   22.3641 N   0  0  0  0  0  0
  -26.4253  -37.3743   23.9422 N   0  0  0  0  0  0
  -24.7105  -31.0358   22.0887 N   0  0  0  0  0  0
  -23.4204  -28.8145   23.3047 O   0  0  0  0  0  0
  -28.3173  -26.2490   20.2654 O   0  0  0  0  0  0
  -26.5677  -34.8924   22.4646 O   0  0  0  0  0  0
  -23.5517  -32.1323   23.7136 O   0  0  0  0  0  0
  -28.6783  -19.7500   21.3285 C   0  0  0  0  0  0
  -29.4465  -20.5474   20.4276 C   0  0  0  0  0  0
  -28.7890  -18.3049   21.4151 C   0  0  0  0  0  0
  -30.3088  -19.6890   19.6471 C   0  0  0  0  0  0
  -29.6961  -17.5258   20.6139 C   0  0  0  0  0  0
  -27.9055  -17.5897   22.4273 C   0  0  0  0  0  0
  -31.2387  -20.2895   18.6091 C   0  0  0  0  0  0
  -32.4301  -22.7430   23.1083 C   0  0  0  0  0  0
  -31.6902  -22.0980   21.9223 C   0  0  0  0  0  0
  -30.2784  -22.6761   21.7097 C   0  0  0  0  0  0
  -28.2783  -23.3056   20.2674 C   0  0  0  0  0  0
  -28.4466  -24.8510   19.6325 C   0  0  0  0  0  0
  -29.5220  -22.2062   20.4401 C   0  0  2  0  0  0
  -30.4207  -18.3004   19.7420 N   0  0  0  0  0  0
  -29.6942  -16.0032   20.7433 N   0  0  0  0  0  0
  -31.4788  -12.7283   19.1767 H   0  0  0  0  0  0
  -30.4330  -11.5854   19.9719 H   0  0  0  0  0  0
  -29.8271  -11.7738   17.5429 H   0  0  0  0  0  0
  -29.6288  -13.4960   17.6993 H   0  0  0  0  0  0
  -27.9177  -11.3057   18.9115 H   0  0  0  0  0  0
  -27.3906  -12.5365   17.7984 H   0  0  0  0  0  0
  -27.6205  -14.2698   19.4725 H   0  0  0  0  0  0
  -28.7598  -12.2026   21.4106 H   0  0  0  0  0  0
  -28.3962  -13.8592   21.8123 H   0  0  0  0  0  0
  -25.2780   -9.5657   22.4761 H   0  0  0  0  0  0
  -23.9985   -7.4640   22.7508 H   0  0  0  0  0  0
  -21.0848   -8.8762   19.8968 H   0  0  0  0  0  0
  -22.3723  -10.9651   19.6150 H   0  0  0  0  0  0
  -21.2011   -7.6150   23.9697 H   0  0  0  0  0  0
  -21.1495   -6.0517   25.9060 H   0  0  0  0  0  0
  -22.0597   -2.7603   23.2803 H   0  0  0  0  0  0
  -22.4026  -11.9856   22.4778 H   0  0  0  0  0  0
  -21.1051  -13.1251   22.2536 H   0  0  0  0  0  0
  -24.6024  -15.8072   20.4490 H   0  0  0  0  0  0
  -26.1959  -15.6107   19.9271 H   0  0  0  0  0  0
  -26.7256  -32.5294   23.1028 H   0  0  0  0  0  0
  -25.0070  -33.9641   25.0320 H   0  0  0  0  0  0
  -22.7442  -31.2895   21.3796 H   0  0  0  0  0  0
  -23.3753  -35.9548   23.3293 H   0  0  0  0  0  0
  -24.3571  -36.8873   22.2080 H   0  0  0  0  0  0
  -23.7208  -37.6412   23.6705 H   0  0  0  0  0  0
  -26.1552  -31.4868   20.6147 H   0  0  0  0  0  0
  -26.8643  -30.7708   22.0238 H   0  0  0  0  0  0
  -28.1168  -28.8375   21.2434 H   0  0  0  0  0  0
  -25.9486  -25.8404   19.0175 H   0  0  0  0  0  0
  -23.9805  -27.2748   19.0016 H   0  0  0  0  0  0
  -23.8009  -30.5617   19.3960 H   0  0  0  0  0  0
  -22.7763  -29.2314   19.8413 H   0  0  0  0  0  0
  -25.1315  -36.1828   25.0815 H   0  0  0  0  0  0
  -21.0038  -28.3268   24.1387 H   0  0  0  0  0  0
  -20.5725  -26.2312   23.3648 H   0  0  0  0  0  0
  -21.6652  -26.7460   22.1192 H   0  0  0  0  0  0
  -19.6922  -25.6318   21.1248 H   0  0  0  0  0  0
  -19.6685  -27.3259   20.6829 H   0  0  0  0  0  0
  -17.4233  -26.6799   21.3970 H   0  0  0  0  0  0
  -18.0229  -26.0091   22.8977 H   0  0  0  0  0  0
  -19.7960  -30.7333   24.2190 H   0  0  0  0  0  0
  -17.5046  -31.6273   24.5216 H   0  0  0  0  0  0
  -15.5379  -30.3012   23.7715 H   0  0  0  0  0  0
  -15.8680  -28.0862   22.7080 H   0  0  0  0  0  0
  -24.5862  -30.7122   25.7740 H   0  0  0  0  0  0
  -24.8919  -32.2957   26.4778 H   0  0  0  0  0  0
  -25.7995  -30.8967   27.0204 H   0  0  0  0  0  0
  -26.3086  -29.6696   24.1250 H   0  0  0  0  0  0
  -27.4098  -29.7299   25.4807 H   0  0  0  0  0  0
  -27.8940  -30.4320   23.9577 H   0  0  0  0  0  0
  -27.2538  -33.3694   26.2024 H   0  0  0  0  0  0
  -28.3874  -32.6915   25.0414 H   0  0  0  0  0  0
  -28.0612  -31.8562   26.5524 H   0  0  0  0  0  0
  -28.2557  -38.0100   24.7533 H   0  0  0  0  0  0
  -28.1047  -36.2631   24.6239 H   0  0  0  0  0  0
  -27.2296  -37.1378   25.8875 H   0  0  0  0  0  0
  -20.9445  -29.8688   21.6789 H   0  0  0  0  0  0
  -26.0086  -38.2790   24.1435 H   0  0  0  0  0  0
  -28.0055  -20.2624   22.0023 H   0  0  0  0  0  0
  -27.3475  -18.2906   23.0501 H   0  0  0  0  0  0
  -28.5089  -16.9695   23.0912 H   0  0  0  0  0  0
  -27.1840  -16.9498   21.9172 H   0  0  0  0  0  0
  -31.9533  -20.9625   19.0815 H   0  0  0  0  0  0
  -30.6749  -20.8537   17.8667 H   0  0  0  0  0  0
  -31.8036  -19.5228   18.0783 H   0  0  0  0  0  0
  -33.4080  -22.2809   23.2479 H   0  0  0  0  0  0
  -31.8774  -22.6321   24.0420 H   0  0  0  0  0  0
  -32.5974  -23.8103   22.9474 H   0  0  0  0  0  0
  -31.6313  -21.0207   22.0855 H   0  0  0  0  0  0
  -32.2804  -22.2445   21.0185 H   0  0  0  0  0  0
  -30.3543  -23.7646   21.6882 H   0  0  0  0  0  0
  -29.6736  -22.4410   22.5867 H   0  0  0  0  0  0
  -27.5759  -22.8183   19.5914 H   0  0  0  0  0  0
  -27.7235  -23.3743   21.2031 H   0  0  0  0  0  0
  -27.8726  -24.8676   18.7066 H   0  0  0  0  0  0
  -29.4683  -24.8656   19.2531 H   0  0  0  0  0  0
  -30.1671  -22.4475   19.5970 H   0  0  0  0  0  0
  -28.8208  -15.6688   21.1153 H   0  0  0  0  0  0
  1 25  1  0  0  0
  1 30  2  0  0  0
  1 85  1  0  0  0
  2  3  1  0  0  0
  2 25  1  0  0  0
  2 86  1  0  0  0
  2 87  1  0  0  0
  3  4  1  0  0  0
  3 88  1  0  0  0
  3 89  1  0  0  0
  4  5  1  0  0  0
  4 90  1  0  0  0
  4 91  1  0  0  0
  5  6  1  0  0  0
  5 26  1  0  0  0
  5 92  1  0  0  0
  6 25  1  0  0  0
  6 93  1  0  0  0
  6 94  1  0  0  0
  7  8  2  0  0  0
  7 26  1  0  0  0
  7 29  1  0  0  0
  8  9  1  0  0  0
  8 22  1  0  0  0
  9 10  1  0  0  0
  9 27  2  0  0  0
 10 11  2  0  0  0
 10 15  1  0  0  0
 11 12  1  0  0  0
 11 95  1  0  0  0
 12 13  2  0  0  0
 12 96  1  0  0  0
 13 14  1  0  0  0
 13 31  1  0  0  0
 14 15  2  0  0  0
 14 97  1  0  0  0
 15 98  1  0  0  0
 16 17  2  0  0  0
 16 21  1  0  0  0
 16 31  1  0  0  0
 17 18  1  0  0  0
 17 99  1  0  0  0
 18 19  2  0  0  0
 18100  1  0  0  0
 19 20  1  0  0  0
 19 24  1  0  0  0
 20 21  2  0  0  0
 20101  1  0  0  0
 21 23  1  0  0  0
 22 28  1  0  0  0
 22 32  2  0  0  0
 26 27  1  0  0  0
 28102  1  0  0  0
 28103  1  0  0  0
 29104  1  0  0  0
 29105  1  0  0  0
 33 34  1  0  0  0
 33 66  1  0  0  0
 33 70  2  0  0  0
 34 36  1  0  0  0
 34 59  1  0  0  0
 34106  1  0  0  0
 35 44  2  0  0  0
 35 45  1  0  0  0
 35 68  1  0  0  0
 36 56  1  0  0  0
 36107  1  0  0  0
 37 39  1  0  0  0
 37 47  1  0  0  0
 37 66  1  0  0  0
 37108  1  0  0  0
 38 43  2  0  0  0
 38 46  1  0  0  0
 38 47  1  0  0  0
 39 64  1  0  0  0
 39 67  2  0  0  0
 40 52  1  0  0  0
 40 53  2  0  0  0
 40 58  1  0  0  0
 41109  1  0  0  0
 41110  1  0  0  0
 41111  1  0  0  0
 41 48  1  0  0  0
 42 43  1  0  0  0
 42 66  1  0  0  0
 42112  1  0  0  0
 42113  1  0  0  0
 43 44  1  0  0  0
 44114  1  0  0  0
 45 46  2  0  0  0
 45115  1  0  0  0
 46116  1  0  0  0
 47117  1  0  0  0
 47118  1  0  0  0
 48 56  1  0  0  0
 48 65  1  0  0  0
 48119  1  0  0  0
 49 50  1  0  0  0
 49 53  1  0  0  0
 49 64  1  0  0  0
 49120  1  0  0  0
 50 51  1  0  0  0
 50121  1  0  0  0
 50122  1  0  0  0
 51 52  1  0  0  0
 51123  1  0  0  0
 51124  1  0  0  0
 52125  1  0  0  0
 52126  1  0  0  0
 53 54  1  0  0  0
 54 55  2  0  0  0
 54127  1  0  0  0
 55 57  1  0  0  0
 55128  1  0  0  0
 56 69  2  0  0  0
 57 58  2  0  0  0
 57129  1  0  0  0
 58130  1  0  0  0
 59 60  1  0  0  0
 59 61  1  0  0  0
 59 62  1  0  0  0
 60131  1  0  0  0
 60132  1  0  0  0
 60133  1  0  0  0
 61134  1  0  0  0
 61135  1  0  0  0
 61136  1  0  0  0
 62137  1  0  0  0
 62138  1  0  0  0
 62139  1  0  0  0
 63 65  1  0  0  0
 63140  1  0  0  0
 63141  1  0  0  0
 63142  1  0  0  0
 64143  1  0  0  0
 65144  1  0  0  0
 68 82  1  0  0  0
 71 72  2  0  0  0
 71 73  1  0  0  0
 71145  1  0  0  0
 72 74  1  0  0  0
 72 83  1  0  0  0
 73 75  2  0  0  0
 73 76  1  0  0  0
 74 77  1  0  0  0
 74 84  2  0  0  0
 75 84  1  0  0  0
 75 85  1  0  0  0
 76146  1  0  0  0
 76147  1  0  0  0
 76148  1  0  0  0
 77149  1  0  0  0
 77150  1  0  0  0
 77151  1  0  0  0
 78 79  1  0  0  0
 78152  1  0  0  0
 78153  1  0  0  0
 78154  1  0  0  0
 79 80  1  0  0  0
 79155  1  0  0  0
 79156  1  0  0  0
 80157  1  0  0  0
 80158  1  0  0  0
 80 83  1  0  0  0
 81 82  1  0  0  0
 81 83  1  0  0  0
 81159  1  0  0  0
 81160  1  0  0  0
 82161  1  0  0  0
 82162  1  0  0  0
 83163  1  0  0  0
 85164  1  0  0  0
M  ISO  4   1 100  68 101  82 101  85 100
M  END
> <chiral flag>
0

> <version>
0

> <s_m_source_file>
/data/baiqing/PycharmProjects/Reinvent-master-3.2/result/LINK_invent/BTK/process_docking_weight1_custom_sum_contain_oxygen_bond_distance_aromatic_linkinvent_7_9_3/rearranged_h_0139.sdf

> <i_m_source_file_index>
12

> <r_mmod_Potential_Energy-OPLS-2005>
281.568298339844

> <r_mmod_Stretch_Energy-OPLS-2005>
216.48991394043

> <r_mmod_Bend_Energy-OPLS-2005>
284.130584716797

> <r_mmod_Torsional_Energy-OPLS-2005>
225.569274902344

> <r_mmod_Improper_Torsional_Energy-OPLS-2005>
5.37805318832397

> <r_mmod_Van_der_Waal_Energy-OPLS-2005>
127.468109130859

> <r_mmod_Electrostatic_Energy-OPLS-2005>
-509.760192871094

> <r_mmod_Solvation_Energy-OPLS-2005>
-224.265396118164

> <b_mmod_Minimization_Converged-OPLS-2005>
0

> <r_mmod_RMS_Derivative-OPLS-2005>
4.07766675949097

$$$$
12
                    3D
 Structure written by MMmdl.
159167  0  0  1  0            999 V2000
  -30.6659  -14.4998   20.5875 C   0  0  0  0  0  0
  -30.4361  -12.3323   19.4108 C   0  0  0  0  0  0
  -29.4963  -12.5119   18.1994 C   0  0  0  0  0  0
  -28.0179  -12.3613   18.6143 C   0  0  0  0  0  0
  -27.6610  -13.1996   19.8708 C   0  0  2  0  0  0
  -28.7041  -12.9699   20.9865 C   0  0  0  0  0  0
  -25.2592  -13.8136   20.5657 C   0  0  0  0  0  0
  -24.1842  -13.0425   20.9168 C   0  0  0  0  0  0
  -24.6387  -11.6891   20.8724 C   0  0  0  0  0  0
  -23.9051  -10.4283   21.0400 C   0  0  0  0  0  0
  -24.3610   -9.4201   21.9178 C   0  0  0  0  0  0
  -23.6285   -8.2238   22.0753 C   0  0  0  0  0  0
  -22.4266   -8.0277   21.3546 C   0  0  0  0  0  0
  -21.9900   -9.0247   20.4646 C   0  0  0  0  0  0
  -22.7227  -10.2125   20.3049 C   0  0  0  0  0  0
  -21.6851   -6.0732   22.5282 C   0  0  0  0  0  0
  -21.4013   -6.5637   23.8215 C   0  0  0  0  0  0
  -21.3658   -5.6791   24.9177 C   0  0  0  0  0  0
  -21.6043   -4.3055   24.7229 C   0  0  0  0  0  0
  -21.8822   -3.8146   23.4351 C   0  0  0  0  0  0
  -21.9191   -4.6960   22.3407 C   0  0  0  0  0  0
  -22.7866  -13.5233   21.1840 C   0  0  0  0  0  0
  -22.1661   -4.2149   21.0983 F   0  0  0  0  0  0
  -21.5628   -3.4539   25.7740 F   0  0  0  0  0  0
  -30.0296  -13.3054   20.4359 N   0  0  0  0  0  0
  -26.3019  -12.9293   20.3332 N   0  0  0  0  0  0
  -25.9310  -11.6462   20.5744 N   0  0  0  0  0  0
  -22.0511  -12.8224   22.0402 N   0  0  0  0  0  0
  -25.4316  -15.1856   20.4064 N   0  0  0  0  0  0
  -31.7938  -14.7277   20.1412 O   0  0  0  0  0  0
  -21.6634   -6.8873   21.4242 O   0  0  0  0  0  0
  -22.3557  -14.5544   20.6696 O   0  0  0  0  0  0
  -24.6160  -31.8657   23.2074 C   0  0  0  0  0  0
  -25.9047  -32.4808   23.8375 C   0  0  1  0  0  0
  -27.2376  -27.4137   20.1090 C   0  0  0  0  0  0
  -25.5901  -33.8608   24.2314 N   0  0  0  0  0  0
  -23.4055  -30.4862   21.5481 C   0  0  2  0  0  0
  -24.8533  -28.9413   20.1223 C   0  0  0  0  0  0
  -22.7413  -29.4647   22.4991 C   0  0  0  0  0  0
  -18.0270  -28.1369   22.8502 C   0  0  0  0  0  0
  -24.1486  -36.7309   23.2639 C   0  0  0  0  0  0
  -25.9346  -30.8252   21.3618 C   0  0  0  0  0  0
  -26.0135  -29.4549   20.7155 C   0  0  0  0  0  0
  -27.2110  -28.7007   20.6996 C   0  0  0  0  0  0
  -26.0604  -26.9120   19.5181 C   0  0  0  0  0  0
  -24.8718  -27.6694   19.5211 C   0  0  0  0  0  0
  -23.6159  -29.8106   20.1661 C   0  0  0  0  0  0
  -25.4108  -36.3100   24.0335 C   0  0  1  0  0  0
  -20.5861  -28.3661   23.1321 C   0  0  2  0  0  0
  -20.6759  -26.9396   22.5418 C   0  0  0  0  0  0
  -19.5737  -26.6382   21.5214 C   0  0  0  0  0  0
  -18.1916  -26.7919   22.1627 C   0  0  0  0  0  0
  -19.1520  -28.8831   23.2908 C   0  0  0  0  0  0
  -18.9448  -30.1441   23.8913 C   0  0  0  0  0  0
  -17.6451  -30.6580   24.0564 C   0  0  0  0  0  0
  -25.9037  -34.9469   23.5124 C   0  0  0  0  0  0
  -16.5341  -29.9079   23.6326 C   0  0  0  0  0  0
  -16.7261  -28.6494   23.0357 C   0  0  0  0  0  0
  -26.4477  -31.6592   25.0709 C   0  0  0  0  0  0
  -25.3745  -31.3691   26.1458 C   0  0  0  0  0  0
  -27.0314  -30.3037   24.6086 C   0  0  0  0  0  0
  -27.6047  -32.4319   25.7475 C   0  0  0  0  0  0
  -27.5581  -37.1800   24.8464 C   0  0  0  0  0  0
  -21.4138  -29.3030   22.3730 N   0  0  0  0  0  0
  -26.4292  -37.3788   23.9411 N   0  0  0  0  0  0
  -24.6703  -31.0741   22.0978 N   0  0  0  0  0  0
  -23.4175  -28.8194   23.3046 O   0  0  0  0  0  0
  -28.4123  -26.6928   20.0427 O   0  0  0  0  0  0
  -26.5598  -34.8924   22.4686 O   0  0  0  0  0  0
  -23.5353  -32.1420   23.7467 O   0  0  0  0  0  0
  -30.1052  -23.7049   21.3119 C   0  0  0  0  0  0
  -29.9734  -25.2157   21.1154 C   0  0  0  0  0  0
  -28.0493  -24.1496   20.0793 C   0  0  0  0  0  0
  -29.1730  -23.0811   20.2632 C   0  0  2  0  0  0
  -28.4968  -25.4615   20.7879 C   0  0  2  0  0  0
  -28.7272  -21.6276   20.6353 C   0  0  0  0  0  0
  -30.2493  -16.8509   21.5252 C   0  0  0  0  0  0
  -29.7261  -20.4913   20.2306 C   0  0  0  0  0  0
  -29.7425  -17.9489   20.5365 C   0  0  0  0  0  0
  -29.9117  -15.4619   21.1562 N   0  0  0  0  0  0
  -29.7296  -19.3127   21.1493 N   0  3  0  0  0  0
  -31.4763  -12.4625   19.1061 H   0  0  0  0  0  0
  -30.3655  -11.3177   19.8064 H   0  0  0  0  0  0
  -29.7418  -11.7883   17.4208 H   0  0  0  0  0  0
  -29.6521  -13.4980   17.7585 H   0  0  0  0  0  0
  -27.8343  -11.3043   18.8113 H   0  0  0  0  0  0
  -27.3651  -12.6318   17.7835 H   0  0  0  0  0  0
  -27.7061  -14.2478   19.5748 H   0  0  0  0  0  0
  -28.6943  -11.9260   21.3042 H   0  0  0  0  0  0
  -28.4571  -13.5419   21.8817 H   0  0  0  0  0  0
  -25.2761   -9.5678   22.4745 H   0  0  0  0  0  0
  -23.9999   -7.4631   22.7472 H   0  0  0  0  0  0
  -21.0833   -8.8761   19.8955 H   0  0  0  0  0  0
  -22.3687  -10.9659   19.6154 H   0  0  0  0  0  0
  -21.2006   -7.6147   23.9719 H   0  0  0  0  0  0
  -21.1477   -6.0521   25.9079 H   0  0  0  0  0  0
  -22.0602   -2.7610   23.2851 H   0  0  0  0  0  0
  -22.4121  -11.9873   22.4775 H   0  0  0  0  0  0
  -21.1133  -13.1256   22.2623 H   0  0  0  0  0  0
  -24.6608  -15.8375   20.5047 H   0  0  0  0  0  0
  -26.2776  -15.6236   20.0659 H   0  0  0  0  0  0
  -26.7116  -32.5516   23.1136 H   0  0  0  0  0  0
  -25.0049  -33.9763   25.0458 H   0  0  0  0  0  0
  -22.6952  -31.3030   21.4033 H   0  0  0  0  0  0
  -23.3743  -35.9647   23.3309 H   0  0  0  0  0  0
  -24.3580  -36.8927   22.2054 H   0  0  0  0  0  0
  -23.7248  -37.6518   23.6655 H   0  0  0  0  0  0
  -26.0458  -31.5868   20.5890 H   0  0  0  0  0  0
  -26.8234  -30.8832   21.9787 H   0  0  0  0  0  0
  -28.1129  -29.1002   21.1422 H   0  0  0  0  0  0
  -26.0656  -25.9421   19.0413 H   0  0  0  0  0  0
  -23.9800  -27.2689   19.0587 H   0  0  0  0  0  0
  -23.7249  -30.5807   19.4013 H   0  0  0  0  0  0
  -22.7404  -29.2277   19.8733 H   0  0  0  0  0  0
  -25.1284  -36.1957   25.0826 H   0  0  0  0  0  0
  -20.9953  -28.3220   24.1443 H   0  0  0  0  0  0
  -20.5665  -26.2265   23.3604 H   0  0  0  0  0  0
  -21.6628  -26.7436   22.1207 H   0  0  0  0  0  0
  -19.6897  -25.6299   21.1233 H   0  0  0  0  0  0
  -19.6676  -27.3203   20.6754 H   0  0  0  0  0  0
  -17.4188  -26.6682   21.4024 H   0  0  0  0  0  0
  -18.0310  -26.0048   22.9011 H   0  0  0  0  0  0
  -19.7924  -30.7253   24.2289 H   0  0  0  0  0  0
  -17.5004  -31.6265   24.5157 H   0  0  0  0  0  0
  -15.5344  -30.2986   23.7640 H   0  0  0  0  0  0
  -15.8662  -28.0815   22.7071 H   0  0  0  0  0  0
  -24.5916  -30.7042   25.7792 H   0  0  0  0  0  0
  -24.8936  -32.2844   26.4919 H   0  0  0  0  0  0
  -25.8104  -30.8850   27.0207 H   0  0  0  0  0  0
  -26.2854  -29.6784   24.1166 H   0  0  0  0  0  0
  -27.4119  -29.7283   25.4537 H   0  0  0  0  0  0
  -27.8672  -30.4361   23.9211 H   0  0  0  0  0  0
  -27.2657  -33.3610   26.2071 H   0  0  0  0  0  0
  -28.3845  -32.6901   25.0297 H   0  0  0  0  0  0
  -28.0725  -31.8434   26.5379 H   0  0  0  0  0  0
  -28.2589  -38.0104   24.7520 H   0  0  0  0  0  0
  -28.1087  -36.2640   24.6278 H   0  0  0  0  0  0
  -27.2302  -37.1434   25.8866 H   0  0  0  0  0  0
  -20.9302  -29.8754   21.6952 H   0  0  0  0  0  0
  -26.0180  -38.2867   24.1410 H   0  0  0  0  0  0
  -29.7733  -23.4502   22.3196 H   0  0  0  0  0  0
  -31.1364  -23.3631   21.2113 H   0  0  0  0  0  0
  -30.5949  -25.5195   20.2718 H   0  0  0  0  0  0
  -30.3043  -25.7819   21.9870 H   0  0  0  0  0  0
  -27.1028  -23.8083   20.5008 H   0  0  0  0  0  0
  -27.8748  -24.3248   19.0171 H   0  0  0  0  0  0
  -29.7145  -23.0416   19.3158 H   0  0  0  0  0  0
  -27.9488  -25.5581   21.7279 H   0  0  0  0  0  0
  -27.7726  -21.4116   20.1536 H   0  0  0  0  0  0
  -28.5201  -21.5883   21.7055 H   0  0  0  0  0  0
  -29.8024  -17.0173   22.5060 H   0  0  0  0  0  0
  -31.3271  -16.9462   21.6684 H   0  0  0  0  0  0
  -30.7448  -20.8807   20.2128 H   0  0  0  0  0  0
  -29.5120  -20.1764   19.2081 H   0  0  0  0  0  0
  -28.7338  -17.7193   20.1909 H   0  0  0  0  0  0
  -30.3823  -17.9493   19.6532 H   0  0  0  0  0  0
  -28.9930  -15.1505   21.4358 H   0  0  0  0  0  0
  -28.9274  -19.3712   21.7551 H   0  0  0  0  0  0
  -30.5459  -19.4007   21.7330 H   0  0  0  0  0  0
  1 25  1  0  0  0
  1 30  2  0  0  0
  1 80  1  0  0  0
  2  3  1  0  0  0
  2 25  1  0  0  0
  2 82  1  0  0  0
  2 83  1  0  0  0
  3  4  1  0  0  0
  3 84  1  0  0  0
  3 85  1  0  0  0
  4  5  1  0  0  0
  4 86  1  0  0  0
  4 87  1  0  0  0
  5  6  1  0  0  0
  5 26  1  0  0  0
  5 88  1  0  0  0
  6 25  1  0  0  0
  6 89  1  0  0  0
  6 90  1  0  0  0
  7  8  2  0  0  0
  7 26  1  0  0  0
  7 29  1  0  0  0
  8  9  1  0  0  0
  8 22  1  0  0  0
  9 10  1  0  0  0
  9 27  2  0  0  0
 10 11  2  0  0  0
 10 15  1  0  0  0
 11 12  1  0  0  0
 11 91  1  0  0  0
 12 13  2  0  0  0
 12 92  1  0  0  0
 13 14  1  0  0  0
 13 31  1  0  0  0
 14 15  2  0  0  0
 14 93  1  0  0  0
 15 94  1  0  0  0
 16 17  2  0  0  0
 16 21  1  0  0  0
 16 31  1  0  0  0
 17 18  1  0  0  0
 17 95  1  0  0  0
 18 19  2  0  0  0
 18 96  1  0  0  0
 19 20  1  0  0  0
 19 24  1  0  0  0
 20 21  2  0  0  0
 20 97  1  0  0  0
 21 23  1  0  0  0
 22 28  1  0  0  0
 22 32  2  0  0  0
 26 27  1  0  0  0
 28 98  1  0  0  0
 28 99  1  0  0  0
 29100  1  0  0  0
 29101  1  0  0  0
 33 34  1  0  0  0
 33 66  1  0  0  0
 33 70  2  0  0  0
 34 36  1  0  0  0
 34 59  1  0  0  0
 34102  1  0  0  0
 35 44  2  0  0  0
 35 45  1  0  0  0
 35 68  1  0  0  0
 36 56  1  0  0  0
 36103  1  0  0  0
 37 39  1  0  0  0
 37 47  1  0  0  0
 37 66  1  0  0  0
 37104  1  0  0  0
 38 43  2  0  0  0
 38 46  1  0  0  0
 38 47  1  0  0  0
 39 64  1  0  0  0
 39 67  2  0  0  0
 40 52  1  0  0  0
 40 53  2  0  0  0
 40 58  1  0  0  0
 41105  1  0  0  0
 41106  1  0  0  0
 41107  1  0  0  0
 41 48  1  0  0  0
 42 43  1  0  0  0
 42 66  1  0  0  0
 42108  1  0  0  0
 42109  1  0  0  0
 43 44  1  0  0  0
 44110  1  0  0  0
 45 46  2  0  0  0
 45111  1  0  0  0
 46112  1  0  0  0
 47113  1  0  0  0
 47114  1  0  0  0
 48 56  1  0  0  0
 48 65  1  0  0  0
 48115  1  0  0  0
 49 50  1  0  0  0
 49 53  1  0  0  0
 49 64  1  0  0  0
 49116  1  0  0  0
 50 51  1  0  0  0
 50117  1  0  0  0
 50118  1  0  0  0
 51 52  1  0  0  0
 51119  1  0  0  0
 51120  1  0  0  0
 52121  1  0  0  0
 52122  1  0  0  0
 53 54  1  0  0  0
 54 55  2  0  0  0
 54123  1  0  0  0
 55 57  1  0  0  0
 55124  1  0  0  0
 56 69  2  0  0  0
 57 58  2  0  0  0
 57125  1  0  0  0
 58126  1  0  0  0
 59 60  1  0  0  0
 59 61  1  0  0  0
 59 62  1  0  0  0
 60127  1  0  0  0
 60128  1  0  0  0
 60129  1  0  0  0
 61130  1  0  0  0
 61131  1  0  0  0
 61132  1  0  0  0
 62133  1  0  0  0
 62134  1  0  0  0
 62135  1  0  0  0
 63 65  1  0  0  0
 63136  1  0  0  0
 63137  1  0  0  0
 63138  1  0  0  0
 64139  1  0  0  0
 65140  1  0  0  0
 68 75  1  0  0  0
 71 72  1  0  0  0
 71 74  1  0  0  0
 71141  1  0  0  0
 71142  1  0  0  0
 72 75  1  0  0  0
 72143  1  0  0  0
 72144  1  0  0  0
 73 74  1  0  0  0
 73 75  1  0  0  0
 73145  1  0  0  0
 73146  1  0  0  0
 74 76  1  0  0  0
 74147  1  0  0  0
 75148  1  0  0  0
 76 78  1  0  0  0
 76149  1  0  0  0
 76150  1  0  0  0
 77 79  1  0  0  0
 77 80  1  0  0  0
 77151  1  0  0  0
 77152  1  0  0  0
 78 81  1  0  0  0
 78153  1  0  0  0
 78154  1  0  0  0
 79 81  1  0  0  0
 79155  1  0  0  0
 79156  1  0  0  0
 80157  1  0  0  0
 81158  1  0  0  0
 81159  1  0  0  0
M  CHG  1  81   1
M  ISO  4   1 100  68 101  75 101  80 100
M  END
> <chiral flag>
0

> <version>
0

> <s_m_source_file>
/data/baiqing/PycharmProjects/Reinvent-master-3.2/result/LINK_invent/BTK/process_docking_weight1_custom_sum_contain_oxygen_bond_distance_aromatic_linkinvent_7_9_3/rearranged_h_0139.sdf

> <i_m_source_file_index>
13

> <r_mmod_Potential_Energy-OPLS-2005>
-165.769226074219

> <r_mmod_Stretch_Energy-OPLS-2005>
41.1156578063965

> <r_mmod_Bend_Energy-OPLS-2005>
126.894859313965

> <r_mmod_Torsional_Energy-OPLS-2005>
295.112396240234

> <r_mmod_Improper_Torsional_Energy-OPLS-2005>
3.11449813842773

> <r_mmod_Van_der_Waal_Energy-OPLS-2005>
121.045234680176

> <r_mmod_Electrostatic_Energy-OPLS-2005>
-286.766876220703

> <r_mmod_Solvation_Energy-OPLS-2005>
-481.115447998047

> <b_mmod_Minimization_Converged-OPLS-2005>
0

> <r_mmod_RMS_Derivative-OPLS-2005>
0.784432172775269

$$$$
13
                    3D
 Structure written by MMmdl.
153162  0  0  1  0            999 V2000
  -30.4759  -15.1843   20.3847 C   0  0  0  0  0  0
  -30.4337  -12.7539   19.5138 C   0  0  0  0  0  0
  -29.5270  -12.5614   18.2740 C   0  0  0  0  0  0
  -28.0716  -12.3025   18.7022 C   0  0  0  0  0  0
  -27.6125  -13.2700   19.8227 C   0  0  2  0  0  0
  -28.6498  -13.4156   20.9558 C   0  0  0  0  0  0
  -25.2396  -13.8241   20.5750 C   0  0  0  0  0  0
  -24.1746  -13.0434   20.9262 C   0  0  0  0  0  0
  -24.6398  -11.6932   20.8767 C   0  0  0  0  0  0
  -23.9095  -10.4294   21.0410 C   0  0  0  0  0  0
  -24.3638   -9.4206   21.9192 C   0  0  0  0  0  0
  -23.6308   -8.2241   22.0756 C   0  0  0  0  0  0
  -22.4288   -8.0286   21.3545 C   0  0  0  0  0  0
  -21.9931   -9.0260   20.4645 C   0  0  0  0  0  0
  -22.7266  -10.2136   20.3058 C   0  0  0  0  0  0
  -21.6857   -6.0745   22.5284 C   0  0  0  0  0  0
  -21.4014   -6.5647   23.8218 C   0  0  0  0  0  0
  -21.3656   -5.6797   24.9179 C   0  0  0  0  0  0
  -21.6039   -4.3058   24.7225 C   0  0  0  0  0  0
  -21.8819   -3.8155   23.4346 C   0  0  0  0  0  0
  -21.9192   -4.6972   22.3404 C   0  0  0  0  0  0
  -22.7765  -13.5187   21.1906 C   0  0  0  0  0  0
  -22.1664   -4.2159   21.0981 F   0  0  0  0  0  0
  -21.5621   -3.4541   25.7734 F   0  0  0  0  0  0
  -29.8899  -13.8959   20.3292 N   0  0  0  0  0  0
  -26.2817  -12.9510   20.3220 N   0  0  0  0  0  0
  -25.9332  -11.6617   20.5727 N   0  0  0  0  0  0
  -22.0426  -12.8163   22.0454 N   0  0  0  0  0  0
  -25.4029  -15.1977   20.4186 N   0  0  0  0  0  0
  -31.6970  -15.1777   20.1786 O   0  0  0  0  0  0
  -21.6644   -6.8889   21.4245 O   0  0  0  0  0  0
  -22.3445  -14.5489   20.6748 O   0  0  0  0  0  0
  -24.6591  -31.8290   23.1751 C   0  0  0  0  0  0
  -25.9295  -32.4612   23.8192 C   0  0  1  0  0  0
  -27.2084  -26.9708   20.1764 C   0  0  0  0  0  0
  -25.5990  -33.8427   24.2100 N   0  0  0  0  0  0
  -23.4708  -30.4451   21.5233 C   0  0  2  0  0  0
  -24.9221  -28.8463   20.1098 C   0  0  0  0  0  0
  -22.7642  -29.4477   22.4784 C   0  0  0  0  0  0
  -18.0320  -28.1409   22.8481 C   0  0  0  0  0  0
  -24.1493  -36.7209   23.2644 C   0  0  0  0  0  0
  -26.0391  -30.6497   21.4000 C   0  0  0  0  0  0
  -26.1063  -29.2454   20.7426 C   0  0  0  0  0  0
  -27.2469  -28.3284   20.7536 C   0  0  0  0  0  0
  -25.9960  -26.7208   19.4923 C   0  0  0  0  0  0
  -24.8902  -27.6028   19.4652 C   0  0  0  0  0  0
  -23.7076  -29.7693   20.1463 C   0  0  0  0  0  0
  -25.4131  -36.2979   24.0305 C   0  0  1  0  0  0
  -20.5946  -28.3754   23.1192 C   0  0  2  0  0  0
  -20.6801  -26.9437   22.5400 C   0  0  0  0  0  0
  -19.5774  -26.6388   21.5211 C   0  0  0  0  0  0
  -18.1956  -26.7951   22.1622 C   0  0  0  0  0  0
  -19.1583  -28.8900   23.2829 C   0  0  0  0  0  0
  -18.9493  -30.1490   23.8865 C   0  0  0  0  0  0
  -17.6489  -30.6602   24.0556 C   0  0  0  0  0  0
  -25.9099  -34.9365   23.5018 C   0  0  0  0  0  0
  -16.5378  -29.9092   23.6345 C   0  0  0  0  0  0
  -16.7301  -28.6507   23.0375 C   0  0  0  0  0  0
  -26.4564  -31.6537   25.0697 C   0  0  0  0  0  0
  -25.3702  -31.3782   26.1359 C   0  0  0  0  0  0
  -27.0453  -30.2911   24.6403 C   0  0  0  0  0  0
  -27.6062  -32.4342   25.7497 C   0  0  0  0  0  0
  -27.5571  -37.1756   24.8459 C   0  0  0  0  0  0
  -21.4314  -29.3055   22.3541 N   0  0  0  0  0  0
  -26.4271  -37.3719   23.9421 N   0  0  0  0  0  0
  -24.7440  -31.0001   22.0863 N   0  0  0  0  0  0
  -23.4212  -28.8035   23.2995 O   0  0  0  0  0  0
  -28.1934  -25.8622   20.2566 O   0  0  0  0  0  0
  -26.5688  -34.8898   22.4602 O   0  0  0  0  0  0
  -23.5668  -32.1236   23.6873 O   0  0  0  0  0  0
  -28.8692  -20.2825   19.2718 C   0  0  0  0  0  0
  -28.4647  -21.7079   19.1821 C   0  0  0  0  0  0
  -29.0648  -22.0518   21.3759 C   0  0  0  0  0  0
  -29.4135  -19.6008   20.4321 C   0  0  0  0  0  0
  -28.5356  -22.7422   20.2110 C   0  0  0  0  0  0
  -29.4826  -20.6261   21.4782 C   0  0  0  0  0  0
  -31.0882  -18.1800   21.7874 C   0  0  0  0  0  0
  -30.3527  -18.8420   22.9651 C   0  0  0  0  0  0
  -30.1813  -18.0452   20.5461 C   0  0  1  0  0  0
  -27.7800  -24.3004   20.0782 C   0  0  0  0  0  0
  -30.0350  -20.2457   22.7094 N   0  0  0  0  0  0
  -29.7388  -16.4562   20.4790 N   0  0  0  0  0  0
  -31.4575  -12.9410   19.1875 H   0  0  0  0  0  0
  -30.4785  -11.8391   20.1066 H   0  0  0  0  0  0
  -29.8897  -11.7363   17.6595 H   0  0  0  0  0  0
  -29.5711  -13.4535   17.6477 H   0  0  0  0  0  0
  -28.0126  -11.2741   19.0602 H   0  0  0  0  0  0
  -27.4024  -12.3654   17.8431 H   0  0  0  0  0  0
  -27.5362  -14.2442   19.3382 H   0  0  0  0  0  0
  -28.8007  -12.4737   21.4852 H   0  0  0  0  0  0
  -28.3063  -14.1403   21.6961 H   0  0  0  0  0  0
  -25.2781   -9.5676   22.4772 H   0  0  0  0  0  0
  -24.0012   -7.4627   22.7474 H   0  0  0  0  0  0
  -21.0864   -8.8785   19.8948 H   0  0  0  0  0  0
  -22.3733  -10.9677   19.6165 H   0  0  0  0  0  0
  -21.2016   -7.6157   23.9724 H   0  0  0  0  0  0
  -21.1470   -6.0527   25.9079 H   0  0  0  0  0  0
  -22.0599   -2.7619   23.2843 H   0  0  0  0  0  0
  -22.4062  -11.9829   22.4830 H   0  0  0  0  0  0
  -21.1037  -13.1161   22.2659 H   0  0  0  0  0  0
  -24.6306  -15.8452   20.5322 H   0  0  0  0  0  0
  -26.2409  -15.6411   20.0669 H   0  0  0  0  0  0
  -26.7360  -32.5163   23.0900 H   0  0  0  0  0  0
  -25.0127  -33.9514   25.0246 H   0  0  0  0  0  0
  -22.7823  -31.2764   21.3582 H   0  0  0  0  0  0
  -23.3772  -35.9519   23.3270 H   0  0  0  0  0  0
  -24.3579  -36.8878   22.2064 H   0  0  0  0  0  0
  -23.7229  -37.6384   23.6713 H   0  0  0  0  0  0
  -26.2181  -31.3951   20.6241 H   0  0  0  0  0  0
  -26.8997  -30.7016   22.0545 H   0  0  0  0  0  0
  -28.1413  -28.6313   21.2800 H   0  0  0  0  0  0
  -25.8521  -25.7767   18.9908 H   0  0  0  0  0  0
  -23.9910  -27.2916   18.9513 H   0  0  0  0  0  0
  -23.8607  -30.5415   19.3915 H   0  0  0  0  0  0
  -22.8177  -29.2239   19.8271 H   0  0  0  0  0  0
  -25.1324  -36.1769   25.0793 H   0  0  0  0  0  0
  -21.0046  -28.3358   24.1309 H   0  0  0  0  0  0
  -20.5686  -26.2368   23.3638 H   0  0  0  0  0  0
  -21.6664  -26.7421   22.1200 H   0  0  0  0  0  0
  -19.6929  -25.6284   21.1271 H   0  0  0  0  0  0
  -19.6712  -27.3173   20.6722 H   0  0  0  0  0  0
  -17.4225  -26.6700   21.4024 H   0  0  0  0  0  0
  -18.0342  -26.0098   22.9021 H   0  0  0  0  0  0
  -19.7967  -30.7316   24.2222 H   0  0  0  0  0  0
  -17.5039  -31.6279   24.5161 H   0  0  0  0  0  0
  -15.5378  -30.2983   23.7691 H   0  0  0  0  0  0
  -15.8701  -28.0806   22.7122 H   0  0  0  0  0  0
  -24.5915  -30.7089   25.7681 H   0  0  0  0  0  0
  -24.8851  -32.2978   26.4643 H   0  0  0  0  0  0
  -25.7954  -30.9057   27.0221 H   0  0  0  0  0  0
  -26.3105  -29.6606   24.1389 H   0  0  0  0  0  0
  -27.3971  -29.7255   25.5038 H   0  0  0  0  0  0
  -27.9057  -30.4100   23.9820 H   0  0  0  0  0  0
  -27.2635  -33.3694   26.1938 H   0  0  0  0  0  0
  -28.3951  -32.6817   25.0382 H   0  0  0  0  0  0
  -28.0645  -31.8552   26.5521 H   0  0  0  0  0  0
  -28.2546  -38.0095   24.7554 H   0  0  0  0  0  0
  -28.1112  -36.2625   24.6224 H   0  0  0  0  0  0
  -27.2300  -37.1314   25.8863 H   0  0  0  0  0  0
  -20.9543  -29.8751   21.6693 H   0  0  0  0  0  0
  -26.0113  -38.2766   24.1466 H   0  0  0  0  0  0
  -28.7738  -19.6941   18.3703 H   0  0  0  0  0  0
  -28.0443  -22.0156   18.2347 H   0  0  0  0  0  0
  -29.1444  -22.6553   22.2688 H   0  0  0  0  0  0
  -31.4974  -17.2188   22.1002 H   0  0  0  0  0  0
  -31.9575  -18.7895   21.5340 H   0  0  0  0  0  0
  -30.9753  -18.7887   23.8593 H   0  0  0  0  0  0
  -29.4370  -18.2935   23.1925 H   0  0  0  0  0  0
  -30.8527  -18.0826   19.6873 H   0  0  0  0  0  0
  -26.9016  -24.1957   20.7163 H   0  0  0  0  0  0
  -27.3863  -24.2614   19.0636 H   0  0  0  0  0  0
  -29.9822  -20.8823   23.5028 H   0  0  0  0  0  0
  -28.7418  -16.3222   20.5560 H   0  0  0  0  0  0
  1 25  1  0  0  0
  1 30  2  0  0  0
  1 82  1  0  0  0
  2  3  1  0  0  0
  2 25  1  0  0  0
  2 83  1  0  0  0
  2 84  1  0  0  0
  3  4  1  0  0  0
  3 85  1  0  0  0
  3 86  1  0  0  0
  4  5  1  0  0  0
  4 87  1  0  0  0
  4 88  1  0  0  0
  5  6  1  0  0  0
  5 26  1  0  0  0
  5 89  1  0  0  0
  6 25  1  0  0  0
  6 90  1  0  0  0
  6 91  1  0  0  0
  7  8  2  0  0  0
  7 26  1  0  0  0
  7 29  1  0  0  0
  8  9  1  0  0  0
  8 22  1  0  0  0
  9 10  1  0  0  0
  9 27  2  0  0  0
 10 11  2  0  0  0
 10 15  1  0  0  0
 11 12  1  0  0  0
 11 92  1  0  0  0
 12 13  2  0  0  0
 12 93  1  0  0  0
 13 14  1  0  0  0
 13 31  1  0  0  0
 14 15  2  0  0  0
 14 94  1  0  0  0
 15 95  1  0  0  0
 16 17  2  0  0  0
 16 21  1  0  0  0
 16 31  1  0  0  0
 17 18  1  0  0  0
 17 96  1  0  0  0
 18 19  2  0  0  0
 18 97  1  0  0  0
 19 20  1  0  0  0
 19 24  1  0  0  0
 20 21  2  0  0  0
 20 98  1  0  0  0
 21 23  1  0  0  0
 22 28  1  0  0  0
 22 32  2  0  0  0
 26 27  1  0  0  0
 28 99  1  0  0  0
 28100  1  0  0  0
 29101  1  0  0  0
 29102  1  0  0  0
 33 34  1  0  0  0
 33 66  1  0  0  0
 33 70  2  0  0  0
 34 36  1  0  0  0
 34 59  1  0  0  0
 34103  1  0  0  0
 35 44  2  0  0  0
 35 45  1  0  0  0
 35 68  1  0  0  0
 36 56  1  0  0  0
 36104  1  0  0  0
 37 39  1  0  0  0
 37 47  1  0  0  0
 37 66  1  0  0  0
 37105  1  0  0  0
 38 43  2  0  0  0
 38 46  1  0  0  0
 38 47  1  0  0  0
 39 64  1  0  0  0
 39 67  2  0  0  0
 40 52  1  0  0  0
 40 53  2  0  0  0
 40 58  1  0  0  0
 41106  1  0  0  0
 41107  1  0  0  0
 41108  1  0  0  0
 41 48  1  0  0  0
 42 43  1  0  0  0
 42 66  1  0  0  0
 42109  1  0  0  0
 42110  1  0  0  0
 43 44  1  0  0  0
 44111  1  0  0  0
 45 46  2  0  0  0
 45112  1  0  0  0
 46113  1  0  0  0
 47114  1  0  0  0
 47115  1  0  0  0
 48 56  1  0  0  0
 48 65  1  0  0  0
 48116  1  0  0  0
 49 50  1  0  0  0
 49 53  1  0  0  0
 49 64  1  0  0  0
 49117  1  0  0  0
 50 51  1  0  0  0
 50118  1  0  0  0
 50119  1  0  0  0
 51 52  1  0  0  0
 51120  1  0  0  0
 51121  1  0  0  0
 52122  1  0  0  0
 52123  1  0  0  0
 53 54  1  0  0  0
 54 55  2  0  0  0
 54124  1  0  0  0
 55 57  1  0  0  0
 55125  1  0  0  0
 56 69  2  0  0  0
 57 58  2  0  0  0
 57126  1  0  0  0
 58127  1  0  0  0
 59 60  1  0  0  0
 59 61  1  0  0  0
 59 62  1  0  0  0
 60128  1  0  0  0
 60129  1  0  0  0
 60130  1  0  0  0
 61131  1  0  0  0
 61132  1  0  0  0
 61133  1  0  0  0
 62134  1  0  0  0
 62135  1  0  0  0
 62136  1  0  0  0
 63 65  1  0  0  0
 63137  1  0  0  0
 63138  1  0  0  0
 63139  1  0  0  0
 64140  1  0  0  0
 65141  1  0  0  0
 68 80  1  0  0  0
 71 72  2  0  0  0
 71 74  1  0  0  0
 71142  1  0  0  0
 72 75  1  0  0  0
 72143  1  0  0  0
 73 75  2  0  0  0
 73 76  1  0  0  0
 73144  1  0  0  0
 74 76  2  0  0  0
 74 79  1  0  0  0
 75 80  1  0  0  0
 76 81  1  0  0  0
 77 78  1  0  0  0
 77 79  1  0  0  0
 77145  1  0  0  0
 77146  1  0  0  0
 78 81  1  0  0  0
 78147  1  0  0  0
 78148  1  0  0  0
 79 82  1  0  0  0
 79149  1  0  0  0
 80150  1  0  0  0
 80151  1  0  0  0
 81152  1  0  0  0
 82153  1  0  0  0
M  ISO  4   1 100  68 101  80 101  82 100
M  END
> <chiral flag>
0

> <version>
0

> <s_m_source_file>
/data/baiqing/PycharmProjects/Reinvent-master-3.2/result/LINK_invent/BTK/process_docking_weight1_custom_sum_contain_oxygen_bond_distance_aromatic_linkinvent_7_9_3/rearranged_h_0139.sdf

> <i_m_source_file_index>
14

> <r_mmod_Potential_Energy-OPLS-2005>
1029.95263671875

> <r_mmod_Stretch_Energy-OPLS-2005>
452.661346435547

> <r_mmod_Bend_Energy-OPLS-2005>
425.648712158203

> <r_mmod_Torsional_Energy-OPLS-2005>
222.376678466797

> <r_mmod_Improper_Torsional_Energy-OPLS-2005>
9.40569400787354

> <r_mmod_Van_der_Waal_Energy-OPLS-2005>
141.28515625

> <r_mmod_Electrostatic_Energy-OPLS-2005>
-381.048736572266

> <r_mmod_Solvation_Energy-OPLS-2005>
-230.007125854492

> <b_mmod_Minimization_Converged-OPLS-2005>
0

> <r_mmod_RMS_Derivative-OPLS-2005>
1.05622982978821

$$$$
14
                    3D
 Structure written by MMmdl.
155164  0  0  1  0            999 V2000
  -30.5502  -14.8670   20.5102 C   0  0  0  0  0  0
  -30.4478  -12.5516   19.4885 C   0  0  0  0  0  0
  -29.5201  -12.5308   18.2517 C   0  0  0  0  0  0
  -28.0511  -12.3218   18.6678 C   0  0  0  0  0  0
  -27.6375  -13.2368   19.8499 C   0  0  2  0  0  0
  -28.6750  -13.2073   20.9894 C   0  0  0  0  0  0
  -25.2498  -13.8206   20.5710 C   0  0  0  0  0  0
  -24.1798  -13.0446   20.9217 C   0  0  0  0  0  0
  -24.6389  -11.6916   20.8716 C   0  0  0  0  0  0
  -23.9073  -10.4298   21.0375 C   0  0  0  0  0  0
  -24.3628   -9.4216   21.9161 C   0  0  0  0  0  0
  -23.6303   -8.2249   22.0734 C   0  0  0  0  0  0
  -22.4280   -8.0288   21.3532 C   0  0  0  0  0  0
  -21.9921   -9.0253   20.4624 C   0  0  0  0  0  0
  -22.7246  -10.2137   20.3030 C   0  0  0  0  0  0
  -21.6875   -6.0736   22.5281 C   0  0  0  0  0  0
  -21.4018   -6.5643   23.8209 C   0  0  0  0  0  0
  -21.3649   -5.6779   24.9172 C   0  0  0  0  0  0
  -21.6048   -4.3052   24.7215 C   0  0  0  0  0  0
  -21.8827   -3.8143   23.4333 C   0  0  0  0  0  0
  -21.9200   -4.6961   22.3399 C   0  0  0  0  0  0
  -22.7820  -13.5221   21.1883 C   0  0  0  0  0  0
  -22.1678   -4.2153   21.0971 F   0  0  0  0  0  0
  -21.5621   -3.4538   25.7723 F   0  0  0  0  0  0
  -29.9568  -13.6180   20.4049 N   0  0  0  0  0  0
  -26.2915  -12.9415   20.3259 N   0  0  0  0  0  0
  -25.9328  -11.6566   20.5727 N   0  0  0  0  0  0
  -22.0481  -12.8169   22.0414 N   0  0  0  0  0  0
  -25.4206  -15.1931   20.4170 N   0  0  0  0  0  0
  -31.7462  -14.9723   20.2207 O   0  0  0  0  0  0
  -21.6651   -6.8877   21.4238 O   0  0  0  0  0  0
  -22.3505  -14.5526   20.6735 O   0  0  0  0  0  0
  -24.6375  -31.8521   23.1895 C   0  0  0  0  0  0
  -25.9189  -32.4732   23.8248 C   0  0  1  0  0  0
  -27.2198  -27.1629   20.1747 C   0  0  0  0  0  0
  -25.5985  -33.8525   24.2235 N   0  0  0  0  0  0
  -23.4390  -30.4690   21.5339 C   0  0  2  0  0  0
  -24.8913  -28.8928   20.1185 C   0  0  0  0  0  0
  -22.7522  -29.4598   22.4868 C   0  0  0  0  0  0
  -18.0306  -28.1418   22.8471 C   0  0  0  0  0  0
  -24.1486  -36.7249   23.2620 C   0  0  0  0  0  0
  -25.9884  -30.7336   21.3849 C   0  0  0  0  0  0
  -26.0622  -29.3405   20.7412 C   0  0  0  0  0  0
  -27.2263  -28.4910   20.7531 C   0  0  0  0  0  0
  -26.0291  -26.8100   19.5041 C   0  0  0  0  0  0
  -24.8865  -27.6401   19.4860 C   0  0  0  0  0  0
  -23.6668  -29.7925   20.1552 C   0  0  0  0  0  0
  -25.4128  -36.3074   24.0329 C   0  0  1  0  0  0
  -20.5902  -28.3766   23.1256 C   0  0  2  0  0  0
  -20.6802  -26.9462   22.5411 C   0  0  0  0  0  0
  -19.5780  -26.6423   21.5194 C   0  0  0  0  0  0
  -18.1956  -26.7978   22.1601 C   0  0  0  0  0  0
  -19.1564  -28.8911   23.2874 C   0  0  0  0  0  0
  -18.9475  -30.1493   23.8923 C   0  0  0  0  0  0
  -17.6487  -30.6616   24.0561 C   0  0  0  0  0  0
  -25.9077  -34.9436   23.5108 C   0  0  0  0  0  0
  -16.5373  -29.9100   23.6315 C   0  0  0  0  0  0
  -16.7302  -28.6511   23.0354 C   0  0  0  0  0  0
  -26.4537  -31.6549   25.0634 C   0  0  0  0  0  0
  -25.3746  -31.3742   26.1354 C   0  0  0  0  0  0
  -27.0349  -30.2942   24.6130 C   0  0  0  0  0  0
  -27.6107  -32.4260   25.7447 C   0  0  0  0  0  0
  -27.5603  -37.1796   24.8480 C   0  0  0  0  0  0
  -21.4232  -29.3097   22.3630 N   0  0  0  0  0  0
  -26.4313  -37.3769   23.9415 N   0  0  0  0  0  0
  -24.7077  -31.0386   22.0926 N   0  0  0  0  0  0
  -23.4190  -28.8151   23.3032 O   0  0  0  0  0  0
  -28.3423  -26.2676   20.1869 O   0  0  0  0  0  0
  -26.5608  -34.8931   22.4637 O   0  0  0  0  0  0
  -23.5508  -32.1413   23.7138 O   0  0  0  0  0  0
  -27.8405  -22.3395   19.9937 C   0  0  0  0  0  0
  -27.6289  -23.7694   19.7928 C   0  0  0  0  0  0
  -29.4631  -24.2584   21.2105 C   0  0  0  0  0  0
  -28.9001  -21.8193   20.8000 C   0  0  0  0  0  0
  -29.6877  -22.8374   21.3778 C   0  0  0  0  0  0
  -28.4077  -24.8205   20.4096 C   0  0  0  0  0  0
  -30.7626  -22.2064   22.2321 C   0  0  0  0  0  0
  -30.7151  -20.6807   21.9052 C   0  0  0  0  0  0
  -29.3086  -20.3357   21.3413 C   0  0  2  0  0  0
  -29.2886  -18.8570   20.5528 C   0  0  0  0  0  0
  -30.0765  -17.4954   21.1353 C   0  0  0  0  0  0
  -29.7542  -16.0035   20.7752 N   0  0  0  0  0  0
  -28.5065  -20.0819   22.4805 O   0  0  0  0  0  0
  -31.4771  -12.7307   19.1676 H   0  0  0  0  0  0
  -30.4544  -11.5822   19.9891 H   0  0  0  0  0  0
  -29.8264  -11.7464   17.5580 H   0  0  0  0  0  0
  -29.6158  -13.4730   17.7093 H   0  0  0  0  0  0
  -27.9357  -11.2763   18.9545 H   0  0  0  0  0  0
  -27.3886  -12.4762   17.8154 H   0  0  0  0  0  0
  -27.6205  -14.2497   19.4485 H   0  0  0  0  0  0
  -28.7460  -12.2137   21.4328 H   0  0  0  0  0  0
  -28.3852  -13.8824   21.7961 H   0  0  0  0  0  0
  -25.2771   -9.5710   22.4745 H   0  0  0  0  0  0
  -24.0032   -7.4640   22.7445 H   0  0  0  0  0  0
  -21.0871   -8.8756   19.8918 H   0  0  0  0  0  0
  -22.3698  -10.9670   19.6143 H   0  0  0  0  0  0
  -21.2010   -7.6153   23.9714 H   0  0  0  0  0  0
  -21.1467   -6.0515   25.9072 H   0  0  0  0  0  0
  -22.0613   -2.7611   23.2834 H   0  0  0  0  0  0
  -22.4128  -11.9829   22.4766 H   0  0  0  0  0  0
  -21.1082  -13.1149   22.2609 H   0  0  0  0  0  0
  -24.6531  -15.8464   20.5274 H   0  0  0  0  0  0
  -26.2594  -15.6296   20.0571 H   0  0  0  0  0  0
  -26.7234  -32.5390   23.0961 H   0  0  0  0  0  0
  -25.0228  -33.9603   25.0455 H   0  0  0  0  0  0
  -22.7381  -31.2918   21.3765 H   0  0  0  0  0  0
  -23.3799  -35.9536   23.3330 H   0  0  0  0  0  0
  -24.3539  -36.8780   22.2015 H   0  0  0  0  0  0
  -23.7180  -37.6441   23.6602 H   0  0  0  0  0  0
  -26.1213  -31.4775   20.5993 H   0  0  0  0  0  0
  -26.8677  -30.7986   22.0138 H   0  0  0  0  0  0
  -28.1292  -28.8343   21.2369 H   0  0  0  0  0  0
  -25.9541  -25.8694   18.9851 H   0  0  0  0  0  0
  -23.9925  -27.3004   18.9804 H   0  0  0  0  0  0
  -23.8002  -30.5636   19.3950 H   0  0  0  0  0  0
  -22.7815  -29.2310   19.8490 H   0  0  0  0  0  0
  -25.1271  -36.1940   25.0815 H   0  0  0  0  0  0
  -20.9972  -28.3378   24.1388 H   0  0  0  0  0  0
  -20.5694  -26.2338   23.3611 H   0  0  0  0  0  0
  -21.6661  -26.7457   22.1197 H   0  0  0  0  0  0
  -19.6923  -25.6320   21.1225 H   0  0  0  0  0  0
  -19.6727  -27.3240   20.6734 H   0  0  0  0  0  0
  -17.4189  -26.6725   21.4031 H   0  0  0  0  0  0
  -18.0377  -26.0118   22.9002 H   0  0  0  0  0  0
  -19.7951  -30.7305   24.2298 H   0  0  0  0  0  0
  -17.5029  -31.6281   24.5182 H   0  0  0  0  0  0
  -15.5381  -30.3015   23.7654 H   0  0  0  0  0  0
  -15.8684  -28.0835   22.7085 H   0  0  0  0  0  0
  -24.6023  -30.6928   25.7755 H   0  0  0  0  0  0
  -24.8809  -32.2897   26.4641 H   0  0  0  0  0  0
  -25.8072  -30.9092   27.0216 H   0  0  0  0  0  0
  -26.2906  -29.6750   24.1101 H   0  0  0  0  0  0
  -27.3959  -29.7147   25.4640 H   0  0  0  0  0  0
  -27.8824  -30.4196   23.9382 H   0  0  0  0  0  0
  -27.2767  -33.3629   26.1955 H   0  0  0  0  0  0
  -28.4015  -32.6695   25.0320 H   0  0  0  0  0  0
  -28.0677  -31.8376   26.5430 H   0  0  0  0  0  0
  -28.2644  -38.0084   24.7513 H   0  0  0  0  0  0
  -28.1064  -36.2597   24.6333 H   0  0  0  0  0  0
  -27.2280  -37.1460   25.8871 H   0  0  0  0  0  0
  -20.9454  -29.8755   21.6735 H   0  0  0  0  0  0
  -26.0219  -38.2835   24.1443 H   0  0  0  0  0  0
  -27.1604  -21.6470   19.5201 H   0  0  0  0  0  0
  -26.8317  -24.0316   19.1189 H   0  0  0  0  0  0
  -30.1301  -24.9453   21.7142 H   0  0  0  0  0  0
  -30.5192  -22.3793   23.2799 H   0  0  0  0  0  0
  -31.7451  -22.6395   22.0479 H   0  0  0  0  0  0
  -31.0418  -20.0512   22.7353 H   0  0  0  0  0  0
  -31.4273  -20.5086   21.0976 H   0  0  0  0  0  0
  -29.6789  -19.0200   19.5488 H   0  0  0  0  0  0
  -28.2420  -18.5908   20.3965 H   0  0  0  0  0  0
  -29.9531  -17.5241   22.2190 H   0  0  0  0  0  0
  -31.1478  -17.6358   20.9943 H   0  0  0  0  0  0
  -28.7861  -15.7584   20.9151 H   0  0  0  0  0  0
  -28.8633  -19.3285   22.9339 H   0  0  0  0  0  0
  1 25  1  0  0  0
  1 30  2  0  0  0
  1 82  1  0  0  0
  2  3  1  0  0  0
  2 25  1  0  0  0
  2 84  1  0  0  0
  2 85  1  0  0  0
  3  4  1  0  0  0
  3 86  1  0  0  0
  3 87  1  0  0  0
  4  5  1  0  0  0
  4 88  1  0  0  0
  4 89  1  0  0  0
  5  6  1  0  0  0
  5 26  1  0  0  0
  5 90  1  0  0  0
  6 25  1  0  0  0
  6 91  1  0  0  0
  6 92  1  0  0  0
  7  8  2  0  0  0
  7 26  1  0  0  0
  7 29  1  0  0  0
  8  9  1  0  0  0
  8 22  1  0  0  0
  9 10  1  0  0  0
  9 27  2  0  0  0
 10 11  2  0  0  0
 10 15  1  0  0  0
 11 12  1  0  0  0
 11 93  1  0  0  0
 12 13  2  0  0  0
 12 94  1  0  0  0
 13 14  1  0  0  0
 13 31  1  0  0  0
 14 15  2  0  0  0
 14 95  1  0  0  0
 15 96  1  0  0  0
 16 17  2  0  0  0
 16 21  1  0  0  0
 16 31  1  0  0  0
 17 18  1  0  0  0
 17 97  1  0  0  0
 18 19  2  0  0  0
 18 98  1  0  0  0
 19 20  1  0  0  0
 19 24  1  0  0  0
 20 21  2  0  0  0
 20 99  1  0  0  0
 21 23  1  0  0  0
 22 28  1  0  0  0
 22 32  2  0  0  0
 26 27  1  0  0  0
 28100  1  0  0  0
 28101  1  0  0  0
 29102  1  0  0  0
 29103  1  0  0  0
 33 34  1  0  0  0
 33 66  1  0  0  0
 33 70  2  0  0  0
 34 36  1  0  0  0
 34 59  1  0  0  0
 34104  1  0  0  0
 35 44  2  0  0  0
 35 45  1  0  0  0
 35 68  1  0  0  0
 36 56  1  0  0  0
 36105  1  0  0  0
 37 39  1  0  0  0
 37 47  1  0  0  0
 37 66  1  0  0  0
 37106  1  0  0  0
 38 43  2  0  0  0
 38 46  1  0  0  0
 38 47  1  0  0  0
 39 64  1  0  0  0
 39 67  2  0  0  0
 40 52  1  0  0  0
 40 53  2  0  0  0
 40 58  1  0  0  0
 41107  1  0  0  0
 41108  1  0  0  0
 41109  1  0  0  0
 41 48  1  0  0  0
 42 43  1  0  0  0
 42 66  1  0  0  0
 42110  1  0  0  0
 42111  1  0  0  0
 43 44  1  0  0  0
 44112  1  0  0  0
 45 46  2  0  0  0
 45113  1  0  0  0
 46114  1  0  0  0
 47115  1  0  0  0
 47116  1  0  0  0
 48 56  1  0  0  0
 48 65  1  0  0  0
 48117  1  0  0  0
 49 50  1  0  0  0
 49 53  1  0  0  0
 49 64  1  0  0  0
 49118  1  0  0  0
 50 51  1  0  0  0
 50119  1  0  0  0
 50120  1  0  0  0
 51 52  1  0  0  0
 51121  1  0  0  0
 51122  1  0  0  0
 52123  1  0  0  0
 52124  1  0  0  0
 53 54  1  0  0  0
 54 55  2  0  0  0
 54125  1  0  0  0
 55 57  1  0  0  0
 55126  1  0  0  0
 56 69  2  0  0  0
 57 58  2  0  0  0
 57127  1  0  0  0
 58128  1  0  0  0
 59 60  1  0  0  0
 59 61  1  0  0  0
 59 62  1  0  0  0
 60129  1  0  0  0
 60130  1  0  0  0
 60131  1  0  0  0
 61132  1  0  0  0
 61133  1  0  0  0
 61134  1  0  0  0
 62135  1  0  0  0
 62136  1  0  0  0
 62137  1  0  0  0
 63 65  1  0  0  0
 63138  1  0  0  0
 63139  1  0  0  0
 63140  1  0  0  0
 64141  1  0  0  0
 65142  1  0  0  0
 68 76  1  0  0  0
 71 72  2  0  0  0
 71 74  1  0  0  0
 71143  1  0  0  0
 72 76  1  0  0  0
 72144  1  0  0  0
 73 75  1  0  0  0
 73 76  2  0  0  0
 73145  1  0  0  0
 74 75  2  0  0  0
 74 79  1  0  0  0
 75 77  1  0  0  0
 77 78  1  0  0  0
 77146  1  0  0  0
 77147  1  0  0  0
 78 79  1  0  0  0
 78148  1  0  0  0
 78149  1  0  0  0
 79 80  1  0  0  0
 79 83  1  0  0  0
 80 81  1  0  0  0
 80150  1  0  0  0
 80151  1  0  0  0
 81 82  1  0  0  0
 81152  1  0  0  0
 81153  1  0  0  0
 82154  1  0  0  0
 83155  1  0  0  0
M  ISO  4   1 100  68 101  76 101  82 100
M  END
> <chiral flag>
0

> <version>
0

> <s_m_source_file>
/data/baiqing/PycharmProjects/Reinvent-master-3.2/result/LINK_invent/BTK/process_docking_weight1_custom_sum_contain_oxygen_bond_distance_aromatic_linkinvent_7_9_3/rearranged_h_0139.sdf

> <i_m_source_file_index>
15

> <r_mmod_Potential_Energy-OPLS-2005>
395.084533691406

> <r_mmod_Stretch_Energy-OPLS-2005>
197.913543701172

> <r_mmod_Bend_Energy-OPLS-2005>
299.476165771484

> <r_mmod_Torsional_Energy-OPLS-2005>
227.930572509766

> <r_mmod_Improper_Torsional_Energy-OPLS-2005>
5.1209135055542

> <r_mmod_Van_der_Waal_Energy-OPLS-2005>
126.039680480957

> <r_mmod_Electrostatic_Energy-OPLS-2005>
-373.179626464844

> <r_mmod_Solvation_Energy-OPLS-2005>
-232.422286987305

> <b_mmod_Minimization_Converged-OPLS-2005>
0

> <r_mmod_RMS_Derivative-OPLS-2005>
4.69134569168091

$$$$
15
                    3D
 Structure written by MMmdl.
177186  0  0  1  0            999 V2000
  -30.6563  -14.5139   20.5313 C   0  0  0  0  0  0
  -30.4262  -12.3186   19.4346 C   0  0  0  0  0  0
  -29.4994  -12.5061   18.2138 C   0  0  0  0  0  0
  -28.0184  -12.3678   18.6210 C   0  0  0  0  0  0
  -27.6596  -13.2071   19.8774 C   0  0  2  0  0  0
  -28.7004  -12.9980   21.0015 C   0  0  0  0  0  0
  -25.2579  -13.8163   20.5690 C   0  0  0  0  0  0
  -24.1828  -13.0442   20.9176 C   0  0  0  0  0  0
  -24.6387  -11.6909   20.8736 C   0  0  0  0  0  0
  -23.9058  -10.4293   21.0409 C   0  0  0  0  0  0
  -24.3618   -9.4208   21.9184 C   0  0  0  0  0  0
  -23.6292   -8.2241   22.0760 C   0  0  0  0  0  0
  -22.4272   -8.0280   21.3549 C   0  0  0  0  0  0
  -21.9906   -9.0251   20.4646 C   0  0  0  0  0  0
  -22.7233  -10.2129   20.3054 C   0  0  0  0  0  0
  -21.6848   -6.0739   22.5276 C   0  0  0  0  0  0
  -21.4013   -6.5645   23.8212 C   0  0  0  0  0  0
  -21.3657   -5.6792   24.9175 C   0  0  0  0  0  0
  -21.6045   -4.3056   24.7219 C   0  0  0  0  0  0
  -21.8818   -3.8148   23.4339 C   0  0  0  0  0  0
  -21.9192   -4.6967   22.3396 C   0  0  0  0  0  0
  -22.7849  -13.5235   21.1849 C   0  0  0  0  0  0
  -22.1664   -4.2154   21.0973 F   0  0  0  0  0  0
  -21.5625   -3.4542   25.7733 F   0  0  0  0  0  0
  -30.0287  -13.3087   20.4475 N   0  0  0  0  0  0
  -26.3014  -12.9326   20.3376 N   0  0  0  0  0  0
  -25.9312  -11.6489   20.5770 N   0  0  0  0  0  0
  -22.0501  -12.8220   22.0404 N   0  0  0  0  0  0
  -25.4300  -15.1882   20.4105 N   0  0  0  0  0  0
  -31.7994  -14.7043   20.1073 O   0  0  0  0  0  0
  -21.6630   -6.8880   21.4239 O   0  0  0  0  0  0
  -22.3531  -14.5550   20.6714 O   0  0  0  0  0  0
  -24.6144  -31.8666   23.2063 C   0  0  0  0  0  0
  -25.9033  -32.4817   23.8371 C   0  0  1  0  0  0
  -27.2432  -27.4217   20.1221 C   0  0  0  0  0  0
  -25.5880  -33.8611   24.2310 N   0  0  0  0  0  0
  -23.4047  -30.4865   21.5460 C   0  0  2  0  0  0
  -24.8557  -28.9465   20.1165 C   0  0  0  0  0  0
  -22.7415  -29.4649   22.4975 C   0  0  0  0  0  0
  -18.0273  -28.1380   22.8488 C   0  0  0  0  0  0
  -24.1485  -36.7313   23.2641 C   0  0  0  0  0  0
  -25.9312  -30.8336   21.3568 C   0  0  0  0  0  0
  -26.0132  -29.4636   20.7117 C   0  0  0  0  0  0
  -27.2127  -28.7145   20.7021 C   0  0  0  0  0  0
  -26.0746  -26.9260   19.5108 C   0  0  0  0  0  0
  -24.8829  -27.6782   19.5073 C   0  0  0  0  0  0
  -23.6148  -29.8117   20.1627 C   0  0  0  0  0  0
  -25.4104  -36.3104   24.0337 C   0  0  1  0  0  0
  -20.5862  -28.3666   23.1316 C   0  0  2  0  0  0
  -20.6760  -26.9402   22.5420 C   0  0  0  0  0  0
  -19.5740  -26.6390   21.5210 C   0  0  0  0  0  0
  -18.1918  -26.7925   22.1620 C   0  0  0  0  0  0
  -19.1522  -28.8837   23.2900 C   0  0  0  0  0  0
  -18.9453  -30.1441   23.8916 C   0  0  0  0  0  0
  -17.6456  -30.6585   24.0566 C   0  0  0  0  0  0
  -25.9037  -34.9472   23.5126 C   0  0  0  0  0  0
  -16.5347  -29.9094   23.6323 C   0  0  0  0  0  0
  -16.7264  -28.6510   23.0344 C   0  0  0  0  0  0
  -26.4461  -31.6586   25.0697 C   0  0  0  0  0  0
  -25.3732  -31.3687   26.1452 C   0  0  0  0  0  0
  -27.0292  -30.3033   24.6053 C   0  0  0  0  0  0
  -27.6037  -32.4303   25.7465 C   0  0  0  0  0  0
  -27.5580  -37.1806   24.8462 C   0  0  0  0  0  0
  -21.4141  -29.3034   22.3723 N   0  0  0  0  0  0
  -26.4287  -37.3793   23.9416 N   0  0  0  0  0  0
  -24.6685  -31.0763   22.0956 N   0  0  0  0  0  0
  -23.4180  -28.8205   23.3036 O   0  0  0  0  0  0
  -28.3783  -26.6329   20.0978 O   0  0  0  0  0  0
  -26.5610  -34.8931   22.4697 O   0  0  0  0  0  0
  -23.5339  -32.1408   23.7459 O   0  0  0  0  0  0
  -28.4535  -23.3779   20.5007 C   0  0  0  0  0  0
  -30.9390  -24.9227   23.0539 C   0  0  0  0  0  0
  -30.1563  -26.1837   23.4111 C   0  0  0  0  0  0
  -30.0213  -23.9322   22.3343 C   0  0  0  0  0  0
  -28.7533  -18.5105   18.9216 C   0  0  0  0  0  0
  -29.2961  -19.4064   21.2169 C   0  0  0  0  0  0
  -29.6792  -17.2868   19.1202 C   0  0  0  0  0  0
  -29.2452  -17.8824   21.5562 C   0  0  0  0  0  0
  -29.6000  -26.8378   22.1431 C   0  0  0  0  0  0
  -29.3726  -24.5047   21.0450 C   0  0  2  0  0  0
  -29.2330  -19.7620   19.7016 C   0  0  2  0  0  0
  -30.0579  -16.9789   20.5940 C   0  0  1  0  0  0
  -28.6813  -25.9053   21.3116 C   0  0  2  0  0  0
  -27.4439  -22.6172   17.4801 C   0  0  0  0  0  0
  -28.4330  -21.0919   19.3808 C   0  0  2  0  0  0
  -28.2299  -21.3511   17.8552 C   0  0  2  0  0  0
  -29.0594  -22.2817   19.9924 N   0  0  0  0  0  0
  -29.8576  -15.5428   20.8945 N   0  0  0  0  0  0
  -27.2272  -23.4774   20.5682 O   0  0  0  0  0  0
  -29.4882  -21.4102   17.2042 O   0  0  0  0  0  0
  -31.4710  -12.4237   19.1372 H   0  0  0  0  0  0
  -30.3309  -11.3095   19.8387 H   0  0  0  0  0  0
  -29.7408  -11.7763   17.4404 H   0  0  0  0  0  0
  -29.6672  -13.4884   17.7697 H   0  0  0  0  0  0
  -27.8260  -11.3117   18.8125 H   0  0  0  0  0  0
  -27.3741  -12.6479   17.7862 H   0  0  0  0  0  0
  -27.6976  -14.2531   19.5745 H   0  0  0  0  0  0
  -28.6794  -11.9652   21.3527 H   0  0  0  0  0  0
  -28.4661  -13.6064   21.8772 H   0  0  0  0  0  0
  -25.2774   -9.5683   22.4743 H   0  0  0  0  0  0
  -24.0000   -7.4623   22.7475 H   0  0  0  0  0  0
  -21.0844   -8.8772   19.8940 H   0  0  0  0  0  0
  -22.3703  -10.9668   19.6154 H   0  0  0  0  0  0
  -21.2009   -7.6152   23.9727 H   0  0  0  0  0  0
  -21.1482   -6.0523   25.9079 H   0  0  0  0  0  0
  -22.0601   -2.7611   23.2845 H   0  0  0  0  0  0
  -22.4134  -11.9864   22.4747 H   0  0  0  0  0  0
  -21.1123  -13.1235   22.2649 H   0  0  0  0  0  0
  -24.6621  -15.8424   20.5148 H   0  0  0  0  0  0
  -26.2808  -15.6284   20.0846 H   0  0  0  0  0  0
  -26.7113  -32.5539   23.1147 H   0  0  0  0  0  0
  -24.9997  -33.9769   25.0430 H   0  0  0  0  0  0
  -22.6934  -31.3021   21.4024 H   0  0  0  0  0  0
  -23.3746  -35.9646   23.3295 H   0  0  0  0  0  0
  -24.3579  -36.8940   22.2056 H   0  0  0  0  0  0
  -23.7235  -37.6515   23.6663 H   0  0  0  0  0  0
  -26.0377  -31.5956   20.5830 H   0  0  0  0  0  0
  -26.8206  -30.8946   21.9724 H   0  0  0  0  0  0
  -28.1073  -29.1365   21.1347 H   0  0  0  0  0  0
  -26.0894  -25.9488   19.0479 H   0  0  0  0  0  0
  -23.9959  -27.2749   19.0391 H   0  0  0  0  0  0
  -23.7211  -30.5831   19.3991 H   0  0  0  0  0  0
  -22.7403  -29.2280   19.8694 H   0  0  0  0  0  0
  -25.1276  -36.1969   25.0829 H   0  0  0  0  0  0
  -20.9949  -28.3239   24.1436 H   0  0  0  0  0  0
  -20.5655  -26.2278   23.3608 H   0  0  0  0  0  0
  -21.6635  -26.7440   22.1221 H   0  0  0  0  0  0
  -19.6908  -25.6308   21.1224 H   0  0  0  0  0  0
  -19.6682  -27.3215   20.6748 H   0  0  0  0  0  0
  -17.4188  -26.6670   21.4026 H   0  0  0  0  0  0
  -18.0326  -26.0063   22.9013 H   0  0  0  0  0  0
  -19.7932  -30.7245   24.2303 H   0  0  0  0  0  0
  -17.5017  -31.6264   24.5169 H   0  0  0  0  0  0
  -15.5351  -30.3003   23.7634 H   0  0  0  0  0  0
  -15.8661  -28.0837   22.7046 H   0  0  0  0  0  0
  -24.5892  -30.7053   25.7782 H   0  0  0  0  0  0
  -24.8942  -32.2845   26.4928 H   0  0  0  0  0  0
  -25.8087  -30.8828   27.0194 H   0  0  0  0  0  0
  -26.2829  -29.6806   24.1109 H   0  0  0  0  0  0
  -27.4078  -29.7251   25.4490 H   0  0  0  0  0  0
  -27.8652  -30.4356   23.9180 H   0  0  0  0  0  0
  -27.2652  -33.3593   26.2066 H   0  0  0  0  0  0
  -28.3834  -32.6880   25.0284 H   0  0  0  0  0  0
  -28.0719  -31.8413   26.5363 H   0  0  0  0  0  0
  -28.2587  -38.0112   24.7518 H   0  0  0  0  0  0
  -28.1082  -36.2643   24.6267 H   0  0  0  0  0  0
  -27.2304  -37.1434   25.8866 H   0  0  0  0  0  0
  -20.9307  -29.8759   21.6941 H   0  0  0  0  0  0
  -26.0174  -38.2870   24.1427 H   0  0  0  0  0  0
  -31.3441  -24.4654   23.9583 H   0  0  0  0  0  0
  -31.7935  -25.1737   22.4230 H   0  0  0  0  0  0
  -30.8020  -26.8846   23.9411 H   0  0  0  0  0  0
  -29.3393  -25.9385   24.0921 H   0  0  0  0  0  0
  -29.2398  -23.6097   23.0257 H   0  0  0  0  0  0
  -30.6001  -23.0370   22.1002 H   0  0  0  0  0  0
  -27.7318  -18.2632   19.2142 H   0  0  0  0  0  0
  -28.7232  -18.7023   17.8511 H   0  0  0  0  0  0
  -30.2033  -19.8399   21.6391 H   0  0  0  0  0  0
  -28.4736  -19.8923   21.7441 H   0  0  0  0  0  0
  -30.5989  -17.4409   18.5534 H   0  0  0  0  0  0
  -29.1987  -16.4250   18.6524 H   0  0  0  0  0  0
  -28.2020  -17.5613   21.5380 H   0  0  0  0  0  0
  -29.5792  -17.7303   22.5834 H   0  0  0  0  0  0
  -30.4307  -27.1764   21.5226 H   0  0  0  0  0  0
  -29.0611  -27.7310   22.4502 H   0  0  0  0  0  0
  -30.1638  -24.6686   20.3123 H   0  0  0  0  0  0
  -30.2603  -19.9281   19.3738 H   0  0  0  0  0  0
  -31.1141  -17.2195   20.7328 H   0  0  0  0  0  0
  -27.7650  -25.7327   21.8815 H   0  0  0  0  0  0
  -26.4893  -22.6497   18.0066 H   0  0  0  0  0  0
  -27.2205  -22.6433   16.4133 H   0  0  0  0  0  0
  -27.9891  -23.5312   17.7173 H   0  0  0  0  0  0
  -27.4398  -20.9759   19.8201 H   0  0  0  0  0  0
  -27.6638  -20.5214   17.4324 H   0  0  0  0  0  0
  -30.0691  -22.2986   19.9570 H   0  0  0  0  0  0
  -28.9489  -15.2774   21.2407 H   0  0  0  0  0  0
  -29.3335  -21.3775   16.2653 H   0  0  0  0  0  0
  1 25  1  0  0  0
  1 30  2  0  0  0
  1 88  1  0  0  0
  2  3  1  0  0  0
  2 25  1  0  0  0
  2 91  1  0  0  0
  2 92  1  0  0  0
  3  4  1  0  0  0
  3 93  1  0  0  0
  3 94  1  0  0  0
  4  5  1  0  0  0
  4 95  1  0  0  0
  4 96  1  0  0  0
  5  6  1  0  0  0
  5 26  1  0  0  0
  5 97  1  0  0  0
  6 25  1  0  0  0
  6 98  1  0  0  0
  6 99  1  0  0  0
  7  8  2  0  0  0
  7 26  1  0  0  0
  7 29  1  0  0  0
  8  9  1  0  0  0
  8 22  1  0  0  0
  9 10  1  0  0  0
  9 27  2  0  0  0
 10 11  2  0  0  0
 10 15  1  0  0  0
 11 12  1  0  0  0
 11100  1  0  0  0
 12 13  2  0  0  0
 12101  1  0  0  0
 13 14  1  0  0  0
 13 31  1  0  0  0
 14 15  2  0  0  0
 14102  1  0  0  0
 15103  1  0  0  0
 16 17  2  0  0  0
 16 21  1  0  0  0
 16 31  1  0  0  0
 17 18  1  0  0  0
 17104  1  0  0  0
 18 19  2  0  0  0
 18105  1  0  0  0
 19 20  1  0  0  0
 19 24  1  0  0  0
 20 21  2  0  0  0
 20106  1  0  0  0
 21 23  1  0  0  0
 22 28  1  0  0  0
 22 32  2  0  0  0
 26 27  1  0  0  0
 28107  1  0  0  0
 28108  1  0  0  0
 29109  1  0  0  0
 29110  1  0  0  0
 33 34  1  0  0  0
 33 66  1  0  0  0
 33 70  2  0  0  0
 34 36  1  0  0  0
 34 59  1  0  0  0
 34111  1  0  0  0
 35 44  2  0  0  0
 35 45  1  0  0  0
 35 68  1  0  0  0
 36 56  1  0  0  0
 36112  1  0  0  0
 37 39  1  0  0  0
 37 47  1  0  0  0
 37 66  1  0  0  0
 37113  1  0  0  0
 38 43  2  0  0  0
 38 46  1  0  0  0
 38 47  1  0  0  0
 39 64  1  0  0  0
 39 67  2  0  0  0
 40 52  1  0  0  0
 40 53  2  0  0  0
 40 58  1  0  0  0
 41114  1  0  0  0
 41115  1  0  0  0
 41116  1  0  0  0
 41 48  1  0  0  0
 42 43  1  0  0  0
 42 66  1  0  0  0
 42117  1  0  0  0
 42118  1  0  0  0
 43 44  1  0  0  0
 44119  1  0  0  0
 45 46  2  0  0  0
 45120  1  0  0  0
 46121  1  0  0  0
 47122  1  0  0  0
 47123  1  0  0  0
 48 56  1  0  0  0
 48 65  1  0  0  0
 48124  1  0  0  0
 49 50  1  0  0  0
 49 53  1  0  0  0
 49 64  1  0  0  0
 49125  1  0  0  0
 50 51  1  0  0  0
 50126  1  0  0  0
 50127  1  0  0  0
 51 52  1  0  0  0
 51128  1  0  0  0
 51129  1  0  0  0
 52130  1  0  0  0
 52131  1  0  0  0
 53 54  1  0  0  0
 54 55  2  0  0  0
 54132  1  0  0  0
 55 57  1  0  0  0
 55133  1  0  0  0
 56 69  2  0  0  0
 57 58  2  0  0  0
 57134  1  0  0  0
 58135  1  0  0  0
 59 60  1  0  0  0
 59 61  1  0  0  0
 59 62  1  0  0  0
 60136  1  0  0  0
 60137  1  0  0  0
 60138  1  0  0  0
 61139  1  0  0  0
 61140  1  0  0  0
 61141  1  0  0  0
 62142  1  0  0  0
 62143  1  0  0  0
 62144  1  0  0  0
 63 65  1  0  0  0
 63145  1  0  0  0
 63146  1  0  0  0
 63147  1  0  0  0
 64148  1  0  0  0
 65149  1  0  0  0
 68 83  1  0  0  0
 71 87  1  0  0  0
 71 89  2  0  0  0
 71 80  1  0  0  0
 72 73  1  0  0  0
 72 74  1  0  0  0
 72150  1  0  0  0
 72151  1  0  0  0
 73 79  1  0  0  0
 73152  1  0  0  0
 73153  1  0  0  0
 74 80  1  0  0  0
 74154  1  0  0  0
 74155  1  0  0  0
 75 77  1  0  0  0
 75156  1  0  0  0
 75157  1  0  0  0
 75 81  1  0  0  0
 76 78  1  0  0  0
 76 81  1  0  0  0
 76158  1  0  0  0
 76159  1  0  0  0
 77 82  1  0  0  0
 77160  1  0  0  0
 77161  1  0  0  0
 78 82  1  0  0  0
 78162  1  0  0  0
 78163  1  0  0  0
 79 83  1  0  0  0
 79164  1  0  0  0
 79165  1  0  0  0
 80 83  1  0  0  0
 80166  1  0  0  0
 81 85  1  0  0  0
 81167  1  0  0  0
 82 88  1  0  0  0
 82168  1  0  0  0
 83169  1  0  0  0
 84170  1  0  0  0
 84171  1  0  0  0
 84172  1  0  0  0
 84 86  1  0  0  0
 85 86  1  0  0  0
 85 87  1  0  0  0
 85173  1  0  0  0
 86 90  1  0  0  0
 86174  1  0  0  0
 87175  1  0  0  0
 88176  1  0  0  0
 90177  1  0  0  0
M  ISO  4   1 100  68 101  83 101  88 100
M  END
> <chiral flag>
0

> <version>
0

> <s_m_source_file>
/data/baiqing/PycharmProjects/Reinvent-master-3.2/result/LINK_invent/BTK/process_docking_weight1_custom_sum_contain_oxygen_bond_distance_aromatic_linkinvent_7_9_3/rearranged_h_0139.sdf

> <i_m_source_file_index>
16

> <r_mmod_Potential_Energy-OPLS-2005>
-48.259334564209

> <r_mmod_Stretch_Energy-OPLS-2005>
51.0058975219727

> <r_mmod_Bend_Energy-OPLS-2005>
113.274353027344

> <r_mmod_Torsional_Energy-OPLS-2005>
316.190338134766

> <r_mmod_Improper_Torsional_Energy-OPLS-2005>
5.9697208404541

> <r_mmod_Van_der_Waal_Energy-OPLS-2005>
134.520935058594

> <r_mmod_Electrostatic_Energy-OPLS-2005>
-452.445220947266

> <r_mmod_Solvation_Energy-OPLS-2005>
-233.525375366211

> <b_mmod_Minimization_Converged-OPLS-2005>
0

> <r_mmod_RMS_Derivative-OPLS-2005>
1.55176782608032

$$$$
16
                    3D
 Structure written by MMmdl.
167176  0  0  1  0            999 V2000
  -30.6282  -14.6097   20.4394 C   0  0  0  0  0  0
  -30.4539  -12.3300   19.4750 C   0  0  0  0  0  0
  -29.5196  -12.3226   18.2445 C   0  0  0  0  0  0
  -28.0216  -12.3204   18.6321 C   0  0  0  0  0  0
  -27.6555  -13.2029   19.8581 C   0  0  2  0  0  0
  -28.7038  -13.0656   20.9837 C   0  0  0  0  0  0
  -25.2594  -13.8140   20.5655 C   0  0  0  0  0  0
  -24.1852  -13.0432   20.9197 C   0  0  0  0  0  0
  -24.6388  -11.6894   20.8770 C   0  0  0  0  0  0
  -23.9042  -10.4285   21.0427 C   0  0  0  0  0  0
  -24.3606   -9.4209   21.9204 C   0  0  0  0  0  0
  -23.6291   -8.2234   22.0752 C   0  0  0  0  0  0
  -22.4270   -8.0269   21.3533 C   0  0  0  0  0  0
  -21.9899   -9.0259   20.4644 C   0  0  0  0  0  0
  -22.7219  -10.2147   20.3069 C   0  0  0  0  0  0
  -21.6847   -6.0739   22.5289 C   0  0  0  0  0  0
  -21.4010   -6.5644   23.8230 C   0  0  0  0  0  0
  -21.3648   -5.6794   24.9187 C   0  0  0  0  0  0
  -21.6038   -4.3059   24.7234 C   0  0  0  0  0  0
  -21.8820   -3.8147   23.4356 C   0  0  0  0  0  0
  -21.9194   -4.6961   22.3407 C   0  0  0  0  0  0
  -22.7886  -13.5239   21.1842 C   0  0  0  0  0  0
  -22.1669   -4.2153   21.0982 F   0  0  0  0  0  0
  -21.5625   -3.4541   25.7742 F   0  0  0  0  0  0
  -30.0181  -13.3856   20.4096 N   0  0  0  0  0  0
  -26.3011  -12.9285   20.3318 N   0  0  0  0  0  0
  -25.9320  -11.6468   20.5828 N   0  0  0  0  0  0
  -22.0489  -12.8269   22.0402 N   0  0  0  0  0  0
  -25.4278  -15.1862   20.4007 N   0  0  0  0  0  0
  -31.8091  -14.7503   20.1048 O   0  0  0  0  0  0
  -21.6625   -6.8879   21.4242 O   0  0  0  0  0  0
  -22.3581  -14.5546   20.6666 O   0  0  0  0  0  0
  -24.6198  -31.8639   23.2053 C   0  0  0  0  0  0
  -25.9070  -32.4808   23.8367 C   0  0  1  0  0  0
  -27.2391  -27.3898   20.1086 C   0  0  0  0  0  0
  -25.5898  -33.8602   24.2293 N   0  0  0  0  0  0
  -23.4105  -30.4845   21.5476 C   0  0  2  0  0  0
  -24.8576  -28.9427   20.1145 C   0  0  0  0  0  0
  -22.7450  -29.4634   22.4984 C   0  0  0  0  0  0
  -18.0272  -28.1394   22.8487 C   0  0  0  0  0  0
  -24.1476  -36.7306   23.2636 C   0  0  0  0  0  0
  -25.9431  -30.8176   21.3628 C   0  0  0  0  0  0
  -26.0205  -29.4483   20.7084 C   0  0  0  0  0  0
  -27.2145  -28.6836   20.6924 C   0  0  0  0  0  0
  -26.0522  -26.9061   19.5120 C   0  0  0  0  0  0
  -24.8714  -27.6743   19.5090 C   0  0  0  0  0  0
  -23.6206  -29.8133   20.1635 C   0  0  0  0  0  0
  -25.4100  -36.3098   24.0333 C   0  0  1  0  0  0
  -20.5869  -28.3676   23.1326 C   0  0  2  0  0  0
  -20.6764  -26.9407   22.5438 C   0  0  0  0  0  0
  -19.5748  -26.6391   21.5228 C   0  0  0  0  0  0
  -18.1920  -26.7942   22.1620 C   0  0  0  0  0  0
  -19.1525  -28.8851   23.2897 C   0  0  0  0  0  0
  -18.9448  -30.1455   23.8911 C   0  0  0  0  0  0
  -17.6451  -30.6593   24.0571 C   0  0  0  0  0  0
  -25.9044  -34.9469   23.5117 C   0  0  0  0  0  0
  -16.5341  -29.9100   23.6323 C   0  0  0  0  0  0
  -16.7261  -28.6520   23.0337 C   0  0  0  0  0  0
  -26.4463  -31.6607   25.0721 C   0  0  0  0  0  0
  -25.3716  -31.3757   26.1470 C   0  0  0  0  0  0
  -27.0284  -30.3033   24.6141 C   0  0  0  0  0  0
  -27.6042  -32.4334   25.7471 C   0  0  0  0  0  0
  -27.5592  -37.1783   24.8444 C   0  0  0  0  0  0
  -21.4172  -29.3027   22.3735 N   0  0  0  0  0  0
  -26.4272  -37.3803   23.9437 N   0  0  0  0  0  0
  -24.6762  -31.0708   22.0970 N   0  0  0  0  0  0
  -23.4200  -28.8189   23.3053 O   0  0  0  0  0  0
  -28.4050  -26.6346   20.1299 O   0  0  0  0  0  0
  -26.5624  -34.8935   22.4689 O   0  0  0  0  0  0
  -23.5376  -32.1399   23.7426 O   0  0  0  0  0  0
  -29.5741  -18.3249   17.9587 C   0  0  0  0  0  0
  -29.6495  -19.4839   18.7263 C   0  0  0  0  0  0
  -29.5955  -17.0650   18.5803 C   0  0  0  0  0  0
  -29.7289  -19.3695   20.1197 C   0  0  0  0  0  0
  -29.7989  -16.9771   19.9947 C   0  0  0  0  0  0
  -28.8603  -15.1424   15.7017 C   0  0  0  0  0  0
  -28.0535  -15.8742   16.7784 C   0  0  0  0  0  0
  -30.1373  -15.6399   16.3897 C   0  0  0  0  0  0
  -29.3115  -15.8851   17.6631 C   0  0  0  0  0  0
  -30.8380  -22.9819   22.2292 C   0  0  0  0  0  0
  -29.6331  -24.5224   20.6195 C   0  0  0  0  0  0
  -29.5968  -21.8884   20.3028 C   0  0  0  0  0  0
  -28.2916  -25.1855   20.1764 C   0  0  0  0  0  0
  -29.6128  -23.0973   21.2962 C   0  0  1  0  0  0
  -29.8213  -18.1461   20.7251 N   0  0  0  0  0  0
  -29.8067  -15.6800   20.6545 N   0  0  0  0  0  0
  -29.6789  -20.5381   20.9163 N   0  0  0  0  0  0
  -31.4884  -12.4611   19.1525 H   0  0  0  0  0  0
  -30.4252  -11.3617   19.9772 H   0  0  0  0  0  0
  -29.7244  -11.4281   17.6544 H   0  0  0  0  0  0
  -29.7680  -13.1293   17.5678 H   0  0  0  0  0  0
  -27.7680  -11.2818   18.8476 H   0  0  0  0  0  0
  -27.4103  -12.6021   17.7747 H   0  0  0  0  0  0
  -27.6619  -14.2349   19.5169 H   0  0  0  0  0  0
  -28.7112  -12.0482   21.3783 H   0  0  0  0  0  0
  -28.4639  -13.7136   21.8280 H   0  0  0  0  0  0
  -25.2746   -9.5704   22.4780 H   0  0  0  0  0  0
  -24.0019   -7.4613   22.7452 H   0  0  0  0  0  0
  -21.0830   -8.8767   19.8951 H   0  0  0  0  0  0
  -22.3662  -10.9691   19.6187 H   0  0  0  0  0  0
  -21.2004   -7.6161   23.9721 H   0  0  0  0  0  0
  -21.1464   -6.0530   25.9089 H   0  0  0  0  0  0
  -22.0606   -2.7611   23.2835 H   0  0  0  0  0  0
  -22.4090  -11.9955   22.4861 H   0  0  0  0  0  0
  -21.1106  -13.1321   22.2530 H   0  0  0  0  0  0
  -24.6515  -15.8303   20.4992 H   0  0  0  0  0  0
  -26.2599  -15.6264   20.0323 H   0  0  0  0  0  0
  -26.7150  -32.5497   23.1133 H   0  0  0  0  0  0
  -25.0013  -33.9748   25.0415 H   0  0  0  0  0  0
  -22.6996  -31.3011   21.4060 H   0  0  0  0  0  0
  -23.3757  -35.9616   23.3254 H   0  0  0  0  0  0
  -24.3576  -36.8977   22.2061 H   0  0  0  0  0  0
  -23.7193  -37.6481   23.6685 H   0  0  0  0  0  0
  -26.0613  -31.5814   20.5925 H   0  0  0  0  0  0
  -26.8300  -30.8698   21.9843 H   0  0  0  0  0  0
  -28.1142  -29.0724   21.1494 H   0  0  0  0  0  0
  -26.0256  -25.9317   19.0469 H   0  0  0  0  0  0
  -23.9785  -27.2802   19.0445 H   0  0  0  0  0  0
  -23.7300  -30.5863   19.4019 H   0  0  0  0  0  0
  -22.7442  -29.2329   19.8701 H   0  0  0  0  0  0
  -25.1265  -36.1944   25.0820 H   0  0  0  0  0  0
  -20.9940  -28.3244   24.1457 H   0  0  0  0  0  0
  -20.5670  -26.2283   23.3631 H   0  0  0  0  0  0
  -21.6637  -26.7452   22.1237 H   0  0  0  0  0  0
  -19.6915  -25.6304   21.1261 H   0  0  0  0  0  0
  -19.6710  -27.3205   20.6762 H   0  0  0  0  0  0
  -17.4206  -26.6696   21.4005 H   0  0  0  0  0  0
  -18.0298  -26.0085   22.9012 H   0  0  0  0  0  0
  -19.7920  -30.7261   24.2299 H   0  0  0  0  0  0
  -17.5003  -31.6270   24.5181 H   0  0  0  0  0  0
  -15.5341  -30.3005   23.7645 H   0  0  0  0  0  0
  -15.8662  -28.0856   22.7030 H   0  0  0  0  0  0
  -24.5867  -30.7123   25.7820 H   0  0  0  0  0  0
  -24.8925  -32.2929   26.4902 H   0  0  0  0  0  0
  -25.8042  -30.8935   27.0242 H   0  0  0  0  0  0
  -26.2837  -29.6814   24.1160 H   0  0  0  0  0  0
  -27.3985  -29.7259   25.4622 H   0  0  0  0  0  0
  -27.8702  -30.4324   23.9337 H   0  0  0  0  0  0
  -27.2657  -33.3617   26.2083 H   0  0  0  0  0  0
  -28.3814  -32.6933   25.0273 H   0  0  0  0  0  0
  -28.0758  -31.8450   26.5350 H   0  0  0  0  0  0
  -28.2557  -38.0134   24.7581 H   0  0  0  0  0  0
  -28.1133  -36.2672   24.6124 H   0  0  0  0  0  0
  -27.2342  -37.1273   25.8851 H   0  0  0  0  0  0
  -20.9361  -29.8719   21.6917 H   0  0  0  0  0  0
  -26.0153  -38.2866   24.1499 H   0  0  0  0  0  0
  -29.4476  -18.4122   16.8896 H   0  0  0  0  0  0
  -29.5919  -20.4315   18.2137 H   0  0  0  0  0  0
  -28.7145  -15.5243   14.6904 H   0  0  0  0  0  0
  -28.7356  -14.0595   15.7406 H   0  0  0  0  0  0
  -27.2196  -15.3063   17.1934 H   0  0  0  0  0  0
  -27.7299  -16.8609   16.4430 H   0  0  0  0  0  0
  -30.5172  -16.5526   15.9272 H   0  0  0  0  0  0
  -30.9279  -14.8955   16.4984 H   0  0  0  0  0  0
  -29.2744  -14.9876   18.2509 H   0  0  0  0  0  0
  -30.8543  -23.7815   22.9713 H   0  0  0  0  0  0
  -31.7696  -23.0394   21.6640 H   0  0  0  0  0  0
  -30.8477  -22.0447   22.7860 H   0  0  0  0  0  0
  -30.0693  -25.2176   21.3380 H   0  0  0  0  0  0
  -30.3283  -24.5214   19.7793 H   0  0  0  0  0  0
  -30.4356  -21.9945   19.6132 H   0  0  0  0  0  0
  -28.6897  -21.9439   19.6984 H   0  0  0  0  0  0
  -27.5036  -24.9060   20.8778 H   0  0  0  0  0  0
  -28.0093  -24.8033   19.1937 H   0  0  0  0  0  0
  -28.7245  -23.0389   21.9265 H   0  0  0  0  0  0
  -28.9396  -15.4462   21.1101 H   0  0  0  0  0  0
  -29.6787  -20.4561   21.9271 H   0  0  0  0  0  0
  1 25  1  0  0  0
  1 30  2  0  0  0
  1 86  1  0  0  0
  2  3  1  0  0  0
  2 25  1  0  0  0
  2 88  1  0  0  0
  2 89  1  0  0  0
  3  4  1  0  0  0
  3 90  1  0  0  0
  3 91  1  0  0  0
  4  5  1  0  0  0
  4 92  1  0  0  0
  4 93  1  0  0  0
  5  6  1  0  0  0
  5 26  1  0  0  0
  5 94  1  0  0  0
  6 25  1  0  0  0
  6 95  1  0  0  0
  6 96  1  0  0  0
  7  8  2  0  0  0
  7 26  1  0  0  0
  7 29  1  0  0  0
  8  9  1  0  0  0
  8 22  1  0  0  0
  9 10  1  0  0  0
  9 27  2  0  0  0
 10 11  2  0  0  0
 10 15  1  0  0  0
 11 12  1  0  0  0
 11 97  1  0  0  0
 12 13  2  0  0  0
 12 98  1  0  0  0
 13 14  1  0  0  0
 13 31  1  0  0  0
 14 15  2  0  0  0
 14 99  1  0  0  0
 15100  1  0  0  0
 16 17  2  0  0  0
 16 21  1  0  0  0
 16 31  1  0  0  0
 17 18  1  0  0  0
 17101  1  0  0  0
 18 19  2  0  0  0
 18102  1  0  0  0
 19 20  1  0  0  0
 19 24  1  0  0  0
 20 21  2  0  0  0
 20103  1  0  0  0
 21 23  1  0  0  0
 22 28  1  0  0  0
 22 32  2  0  0  0
 26 27  1  0  0  0
 28104  1  0  0  0
 28105  1  0  0  0
 29106  1  0  0  0
 29107  1  0  0  0
 33 34  1  0  0  0
 33 66  1  0  0  0
 33 70  2  0  0  0
 34 36  1  0  0  0
 34 59  1  0  0  0
 34108  1  0  0  0
 35 44  2  0  0  0
 35 45  1  0  0  0
 35 68  1  0  0  0
 36 56  1  0  0  0
 36109  1  0  0  0
 37 39  1  0  0  0
 37 47  1  0  0  0
 37 66  1  0  0  0
 37110  1  0  0  0
 38 43  2  0  0  0
 38 46  1  0  0  0
 38 47  1  0  0  0
 39 64  1  0  0  0
 39 67  2  0  0  0
 40 52  1  0  0  0
 40 53  2  0  0  0
 40 58  1  0  0  0
 41111  1  0  0  0
 41112  1  0  0  0
 41113  1  0  0  0
 41 48  1  0  0  0
 42 43  1  0  0  0
 42 66  1  0  0  0
 42114  1  0  0  0
 42115  1  0  0  0
 43 44  1  0  0  0
 44116  1  0  0  0
 45 46  2  0  0  0
 45117  1  0  0  0
 46118  1  0  0  0
 47119  1  0  0  0
 47120  1  0  0  0
 48 56  1  0  0  0
 48 65  1  0  0  0
 48121  1  0  0  0
 49 50  1  0  0  0
 49 53  1  0  0  0
 49 64  1  0  0  0
 49122  1  0  0  0
 50 51  1  0  0  0
 50123  1  0  0  0
 50124  1  0  0  0
 51 52  1  0  0  0
 51125  1  0  0  0
 51126  1  0  0  0
 52127  1  0  0  0
 52128  1  0  0  0
 53 54  1  0  0  0
 54 55  2  0  0  0
 54129  1  0  0  0
 55 57  1  0  0  0
 55130  1  0  0  0
 56 69  2  0  0  0
 57 58  2  0  0  0
 57131  1  0  0  0
 58132  1  0  0  0
 59 60  1  0  0  0
 59 61  1  0  0  0
 59 62  1  0  0  0
 60133  1  0  0  0
 60134  1  0  0  0
 60135  1  0  0  0
 61136  1  0  0  0
 61137  1  0  0  0
 61138  1  0  0  0
 62139  1  0  0  0
 62140  1  0  0  0
 62141  1  0  0  0
 63 65  1  0  0  0
 63142  1  0  0  0
 63143  1  0  0  0
 63144  1  0  0  0
 64145  1  0  0  0
 65146  1  0  0  0
 68 83  1  0  0  0
 71 72  2  0  0  0
 71 73  1  0  0  0
 71147  1  0  0  0
 72 74  1  0  0  0
 72148  1  0  0  0
 73 75  2  0  0  0
 73 79  1  0  0  0
 74 85  2  0  0  0
 74 87  1  0  0  0
 75 85  1  0  0  0
 75 86  1  0  0  0
 76 77  1  0  0  0
 76 78  1  0  0  0
 76149  1  0  0  0
 76150  1  0  0  0
 77 79  1  0  0  0
 77151  1  0  0  0
 77152  1  0  0  0
 78 79  1  0  0  0
 78153  1  0  0  0
 78154  1  0  0  0
 79155  1  0  0  0
 80156  1  0  0  0
 80157  1  0  0  0
 80158  1  0  0  0
 80 84  1  0  0  0
 81 83  1  0  0  0
 81 84  1  0  0  0
 81159  1  0  0  0
 81160  1  0  0  0
 82 84  1  0  0  0
 82 87  1  0  0  0
 82161  1  0  0  0
 82162  1  0  0  0
 83163  1  0  0  0
 83164  1  0  0  0
 84165  1  0  0  0
 86166  1  0  0  0
 87167  1  0  0  0
M  ISO  4   1 100  68 101  83 101  86 100
M  END
> <chiral flag>
0

> <version>
0

> <s_m_source_file>
/data/baiqing/PycharmProjects/Reinvent-master-3.2/result/LINK_invent/BTK/process_docking_weight1_custom_sum_contain_oxygen_bond_distance_aromatic_linkinvent_7_9_3/rearranged_h_0139.sdf

> <i_m_source_file_index>
17

> <r_mmod_Potential_Energy-OPLS-2005>
-114.011604309082

> <r_mmod_Stretch_Energy-OPLS-2005>
58.2903327941895

> <r_mmod_Bend_Energy-OPLS-2005>
141.365249633789

> <r_mmod_Torsional_Energy-OPLS-2005>
290.568237304688

> <r_mmod_Improper_Torsional_Energy-OPLS-2005>
6.59862613677979

> <r_mmod_Van_der_Waal_Energy-OPLS-2005>
154.135894775391

> <r_mmod_Electrostatic_Energy-OPLS-2005>
-577.245361328125

> <r_mmod_Solvation_Energy-OPLS-2005>
-225.67041015625

> <b_mmod_Minimization_Converged-OPLS-2005>
0

> <r_mmod_RMS_Derivative-OPLS-2005>
2.52393555641174

$$$$
17
                    3D
 Structure written by MMmdl.
184193  0  0  1  0            999 V2000
  -30.7426  -14.4069   20.5638 C   0  0  0  0  0  0
  -30.4516  -12.2787   19.3691 C   0  0  0  0  0  0
  -29.5392  -12.4395   18.1302 C   0  0  0  0  0  0
  -28.0620  -12.2857   18.5115 C   0  0  0  0  0  0
  -27.6821  -13.2738   19.6325 C   0  0  2  0  0  0
  -28.6656  -13.0128   20.8328 C   0  0  0  0  0  0
  -25.2012  -14.0790   20.2407 C   0  0  0  0  0  0
  -24.1301  -13.3353   20.6463 C   0  0  0  0  0  0
  -24.6525  -12.0569   20.5973 C   0  0  0  0  0  0
  -24.1581  -10.9261   21.1839 C   0  0  0  0  0  0
  -24.4964   -9.4786   23.0515 C   0  0  0  0  0  0
  -23.5236   -8.1334   22.9012 C   0  0  0  0  0  0
  -22.5126   -7.9673   21.6330 C   0  0  0  0  0  0
  -22.2925   -8.9708   20.4203 C   0  0  0  0  0  0
  -23.0193  -10.3498   20.1527 C   0  0  0  0  0  0
  -21.6108   -6.0040   22.5544 C   0  0  0  0  0  0
  -21.1822   -6.4359   23.8240 C   0  0  0  0  0  0
  -21.2358   -5.5717   24.9272 C   0  0  0  0  0  0
  -21.6027   -4.2319   24.7296 C   0  0  0  0  0  0
  -21.9249   -3.7637   23.4421 C   0  0  0  0  0  0
  -21.9358   -4.6543   22.3508 C   0  0  0  0  0  0
  -22.7161  -13.7477   20.9958 C   0  0  0  0  0  0
  -22.2285   -4.2055   21.1054 F   0  0  0  0  0  0
  -21.6040   -3.3844   25.7822 F   0  0  0  0  0  0
  -30.0388  -13.2662   20.3764 N   0  0  0  0  0  0
  -26.2563  -13.1869   19.9501 N   0  0  0  0  0  0
  -25.8205  -11.9689   20.0694 N   0  0  0  0  0  0
  -21.8849  -12.9565   21.6696 N   0  0  0  0  0  0
  -25.3682  -15.4356   20.2131 N   0  0  0  0  0  0
  -31.8856  -14.5895   20.1477 O   0  0  0  0  0  0
  -21.6935   -6.8729   21.5084 O   0  0  0  0  0  0
  -22.3018  -14.8302   20.6124 O   0  0  0  0  0  0
  -24.6408  -31.8473   23.1897 C   0  0  0  0  0  0
  -25.9234  -32.4666   23.8247 C   0  0  1  0  0  0
  -27.0681  -27.0517   20.3741 C   0  0  0  0  0  0
  -25.6039  -33.8477   24.2160 N   0  0  0  0  0  0
  -23.4354  -30.4770   21.5326 C   0  0  2  0  0  0
  -24.8771  -28.9067   20.0955 C   0  0  0  0  0  0
  -22.7455  -29.4608   22.4763 C   0  0  0  0  0  0
  -18.0314  -28.1387   22.8474 C   0  0  0  0  0  0
  -24.1475  -36.7220   23.2631 C   0  0  0  0  0  0
  -25.9860  -30.7085   21.3927 C   0  0  0  0  0  0
  -26.0417  -29.3144   20.7639 C   0  0  0  0  0  0
  -27.1530  -28.4024   20.8801 C   0  0  0  0  0  0
  -25.9380  -26.7621   19.5846 C   0  0  0  0  0  0
  -24.8535  -27.6567   19.4614 C   0  0  0  0  0  0
  -23.6612  -29.8317   20.1351 C   0  0  0  0  0  0
  -25.4113  -36.2991   24.0287 C   0  0  1  0  0  0
  -20.5918  -28.3745   23.1187 C   0  0  2  0  0  0
  -20.6795  -26.9437   22.5374 C   0  0  0  0  0  0
  -19.5766  -26.6365   21.5193 C   0  0  0  0  0  0
  -18.1955  -26.7930   22.1617 C   0  0  0  0  0  0
  -19.1565  -28.8862   23.2849 C   0  0  0  0  0  0
  -18.9501  -30.1465   23.8855 C   0  0  0  0  0  0
  -17.6502  -30.6589   24.0550 C   0  0  0  0  0  0
  -25.9129  -34.9406   23.5011 C   0  0  0  0  0  0
  -16.5392  -29.9075   23.6347 C   0  0  0  0  0  0
  -16.7305  -28.6497   23.0368 C   0  0  0  0  0  0
  -26.4575  -31.6572   25.0709 C   0  0  0  0  0  0
  -25.3784  -31.3824   26.1421 C   0  0  0  0  0  0
  -27.0472  -30.2958   24.6322 C   0  0  0  0  0  0
  -27.6008  -32.4397   25.7569 C   0  0  0  0  0  0
  -27.5556  -37.1746   24.8441 C   0  0  0  0  0  0
  -21.4172  -29.3086   22.3501 N   0  0  0  0  0  0
  -26.4238  -37.3725   23.9437 N   0  0  0  0  0  0
  -24.7063  -31.0345   22.0928 N   0  0  0  0  0  0
  -23.4076  -28.8141   23.2946 O   0  0  0  0  0  0
  -27.9218  -25.9387   20.6908 O   0  0  0  0  0  0
  -26.5652  -34.8916   22.4572 O   0  0  0  0  0  0
  -23.5579  -32.1408   23.7163 O   0  0  0  0  0  0
  -27.6101  -19.1085   19.9653 C   0  0  0  0  0  0
  -27.3619  -20.3441   20.5586 C   0  0  0  0  0  0
  -26.9814  -19.1084   22.6375 C   0  0  0  0  0  0
  -27.6095  -17.8807   20.6916 C   0  0  0  0  0  0
  -27.1251  -17.7187   22.0484 C   0  0  0  0  0  0
  -27.1477  -20.4511   21.9346 C   0  0  0  0  0  0
  -26.2989  -10.1056   21.8025 C   0  0  0  0  0  0
  -24.6991   -8.8668   21.0128 C   0  0  0  0  0  0
  -23.5675  -11.5943   23.4016 C   0  0  0  0  0  0
  -25.5781  -11.6955   23.0197 C   0  0  2  0  0  0
  -18.8340  -10.3300   23.1023 C   0  0  0  0  0  0
  -28.3273  -16.7827   19.9413 C   0  0  0  0  0  0
  -27.1659  -16.1071   22.7397 C   0  0  0  0  0  0
  -20.1044   -9.8891   22.3792 C   0  0  0  0  0  0
  -21.3443  -10.0102   23.2782 C   0  0  0  0  0  0
  -29.8340  -16.6426   20.2552 C   0  0  0  0  0  0
  -26.1205  -14.7608   23.2338 C   0  0  0  0  0  0
  -27.3003  -24.7138   21.4955 C   0  0  0  0  0  0
  -27.8370  -23.1038   21.8207 C   0  0  0  0  0  0
  -22.5692  -10.3040   22.5003 N   0  0  0  0  0  0
  -30.0506  -15.4403   21.0609 N   0  0  0  0  0  0
  -26.2833  -13.1862   22.7369 N   0  3  0  0  0  0
  -27.0490  -21.8493   22.3842 O   0  0  0  0  0  0
  -31.4823  -12.4402   19.0655 H   0  0  0  0  0  0
  -30.4116  -11.2567   19.7573 H   0  0  0  0  0  0
  -29.7991  -11.6992   17.3748 H   0  0  0  0  0  0
  -29.6869  -13.4069   17.6521 H   0  0  0  0  0  0
  -27.8903  -11.2471   18.8187 H   0  0  0  0  0  0
  -27.4450  -12.4434   17.6290 H   0  0  0  0  0  0
  -27.8376  -14.2206   19.1377 H   0  0  0  0  0  0
  -28.6059  -11.9762   21.1629 H   0  0  0  0  0  0
  -28.4786  -13.5990   21.7219 H   0  0  0  0  0  0
  -25.1529   -9.5381   23.9153 H   0  0  0  0  0  0
  -23.5973   -7.3589   23.6514 H   0  0  0  0  0  0
  -21.5776   -8.6591   19.6758 H   0  0  0  0  0  0
  -22.7715  -10.8933   19.2489 H   0  0  0  0  0  0
  -20.7524   -7.4099   23.9391 H   0  0  0  0  0  0
  -20.9173   -5.8997   25.9065 H   0  0  0  0  0  0
  -22.1699   -2.7226   23.2874 H   0  0  0  0  0  0
  -22.1424  -12.0061   21.9643 H   0  0  0  0  0  0
  -20.9270  -13.2466   21.7916 H   0  0  0  0  0  0
  -24.5830  -16.0616   20.3767 H   0  0  0  0  0  0
  -26.1511  -15.9164   19.7915 H   0  0  0  0  0  0
  -26.7275  -32.5202   23.0961 H   0  0  0  0  0  0
  -25.0225  -33.9577   25.0322 H   0  0  0  0  0  0
  -22.7469  -31.3119   21.3934 H   0  0  0  0  0  0
  -23.3743  -35.9538   23.3265 H   0  0  0  0  0  0
  -24.3574  -36.8898   22.2056 H   0  0  0  0  0  0
  -23.7251  -37.6404   23.6723 H   0  0  0  0  0  0
  -26.1554  -31.4379   20.6032 H   0  0  0  0  0  0
  -26.8543  -30.7435   22.0369 H   0  0  0  0  0  0
  -27.9989  -28.6851   21.4888 H   0  0  0  0  0  0
  -25.8189  -25.7746   19.1594 H   0  0  0  0  0  0
  -23.9786  -27.3335   18.9122 H   0  0  0  0  0  0
  -23.7970  -30.6227   19.3918 H   0  0  0  0  0  0
  -22.7652  -29.2968   19.8160 H   0  0  0  0  0  0
  -25.1318  -36.1750   25.0762 H   0  0  0  0  0  0
  -21.0122  -28.3394   24.1265 H   0  0  0  0  0  0
  -20.5657  -26.2398   23.3618 H   0  0  0  0  0  0
  -21.6678  -26.7396   22.1210 H   0  0  0  0  0  0
  -19.6938  -25.6254   21.1266 H   0  0  0  0  0  0
  -19.6714  -27.3130   20.6682 H   0  0  0  0  0  0
  -17.4222  -26.6676   21.4018 H   0  0  0  0  0  0
  -18.0364  -26.0064   22.9002 H   0  0  0  0  0  0
  -19.7989  -30.7290   24.2193 H   0  0  0  0  0  0
  -17.5071  -31.6271   24.5150 H   0  0  0  0  0  0
  -15.5398  -30.2972   23.7690 H   0  0  0  0  0  0
  -15.8715  -28.0793   22.7132 H   0  0  0  0  0  0
  -24.5845  -30.7290   25.7812 H   0  0  0  0  0  0
  -24.9126  -32.3065   26.4847 H   0  0  0  0  0  0
  -25.8071  -30.8985   27.0197 H   0  0  0  0  0  0
  -26.3100  -29.6622   24.1349 H   0  0  0  0  0  0
  -27.4147  -29.7302   25.4906 H   0  0  0  0  0  0
  -27.9007  -30.4193   23.9633 H   0  0  0  0  0  0
  -27.2426  -33.3604   26.2177 H   0  0  0  0  0  0
  -28.3849  -32.7131   25.0504 H   0  0  0  0  0  0
  -28.0658  -31.8552   26.5518 H   0  0  0  0  0  0
  -28.2485  -38.0118   24.7586 H   0  0  0  0  0  0
  -28.1135  -36.2666   24.6136 H   0  0  0  0  0  0
  -27.2299  -37.1226   25.8836 H   0  0  0  0  0  0
  -20.9321  -29.8808   21.6717 H   0  0  0  0  0  0
  -26.0072  -38.2739   24.1556 H   0  0  0  0  0  0
  -27.9060  -19.1406   18.9155 H   0  0  0  0  0  0
  -27.3709  -21.2454   19.9612 H   0  0  0  0  0  0
  -26.8006  -19.1551   23.7037 H   0  0  0  0  0  0
  -27.1112  -10.3160   21.1006 H   0  0  0  0  0  0
  -26.8819   -9.4740   22.4791 H   0  0  0  0  0  0
  -24.9784   -7.8189   21.2032 H   0  0  0  0  0  0
  -24.7647   -8.8952   19.9192 H   0  0  0  0  0  0
  -23.1199  -12.5781   23.5298 H   0  0  0  0  0  0
  -23.5209  -11.2690   24.4446 H   0  0  0  0  0  0
  -26.0102  -11.5331   24.0072 H   0  0  0  0  0  0
  -17.9707  -10.2631   22.4414 H   0  0  0  0  0  0
  -18.9129  -11.3650   23.4386 H   0  0  0  0  0  0
  -18.6646   -9.6976   23.9734 H   0  0  0  0  0  0
  -28.1603  -16.8657   18.8686 H   0  0  0  0  0  0
  -27.8384  -15.8669   20.1352 H   0  0  0  0  0  0
  -28.0133  -16.1367   23.4224 H   0  0  0  0  0  0
  -27.6015  -15.4907   21.9965 H   0  0  0  0  0  0
  -20.2359  -10.5231   21.5015 H   0  0  0  0  0  0
  -19.9806   -8.8647   22.0175 H   0  0  0  0  0  0
  -21.4543   -9.2168   24.0086 H   0  0  0  0  0  0
  -21.1856  -10.8870   23.9055 H   0  0  0  0  0  0
  -30.2736  -17.5287   20.7157 H   0  0  0  0  0  0
  -30.3882  -16.5568   19.3186 H   0  0  0  0  0  0
  -25.0783  -15.0793   23.2727 H   0  0  0  0  0  0
  -26.4093  -14.6993   24.2868 H   0  0  0  0  0  0
  -27.1425  -25.1695   22.4829 H   0  0  0  0  0  0
  -26.2967  -24.5650   21.1081 H   0  0  0  0  0  0
  -28.5663  -23.2265   22.6291 H   0  0  0  0  0  0
  -28.4837  -22.7944   21.0067 H   0  0  0  0  0  0
  -30.3077  -15.6344   22.0172 H   0  0  0  0  0  0
  -26.0962  -13.2402   21.7303 H   0  0  0  0  0  0
  -27.2814  -13.0119   22.8610 H   0  0  0  0  0  0
  1 25  1  0  0  0
  1 30  2  0  0  0
  1 91  1  0  0  0
  2  3  1  0  0  0
  2 25  1  0  0  0
  2 94  1  0  0  0
  2 95  1  0  0  0
  3  4  1  0  0  0
  3 96  1  0  0  0
  3 97  1  0  0  0
  4  5  1  0  0  0
  4 98  1  0  0  0
  4 99  1  0  0  0
  5  6  1  0  0  0
  5 26  1  0  0  0
  5100  1  0  0  0
  6 25  1  0  0  0
  6101  1  0  0  0
  6102  1  0  0  0
  7  8  2  0  0  0
  7 26  1  0  0  0
  7 29  1  0  0  0
  8  9  1  0  0  0
  8 22  1  0  0  0
  9 10  1  0  0  0
  9 27  2  0  0  0
 10 11  2  0  0  0
 10 15  1  0  0  0
 11 12  1  0  0  0
 11103  1  0  0  0
 12 13  2  0  0  0
 12104  1  0  0  0
 13 14  1  0  0  0
 13 31  1  0  0  0
 14 15  2  0  0  0
 14105  1  0  0  0
 15106  1  0  0  0
 16 17  2  0  0  0
 16 21  1  0  0  0
 16 31  1  0  0  0
 17 18  1  0  0  0
 17107  1  0  0  0
 18 19  2  0  0  0
 18108  1  0  0  0
 19 20  1  0  0  0
 19 24  1  0  0  0
 20 21  2  0  0  0
 20109  1  0  0  0
 21 23  1  0  0  0
 22 28  1  0  0  0
 22 32  2  0  0  0
 26 27  1  0  0  0
 28110  1  0  0  0
 28111  1  0  0  0
 29112  1  0  0  0
 29113  1  0  0  0
 33 34  1  0  0  0
 33 66  1  0  0  0
 33 70  2  0  0  0
 34 36  1  0  0  0
 34 59  1  0  0  0
 34114  1  0  0  0
 35 44  2  0  0  0
 35 45  1  0  0  0
 35 68  1  0  0  0
 36 56  1  0  0  0
 36115  1  0  0  0
 37 39  1  0  0  0
 37 47  1  0  0  0
 37 66  1  0  0  0
 37116  1  0  0  0
 38 43  2  0  0  0
 38 46  1  0  0  0
 38 47  1  0  0  0
 39 64  1  0  0  0
 39 67  2  0  0  0
 40 52  1  0  0  0
 40 53  2  0  0  0
 40 58  1  0  0  0
 41117  1  0  0  0
 41118  1  0  0  0
 41119  1  0  0  0
 41 48  1  0  0  0
 42 43  1  0  0  0
 42 66  1  0  0  0
 42120  1  0  0  0
 42121  1  0  0  0
 43 44  1  0  0  0
 44122  1  0  0  0
 45 46  2  0  0  0
 45123  1  0  0  0
 46124  1  0  0  0
 47125  1  0  0  0
 47126  1  0  0  0
 48 56  1  0  0  0
 48 65  1  0  0  0
 48127  1  0  0  0
 49 50  1  0  0  0
 49 53  1  0  0  0
 49 64  1  0  0  0
 49128  1  0  0  0
 50 51  1  0  0  0
 50129  1  0  0  0
 50130  1  0  0  0
 51 52  1  0  0  0
 51131  1  0  0  0
 51132  1  0  0  0
 52133  1  0  0  0
 52134  1  0  0  0
 53 54  1  0  0  0
 54 55  2  0  0  0
 54135  1  0  0  0
 55 57  1  0  0  0
 55136  1  0  0  0
 56 69  2  0  0  0
 57 58  2  0  0  0
 57137  1  0  0  0
 58138  1  0  0  0
 59 60  1  0  0  0
 59 61  1  0  0  0
 59 62  1  0  0  0
 60139  1  0  0  0
 60140  1  0  0  0
 60141  1  0  0  0
 61142  1  0  0  0
 61143  1  0  0  0
 61144  1  0  0  0
 62145  1  0  0  0
 62146  1  0  0  0
 62147  1  0  0  0
 63 65  1  0  0  0
 63148  1  0  0  0
 63149  1  0  0  0
 63150  1  0  0  0
 64151  1  0  0  0
 65152  1  0  0  0
 68 88  1  0  0  0
 71 72  2  0  0  0
 71 74  1  0  0  0
 71153  1  0  0  0
 72 76  1  0  0  0
 72154  1  0  0  0
 73 75  1  0  0  0
 73 76  2  0  0  0
 73155  1  0  0  0
 74 75  2  0  0  0
 74 82  1  0  0  0
 75 83  1  0  0  0
 76 93  1  0  0  0
 77 78  1  0  0  0
 77 80  1  0  0  0
 77156  1  0  0  0
 77157  1  0  0  0
 78 90  1  0  0  0
 78158  1  0  0  0
 78159  1  0  0  0
 79 80  1  0  0  0
 79 90  1  0  0  0
 79160  1  0  0  0
 79161  1  0  0  0
 80 92  1  0  0  0
 80162  1  0  0  0
 81 84  1  0  0  0
 81163  1  0  0  0
 81164  1  0  0  0
 81165  1  0  0  0
 82 86  1  0  0  0
 82166  1  0  0  0
 82167  1  0  0  0
 83 87  1  0  0  0
 83168  1  0  0  0
 83169  1  0  0  0
 84 85  1  0  0  0
 84170  1  0  0  0
 84171  1  0  0  0
 85 90  1  0  0  0
 85172  1  0  0  0
 85173  1  0  0  0
 86 91  1  0  0  0
 86174  1  0  0  0
 86175  1  0  0  0
 87 92  1  0  0  0
 87176  1  0  0  0
 87177  1  0  0  0
 88 89  1  0  0  0
 88178  1  0  0  0
 88179  1  0  0  0
 89 93  1  0  0  0
 89180  1  0  0  0
 89181  1  0  0  0
 91182  1  0  0  0
 92183  1  0  0  0
 92184  1  0  0  0
M  CHG  1  92   1
M  ISO  4   1 100  68 101  88 101  91 100
M  END
> <chiral flag>
0

> <version>
0

> <s_m_source_file>
/data/baiqing/PycharmProjects/Reinvent-master-3.2/result/LINK_invent/BTK/process_docking_weight1_custom_sum_contain_oxygen_bond_distance_aromatic_linkinvent_7_9_3/rearranged_h_0139.sdf

> <i_m_source_file_index>
18

> <r_mmod_Potential_Energy-OPLS-2005>
12873.146484375

> <r_mmod_Stretch_Energy-OPLS-2005>
8103.71630859375

> <r_mmod_Bend_Energy-OPLS-2005>
786.440490722656

> <r_mmod_Torsional_Energy-OPLS-2005>
497.963348388672

> <r_mmod_Improper_Torsional_Energy-OPLS-2005>
14.7942867279053

> <r_mmod_Van_der_Waal_Energy-OPLS-2005>
3586.6494140625

> <r_mmod_Electrostatic_Energy-OPLS-2005>
-344.540863037109

> <r_mmod_Solvation_Energy-OPLS-2005>
-432.839721679688

> <b_mmod_Minimization_Converged-OPLS-2005>
0

> <r_mmod_RMS_Derivative-OPLS-2005>
29.4286289215088

$$$$
18
                    3D
 Structure written by MMmdl.
166175  0  0  1  0            999 V2000
  -30.7089  -14.4485   20.5709 C   0  0  0  0  0  0
  -30.4176  -12.2890   19.4241 C   0  0  0  0  0  0
  -29.4932  -12.5031   18.2078 C   0  0  0  0  0  0
  -28.0134  -12.3695   18.6180 C   0  0  0  0  0  0
  -27.6627  -13.2062   19.8783 C   0  0  2  0  0  0
  -28.7025  -12.9776   20.9994 C   0  0  0  0  0  0
  -25.2588  -13.8163   20.5682 C   0  0  0  0  0  0
  -24.1835  -13.0439   20.9169 C   0  0  0  0  0  0
  -24.6390  -11.6906   20.8735 C   0  0  0  0  0  0
  -23.9057  -10.4289   21.0402 C   0  0  0  0  0  0
  -24.3614   -9.4204   21.9180 C   0  0  0  0  0  0
  -23.6292   -8.2240   22.0754 C   0  0  0  0  0  0
  -22.4272   -8.0277   21.3548 C   0  0  0  0  0  0
  -21.9905   -9.0246   20.4647 C   0  0  0  0  0  0
  -22.7234  -10.2125   20.3051 C   0  0  0  0  0  0
  -21.6851   -6.0735   22.5282 C   0  0  0  0  0  0
  -21.4012   -6.5638   23.8217 C   0  0  0  0  0  0
  -21.3658   -5.6786   24.9178 C   0  0  0  0  0  0
  -21.6042   -4.3051   24.7223 C   0  0  0  0  0  0
  -21.8818   -3.8145   23.4344 C   0  0  0  0  0  0
  -21.9193   -4.6963   22.3403 C   0  0  0  0  0  0
  -22.7858  -13.5236   21.1838 C   0  0  0  0  0  0
  -22.1658   -4.2150   21.0978 F   0  0  0  0  0  0
  -21.5629   -3.4531   25.7733 F   0  0  0  0  0  0
  -30.0373  -13.2721   20.4508 N   0  0  0  0  0  0
  -26.3028  -12.9333   20.3382 N   0  0  0  0  0  0
  -25.9317  -11.6492   20.5778 N   0  0  0  0  0  0
  -22.0501  -12.8220   22.0391 N   0  0  0  0  0  0
  -25.4328  -15.1880   20.4094 N   0  0  0  0  0  0
  -31.8400  -14.6099   20.1042 O   0  0  0  0  0  0
  -21.6638   -6.8875   21.4243 O   0  0  0  0  0  0
  -22.3547  -14.5555   20.6709 O   0  0  0  0  0  0
  -24.6110  -31.8697   23.2120 C   0  0  0  0  0  0
  -25.9013  -32.4835   23.8411 C   0  0  1  0  0  0
  -27.2470  -27.4523   20.1068 C   0  0  0  0  0  0
  -25.5879  -33.8633   24.2344 N   0  0  0  0  0  0
  -23.3995  -30.4910   21.5501 C   0  0  2  0  0  0
  -24.8514  -28.9562   20.1185 C   0  0  0  0  0  0
  -22.7397  -29.4661   22.4998 C   0  0  0  0  0  0
  -18.0265  -28.1384   22.8495 C   0  0  0  0  0  0
  -24.1480  -36.7316   23.2629 C   0  0  0  0  0  0
  -25.9240  -30.8414   21.3627 C   0  0  0  0  0  0
  -26.0053  -29.4724   20.7213 C   0  0  0  0  0  0
  -27.2041  -28.7272   20.7225 C   0  0  0  0  0  0
  -26.0825  -26.9552   19.4884 C   0  0  0  0  0  0
  -24.8830  -27.6934   19.5008 C   0  0  0  0  0  0
  -23.6103  -29.8188   20.1656 C   0  0  0  0  0  0
  -25.4092  -36.3118   24.0343 C   0  0  1  0  0  0
  -20.5855  -28.3662   23.1330 C   0  0  2  0  0  0
  -20.6760  -26.9399   22.5428 C   0  0  0  0  0  0
  -19.5746  -26.6392   21.5219 C   0  0  0  0  0  0
  -18.1918  -26.7934   22.1617 C   0  0  0  0  0  0
  -19.1515  -28.8837   23.2912 C   0  0  0  0  0  0
  -18.9448  -30.1444   23.8921 C   0  0  0  0  0  0
  -17.6453  -30.6591   24.0572 C   0  0  0  0  0  0
  -25.9028  -34.9486   23.5144 C   0  0  0  0  0  0
  -16.5341  -29.9097   23.6326 C   0  0  0  0  0  0
  -16.7255  -28.6515   23.0342 C   0  0  0  0  0  0
  -26.4461  -31.6599   25.0717 C   0  0  0  0  0  0
  -25.3747  -31.3702   26.1487 C   0  0  0  0  0  0
  -27.0278  -30.3046   24.6057 C   0  0  0  0  0  0
  -27.6051  -32.4305   25.7470 C   0  0  0  0  0  0
  -27.5602  -37.1776   24.8432 C   0  0  0  0  0  0
  -21.4127  -29.3030   22.3738 N   0  0  0  0  0  0
  -26.4265  -37.3817   23.9449 N   0  0  0  0  0  0
  -24.6627  -31.0816   22.1008 N   0  0  0  0  0  0
  -23.4185  -28.8203   23.3027 O   0  0  0  0  0  0
  -28.3766  -26.6653   20.0518 O   0  0  0  0  0  0
  -26.5592  -34.8933   22.4707 O   0  0  0  0  0  0
  -23.5310  -32.1431   23.7535 O   0  0  0  0  0  0
  -29.4832  -19.1209   21.6993 C   0  0  0  0  0  0
  -29.3843  -17.7158   21.8106 C   0  0  0  0  0  0
  -31.0668  -17.4701   20.0862 C   0  0  0  0  0  0
  -30.3800  -19.7219   20.7859 C   0  0  0  0  0  0
  -31.1736  -18.8736   19.9681 C   0  0  0  0  0  0
  -30.1817  -16.8675   21.0132 C   0  0  0  0  0  0
  -29.2209  -21.9649   20.2137 C   0  0  0  0  0  0
  -30.8963  -21.8985   22.0446 C   0  0  0  0  0  0
  -29.4644  -23.4867   20.0438 C   0  0  0  0  0  0
  -31.1565  -23.4062   21.8549 C   0  0  0  0  0  0
  -30.4925  -21.2558   20.7113 C   0  0  1  0  0  0
  -32.1564  -19.4255   18.9462 C   0  0  0  0  0  0
  -30.3223  -25.5867   21.0779 C   0  0  0  0  0  0
  -29.1436  -26.5695   21.2507 C   0  0  0  0  0  0
  -30.0140  -15.4502   21.1490 N   0  0  0  0  0  0
  -29.9902  -24.1408   21.2799 N   0  3  1  0  0  0
  -31.4637  -12.3747   19.1254 H   0  0  0  0  0  0
  -30.3060  -11.2772   19.8163 H   0  0  0  0  0  0
  -29.7299  -11.7826   17.4237 H   0  0  0  0  0  0
  -29.6680  -13.4910   17.7790 H   0  0  0  0  0  0
  -27.8181  -11.3135   18.8092 H   0  0  0  0  0  0
  -27.3648  -12.6510   17.7875 H   0  0  0  0  0  0
  -27.7106  -14.2560   19.5875 H   0  0  0  0  0  0
  -28.6706  -11.9412   21.3386 H   0  0  0  0  0  0
  -28.4656  -13.5749   21.8806 H   0  0  0  0  0  0
  -25.2761   -9.5680   22.4748 H   0  0  0  0  0  0
  -24.0005   -7.4628   22.7468 H   0  0  0  0  0  0
  -21.0839   -8.8758   19.8949 H   0  0  0  0  0  0
  -22.3697  -10.9657   19.6152 H   0  0  0  0  0  0
  -21.2000   -7.6146   23.9725 H   0  0  0  0  0  0
  -21.1477   -6.0512   25.9081 H   0  0  0  0  0  0
  -22.0597   -2.7607   23.2840 H   0  0  0  0  0  0
  -22.4108  -11.9864   22.4754 H   0  0  0  0  0  0
  -21.1120  -13.1244   22.2602 H   0  0  0  0  0  0
  -24.6708  -15.8477   20.5222 H   0  0  0  0  0  0
  -26.2922  -15.6257   20.1012 H   0  0  0  0  0  0
  -26.7087  -32.5569   23.1186 H   0  0  0  0  0  0
  -25.0026  -33.9799   25.0485 H   0  0  0  0  0  0
  -22.6868  -31.3058   21.4088 H   0  0  0  0  0  0
  -23.3766  -35.9621   23.3237 H   0  0  0  0  0  0
  -24.3601  -36.8980   22.2055 H   0  0  0  0  0  0
  -23.7192  -37.6493   23.6664 H   0  0  0  0  0  0
  -26.0272  -31.6022   20.5877 H   0  0  0  0  0  0
  -26.8151  -30.9051   21.9751 H   0  0  0  0  0  0
  -28.0860  -29.1499   21.1815 H   0  0  0  0  0  0
  -26.1042  -25.9881   19.0064 H   0  0  0  0  0  0
  -23.9978  -27.2899   19.0285 H   0  0  0  0  0  0
  -23.7161  -30.5906   19.4026 H   0  0  0  0  0  0
  -22.7373  -29.2337   19.8712 H   0  0  0  0  0  0
  -25.1258  -36.1966   25.0834 H   0  0  0  0  0  0
  -20.9941  -28.3227   24.1452 H   0  0  0  0  0  0
  -20.5663  -26.2273   23.3615 H   0  0  0  0  0  0
  -21.6633  -26.7456   22.1216 H   0  0  0  0  0  0
  -19.6909  -25.6311   21.1228 H   0  0  0  0  0  0
  -19.6693  -27.3221   20.6768 H   0  0  0  0  0  0
  -17.4197  -26.6696   21.4007 H   0  0  0  0  0  0
  -18.0305  -26.0065   22.9002 H   0  0  0  0  0  0
  -19.7926  -30.7249   24.2304 H   0  0  0  0  0  0
  -17.5012  -31.6273   24.5172 H   0  0  0  0  0  0
  -15.5344  -30.3013   23.7646 H   0  0  0  0  0  0
  -15.8651  -28.0851   22.7042 H   0  0  0  0  0  0
  -24.5903  -30.7060   25.7841 H   0  0  0  0  0  0
  -24.8955  -32.2858   26.4962 H   0  0  0  0  0  0
  -25.8116  -30.8858   27.0228 H   0  0  0  0  0  0
  -26.2803  -29.6820   24.1124 H   0  0  0  0  0  0
  -27.4083  -29.7261   25.4487 H   0  0  0  0  0  0
  -27.8625  -30.4385   23.9170 H   0  0  0  0  0  0
  -27.2682  -33.3596   26.2079 H   0  0  0  0  0  0
  -28.3840  -32.6879   25.0278 H   0  0  0  0  0  0
  -28.0739  -31.8405   26.5357 H   0  0  0  0  0  0
  -28.2508  -38.0183   24.7660 H   0  0  0  0  0  0
  -28.1213  -36.2740   24.6011 H   0  0  0  0  0  0
  -27.2368  -37.1111   25.8832 H   0  0  0  0  0  0
  -20.9282  -29.8751   21.6964 H   0  0  0  0  0  0
  -26.0155  -38.2869   24.1571 H   0  0  0  0  0  0
  -28.8613  -19.7394   22.3312 H   0  0  0  0  0  0
  -28.6851  -17.2965   22.5208 H   0  0  0  0  0  0
  -31.6789  -16.8683   19.4330 H   0  0  0  0  0  0
  -28.9181  -21.5431   19.2544 H   0  0  0  0  0  0
  -28.3916  -21.7906   20.9003 H   0  0  0  0  0  0
  -30.1299  -21.7404   22.8039 H   0  0  0  0  0  0
  -31.8045  -21.4257   22.4211 H   0  0  0  0  0  0
  -28.5367  -23.9721   19.7390 H   0  0  0  0  0  0
  -30.1721  -23.6417   19.2276 H   0  0  0  0  0  0
  -32.0218  -23.5439   21.2044 H   0  0  0  0  0  0
  -31.4247  -23.8407   22.8190 H   0  0  0  0  0  0
  -31.2800  -21.5108   20.0054 H   0  0  0  0  0  0
  -32.6436  -18.6284   18.3836 H   0  0  0  0  0  0
  -32.9408  -20.0027   19.4368 H   0  0  0  0  0  0
  -31.6469  -20.0655   18.2254 H   0  0  0  0  0  0
  -31.0532  -25.8746   21.8353 H   0  0  0  0  0  0
  -30.8229  -25.7481   20.1226 H   0  0  0  0  0  0
  -29.5635  -27.5488   21.4812 H   0  0  0  0  0  0
  -28.5160  -26.2849   22.0970 H   0  0  0  0  0  0
  -29.1701  -15.1531   21.6146 H   0  0  0  0  0  0
  -29.2586  -24.0949   21.9756 H   0  0  0  0  0  0
  1 25  1  0  0  0
  1 30  2  0  0  0
  1 85  1  0  0  0
  2  3  1  0  0  0
  2 25  1  0  0  0
  2 87  1  0  0  0
  2 88  1  0  0  0
  3  4  1  0  0  0
  3 89  1  0  0  0
  3 90  1  0  0  0
  4  5  1  0  0  0
  4 91  1  0  0  0
  4 92  1  0  0  0
  5  6  1  0  0  0
  5 26  1  0  0  0
  5 93  1  0  0  0
  6 25  1  0  0  0
  6 94  1  0  0  0
  6 95  1  0  0  0
  7  8  2  0  0  0
  7 26  1  0  0  0
  7 29  1  0  0  0
  8  9  1  0  0  0
  8 22  1  0  0  0
  9 10  1  0  0  0
  9 27  2  0  0  0
 10 11  2  0  0  0
 10 15  1  0  0  0
 11 12  1  0  0  0
 11 96  1  0  0  0
 12 13  2  0  0  0
 12 97  1  0  0  0
 13 14  1  0  0  0
 13 31  1  0  0  0
 14 15  2  0  0  0
 14 98  1  0  0  0
 15 99  1  0  0  0
 16 17  2  0  0  0
 16 21  1  0  0  0
 16 31  1  0  0  0
 17 18  1  0  0  0
 17100  1  0  0  0
 18 19  2  0  0  0
 18101  1  0  0  0
 19 20  1  0  0  0
 19 24  1  0  0  0
 20 21  2  0  0  0
 20102  1  0  0  0
 21 23  1  0  0  0
 22 28  1  0  0  0
 22 32  2  0  0  0
 26 27  1  0  0  0
 28103  1  0  0  0
 28104  1  0  0  0
 29105  1  0  0  0
 29106  1  0  0  0
 33 34  1  0  0  0
 33 66  1  0  0  0
 33 70  2  0  0  0
 34 36  1  0  0  0
 34 59  1  0  0  0
 34107  1  0  0  0
 35 44  2  0  0  0
 35 45  1  0  0  0
 35 68  1  0  0  0
 36 56  1  0  0  0
 36108  1  0  0  0
 37 39  1  0  0  0
 37 47  1  0  0  0
 37 66  1  0  0  0
 37109  1  0  0  0
 38 43  2  0  0  0
 38 46  1  0  0  0
 38 47  1  0  0  0
 39 64  1  0  0  0
 39 67  2  0  0  0
 40 52  1  0  0  0
 40 53  2  0  0  0
 40 58  1  0  0  0
 41110  1  0  0  0
 41111  1  0  0  0
 41112  1  0  0  0
 41 48  1  0  0  0
 42 43  1  0  0  0
 42 66  1  0  0  0
 42113  1  0  0  0
 42114  1  0  0  0
 43 44  1  0  0  0
 44115  1  0  0  0
 45 46  2  0  0  0
 45116  1  0  0  0
 46117  1  0  0  0
 47118  1  0  0  0
 47119  1  0  0  0
 48 56  1  0  0  0
 48 65  1  0  0  0
 48120  1  0  0  0
 49 50  1  0  0  0
 49 53  1  0  0  0
 49 64  1  0  0  0
 49121  1  0  0  0
 50 51  1  0  0  0
 50122  1  0  0  0
 50123  1  0  0  0
 51 52  1  0  0  0
 51124  1  0  0  0
 51125  1  0  0  0
 52126  1  0  0  0
 52127  1  0  0  0
 53 54  1  0  0  0
 54 55  2  0  0  0
 54128  1  0  0  0
 55 57  1  0  0  0
 55129  1  0  0  0
 56 69  2  0  0  0
 57 58  2  0  0  0
 57130  1  0  0  0
 58131  1  0  0  0
 59 60  1  0  0  0
 59 61  1  0  0  0
 59 62  1  0  0  0
 60132  1  0  0  0
 60133  1  0  0  0
 60134  1  0  0  0
 61135  1  0  0  0
 61136  1  0  0  0
 61137  1  0  0  0
 62138  1  0  0  0
 62139  1  0  0  0
 62140  1  0  0  0
 63 65  1  0  0  0
 63141  1  0  0  0
 63142  1  0  0  0
 63143  1  0  0  0
 64144  1  0  0  0
 65145  1  0  0  0
 68 84  1  0  0  0
 71 72  2  0  0  0
 71 74  1  0  0  0
 71146  1  0  0  0
 72 76  1  0  0  0
 72147  1  0  0  0
 73 75  1  0  0  0
 73 76  2  0  0  0
 73148  1  0  0  0
 74 75  2  0  0  0
 74 81  1  0  0  0
 75 82  1  0  0  0
 76 85  1  0  0  0
 77 79  1  0  0  0
 77 81  1  0  0  0
 77149  1  0  0  0
 77150  1  0  0  0
 78 80  1  0  0  0
 78 81  1  0  0  0
 78151  1  0  0  0
 78152  1  0  0  0
 79 86  1  0  0  0
 79153  1  0  0  0
 79154  1  0  0  0
 80 86  1  0  0  0
 80155  1  0  0  0
 80156  1  0  0  0
 81157  1  0  0  0
 82158  1  0  0  0
 82159  1  0  0  0
 82160  1  0  0  0
 83 84  1  0  0  0
 83161  1  0  0  0
 83162  1  0  0  0
 83 86  1  0  0  0
 84163  1  0  0  0
 84164  1  0  0  0
 85165  1  0  0  0
 86166  1  0  0  0
M  CHG  1  86   1
M  ISO  4   1 100  68 101  84 101  85 100
M  END
> <chiral flag>
0

> <version>
0

> <s_m_source_file>
/data/baiqing/PycharmProjects/Reinvent-master-3.2/result/LINK_invent/BTK/process_docking_weight1_custom_sum_contain_oxygen_bond_distance_aromatic_linkinvent_7_9_3/rearranged_h_0139.sdf

> <i_m_source_file_index>
19

> <r_mmod_Potential_Energy-OPLS-2005>
-110.876808166504

> <r_mmod_Stretch_Energy-OPLS-2005>
39.1053009033203

> <r_mmod_Bend_Energy-OPLS-2005>
105.282501220703

> <r_mmod_Torsional_Energy-OPLS-2005>
258.60205078125

> <r_mmod_Improper_Torsional_Energy-OPLS-2005>
2.91473913192749

> <r_mmod_Van_der_Waal_Energy-OPLS-2005>
164.69856262207

> <r_mmod_Electrostatic_Energy-OPLS-2005>
-271.991729736328

> <r_mmod_Solvation_Energy-OPLS-2005>
-419.987182617188

> <b_mmod_Minimization_Converged-OPLS-2005>
0

> <r_mmod_RMS_Derivative-OPLS-2005>
0.812274038791656

$$$$
19
                    3D
 Structure written by MMmdl.
170180  0  0  1  0            999 V2000
  -30.6807  -14.4640   20.6378 C   0  0  0  0  0  0
  -30.4385  -12.3288   19.3972 C   0  0  0  0  0  0
  -29.4956  -12.5446   18.1950 C   0  0  0  0  0  0
  -28.0169  -12.3955   18.6053 C   0  0  0  0  0  0
  -27.6712  -13.1998   19.8850 C   0  0  2  0  0  0
  -28.7136  -12.9214   20.9911 C   0  0  0  0  0  0
  -25.2646  -13.8132   20.5676 C   0  0  0  0  0  0
  -24.1872  -13.0445   20.9183 C   0  0  0  0  0  0
  -24.6401  -11.6902   20.8727 C   0  0  0  0  0  0
  -23.9052  -10.4295   21.0389 C   0  0  0  0  0  0
  -24.3597   -9.4213   21.9170 C   0  0  0  0  0  0
  -23.6289   -8.2244   22.0742 C   0  0  0  0  0  0
  -22.4274   -8.0272   21.3540 C   0  0  0  0  0  0
  -21.9900   -9.0243   20.4639 C   0  0  0  0  0  0
  -22.7211  -10.2129   20.3045 C   0  0  0  0  0  0
  -21.6847   -6.0734   22.5282 C   0  0  0  0  0  0
  -21.4007   -6.5633   23.8219 C   0  0  0  0  0  0
  -21.3664   -5.6779   24.9178 C   0  0  0  0  0  0
  -21.6051   -4.3046   24.7223 C   0  0  0  0  0  0
  -21.8821   -3.8139   23.4342 C   0  0  0  0  0  0
  -21.9191   -4.6961   22.3395 C   0  0  0  0  0  0
  -22.7894  -13.5261   21.1844 C   0  0  0  0  0  0
  -22.1665   -4.2145   21.0979 F   0  0  0  0  0  0
  -21.5639   -3.4529   25.7737 F   0  0  0  0  0  0
  -30.0510  -13.2647   20.4641 N   0  0  0  0  0  0
  -26.3075  -12.9284   20.3384 N   0  0  0  0  0  0
  -25.9324  -11.6451   20.5739 N   0  0  0  0  0  0
  -22.0529  -12.8264   22.0416 N   0  0  0  0  0  0
  -25.4480  -15.1813   20.4085 N   0  0  0  0  0  0
  -31.7151  -14.7729   20.0335 O   0  0  0  0  0  0
  -21.6639   -6.8867   21.4241 O   0  0  0  0  0  0
  -22.3551  -14.5529   20.6646 O   0  0  0  0  0  0
  -24.6115  -31.8676   23.2114 C   0  0  0  0  0  0
  -25.9001  -32.4837   23.8399 C   0  0  1  0  0  0
  -27.2356  -27.4298   20.0842 C   0  0  0  0  0  0
  -25.5863  -33.8634   24.2336 N   0  0  0  0  0  0
  -23.4001  -30.4901   21.5539 C   0  0  2  0  0  0
  -24.8475  -28.9566   20.1179 C   0  0  0  0  0  0
  -22.7404  -29.4636   22.5027 C   0  0  0  0  0  0
  -18.0263  -28.1369   22.8503 C   0  0  0  0  0  0
  -24.1488  -36.7310   23.2637 C   0  0  0  0  0  0
  -25.9298  -30.8281   21.3692 C   0  0  0  0  0  0
  -26.0075  -29.4627   20.7153 C   0  0  0  0  0  0
  -27.2013  -28.7046   20.6998 C   0  0  0  0  0  0
  -26.0510  -26.9421   19.4794 C   0  0  0  0  0  0
  -24.8633  -27.6955   19.5002 C   0  0  0  0  0  0
  -23.6077  -29.8193   20.1707 C   0  0  0  0  0  0
  -25.4115  -36.3119   24.0342 C   0  0  1  0  0  0
  -20.5846  -28.3632   23.1349 C   0  0  2  0  0  0
  -20.6753  -26.9377   22.5425 C   0  0  0  0  0  0
  -19.5738  -26.6374   21.5218 C   0  0  0  0  0  0
  -18.1913  -26.7920   22.1626 C   0  0  0  0  0  0
  -19.1512  -28.8826   23.2911 C   0  0  0  0  0  0
  -18.9444  -30.1439   23.8911 C   0  0  0  0  0  0
  -17.6447  -30.6579   24.0563 C   0  0  0  0  0  0
  -25.9028  -34.9483   23.5135 C   0  0  0  0  0  0
  -16.5334  -29.9082   23.6330 C   0  0  0  0  0  0
  -16.7252  -28.6493   23.0359 C   0  0  0  0  0  0
  -26.4439  -31.6623   25.0727 C   0  0  0  0  0  0
  -25.3701  -31.3727   26.1477 C   0  0  0  0  0  0
  -27.0261  -30.3069   24.6089 C   0  0  0  0  0  0
  -27.6019  -32.4345   25.7478 C   0  0  0  0  0  0
  -27.5590  -37.1814   24.8465 C   0  0  0  0  0  0
  -21.4130  -29.3001   22.3777 N   0  0  0  0  0  0
  -26.4307  -37.3794   23.9406 N   0  0  0  0  0  0
  -24.6654  -31.0762   22.1029 N   0  0  0  0  0  0
  -23.4189  -28.8173   23.3053 O   0  0  0  0  0  0
  -28.4189  -26.7098   20.0929 O   0  0  0  0  0  0
  -26.5589  -34.8917   22.4698 O   0  0  0  0  0  0
  -23.5315  -32.1443   23.7506 O   0  0  0  0  0  0
  -28.0361  -18.8565   21.6136 C   0  0  0  0  0  0
  -28.2254  -16.5183   22.0993 C   0  0  0  0  0  0
  -27.4819  -17.7032   22.1727 C   0  0  0  0  0  0
  -29.2953  -18.7978   20.9918 C   0  0  0  0  0  0
  -29.4907  -16.4995   21.4766 C   0  0  0  0  0  0
  -25.8915  -18.5776   24.0646 C   0  0  0  0  0  0
  -25.7914  -17.0643   24.1051 C   0  0  0  0  0  0
  -28.9141  -20.8481   19.4883 C   0  0  0  0  0  0
  -30.2709  -21.0444   21.6336 C   0  0  0  0  0  0
  -29.2871  -22.3190   19.1814 C   0  0  0  0  0  0
  -30.6163  -22.4865   21.2065 C   0  0  0  0  0  0
  -29.8900  -20.1146   20.4560 C   0  0  1  0  0  0
  -26.1358  -17.7654   22.8191 C   0  0  0  0  0  0
  -29.6582  -24.5763   20.2435 C   0  0  0  0  0  0
  -28.3460  -25.2951   19.8446 C   0  0  0  0  0  0
  -30.0154  -17.6373   20.9272 N   0  0  0  0  0  0
  -30.1321  -15.2323   21.5955 N   0  0  0  0  0  0
  -29.5048  -23.0975   20.4317 N   0  3  1  0  0  0
  -25.0588  -17.8838   21.9174 O   0  0  0  0  0  0
  -31.4772  -12.4644   19.0910 H   0  0  0  0  0  0
  -30.3704  -11.3018   19.7562 H   0  0  0  0  0  0
  -29.7362  -11.8429   17.3964 H   0  0  0  0  0  0
  -29.6595  -13.5405   17.7802 H   0  0  0  0  0  0
  -27.8198  -11.3352   18.7667 H   0  0  0  0  0  0
  -27.3673  -12.7013   17.7835 H   0  0  0  0  0  0
  -27.7324  -14.2581   19.6295 H   0  0  0  0  0  0
  -28.6975  -11.8649   21.2621 H   0  0  0  0  0  0
  -28.4506  -13.4434   21.9100 H   0  0  0  0  0  0
  -25.2741   -9.5697   22.4747 H   0  0  0  0  0  0
  -23.9999   -7.4632   22.7459 H   0  0  0  0  0  0
  -21.0831   -8.8748   19.8949 H   0  0  0  0  0  0
  -22.3656  -10.9664   19.6159 H   0  0  0  0  0  0
  -21.1986   -7.6139   23.9720 H   0  0  0  0  0  0
  -21.1495   -6.0511   25.9084 H   0  0  0  0  0  0
  -22.0594   -2.7604   23.2839 H   0  0  0  0  0  0
  -22.4111  -11.9926   22.4834 H   0  0  0  0  0  0
  -21.1138  -13.1290   22.2580 H   0  0  0  0  0  0
  -24.7654  -15.8715   20.7065 H   0  0  0  0  0  0
  -26.3408  -15.6042   20.1919 H   0  0  0  0  0  0
  -26.7055  -32.5546   23.1148 H   0  0  0  0  0  0
  -25.0026  -33.9811   25.0491 H   0  0  0  0  0  0
  -22.6854  -31.3046   21.4148 H   0  0  0  0  0  0
  -23.3760  -35.9632   23.3313 H   0  0  0  0  0  0
  -24.3577  -36.8909   22.2044 H   0  0  0  0  0  0
  -23.7231  -37.6517   23.6641 H   0  0  0  0  0  0
  -26.0407  -31.5925   20.5996 H   0  0  0  0  0  0
  -26.8174  -30.8816   21.9876 H   0  0  0  0  0  0
  -28.0938  -29.0892   21.1740 H   0  0  0  0  0  0
  -26.0196  -25.9843   18.9796 H   0  0  0  0  0  0
  -23.9695  -27.3047   19.0324 H   0  0  0  0  0  0
  -23.7046  -30.5894   19.4044 H   0  0  0  0  0  0
  -22.7348  -29.2291   19.8859 H   0  0  0  0  0  0
  -25.1302  -36.1978   25.0840 H   0  0  0  0  0  0
  -20.9922  -28.3152   24.1474 H   0  0  0  0  0  0
  -20.5653  -26.2220   23.3588 H   0  0  0  0  0  0
  -21.6621  -26.7430   22.1207 H   0  0  0  0  0  0
  -19.6890  -25.6290   21.1226 H   0  0  0  0  0  0
  -19.6689  -27.3197   20.6761 H   0  0  0  0  0  0
  -17.4190  -26.6678   21.4019 H   0  0  0  0  0  0
  -18.0307  -26.0056   22.9013 H   0  0  0  0  0  0
  -19.7922  -30.7252   24.2280 H   0  0  0  0  0  0
  -17.5006  -31.6269   24.5141 H   0  0  0  0  0  0
  -15.5334  -30.2983   23.7670 H   0  0  0  0  0  0
  -15.8647  -28.0812   22.7086 H   0  0  0  0  0  0
  -24.5854  -30.7105   25.7805 H   0  0  0  0  0  0
  -24.8912  -32.2886   26.4951 H   0  0  0  0  0  0
  -25.8039  -30.8863   27.0221 H   0  0  0  0  0  0
  -26.2802  -29.6856   24.1115 H   0  0  0  0  0  0
  -27.4015  -29.7279   25.4536 H   0  0  0  0  0  0
  -27.8645  -30.4417   23.9249 H   0  0  0  0  0  0
  -27.2643  -33.3632   26.2093 H   0  0  0  0  0  0
  -28.3795  -32.6935   25.0278 H   0  0  0  0  0  0
  -28.0718  -31.8446   26.5359 H   0  0  0  0  0  0
  -28.2615  -38.0103   24.7511 H   0  0  0  0  0  0
  -28.1078  -36.2636   24.6302 H   0  0  0  0  0  0
  -27.2296  -37.1470   25.8862 H   0  0  0  0  0  0
  -20.9287  -29.8723   21.7003 H   0  0  0  0  0  0
  -26.0199  -38.2874   24.1408 H   0  0  0  0  0  0
  -27.4923  -19.7847   21.7019 H   0  0  0  0  0  0
  -27.8055  -15.6273   22.5426 H   0  0  0  0  0  0
  -26.7558  -19.0317   24.5465 H   0  0  0  0  0  0
  -24.9635  -19.1386   24.1493 H   0  0  0  0  0  0
  -24.7972  -16.6355   24.2082 H   0  0  0  0  0  0
  -26.5853  -16.5321   24.6220 H   0  0  0  0  0  0
  -28.8335  -20.2833   18.5598 H   0  0  0  0  0  0
  -27.9067  -20.8660   19.8997 H   0  0  0  0  0  0
  -29.4457  -21.0936   22.3447 H   0  0  0  0  0  0
  -31.1058  -20.6108   22.1835 H   0  0  0  0  0  0
  -28.4852  -22.7663   18.5928 H   0  0  0  0  0  0
  -30.1817  -22.3611   18.5590 H   0  0  0  0  0  0
  -31.5333  -22.4998   20.6143 H   0  0  0  0  0  0
  -30.8205  -23.0775   22.1007 H   0  0  0  0  0  0
  -30.8012  -19.8851   19.8997 H   0  0  0  0  0  0
  -29.9783  -25.0073   21.1931 H   0  0  0  0  0  0
  -30.4504  -24.7971   19.5274 H   0  0  0  0  0  0
  -27.5215  -24.8713   20.4214 H   0  0  0  0  0  0
  -28.1371  -25.1172   18.7889 H   0  0  0  0  0  0
  -29.6173  -14.6371   22.2224 H   0  0  0  0  0  0
  -28.6776  -22.9865   21.0013 H   0  0  0  0  0  0
  -25.2681  -18.6178   21.3519 H   0  0  0  0  0  0
  1 25  1  0  0  0
  1 30  2  0  0  0
  1 87  1  0  0  0
  2  3  1  0  0  0
  2 25  1  0  0  0
  2 90  1  0  0  0
  2 91  1  0  0  0
  3  4  1  0  0  0
  3 92  1  0  0  0
  3 93  1  0  0  0
  4  5  1  0  0  0
  4 94  1  0  0  0
  4 95  1  0  0  0
  5  6  1  0  0  0
  5 26  1  0  0  0
  5 96  1  0  0  0
  6 25  1  0  0  0
  6 97  1  0  0  0
  6 98  1  0  0  0
  7  8  2  0  0  0
  7 26  1  0  0  0
  7 29  1  0  0  0
  8  9  1  0  0  0
  8 22  1  0  0  0
  9 10  1  0  0  0
  9 27  2  0  0  0
 10 11  2  0  0  0
 10 15  1  0  0  0
 11 12  1  0  0  0
 11 99  1  0  0  0
 12 13  2  0  0  0
 12100  1  0  0  0
 13 14  1  0  0  0
 13 31  1  0  0  0
 14 15  2  0  0  0
 14101  1  0  0  0
 15102  1  0  0  0
 16 17  2  0  0  0
 16 21  1  0  0  0
 16 31  1  0  0  0
 17 18  1  0  0  0
 17103  1  0  0  0
 18 19  2  0  0  0
 18104  1  0  0  0
 19 20  1  0  0  0
 19 24  1  0  0  0
 20 21  2  0  0  0
 20105  1  0  0  0
 21 23  1  0  0  0
 22 28  1  0  0  0
 22 32  2  0  0  0
 26 27  1  0  0  0
 28106  1  0  0  0
 28107  1  0  0  0
 29108  1  0  0  0
 29109  1  0  0  0
 33 34  1  0  0  0
 33 66  1  0  0  0
 33 70  2  0  0  0
 34 36  1  0  0  0
 34 59  1  0  0  0
 34110  1  0  0  0
 35 44  2  0  0  0
 35 45  1  0  0  0
 35 68  1  0  0  0
 36 56  1  0  0  0
 36111  1  0  0  0
 37 39  1  0  0  0
 37 47  1  0  0  0
 37 66  1  0  0  0
 37112  1  0  0  0
 38 43  2  0  0  0
 38 46  1  0  0  0
 38 47  1  0  0  0
 39 64  1  0  0  0
 39 67  2  0  0  0
 40 52  1  0  0  0
 40 53  2  0  0  0
 40 58  1  0  0  0
 41113  1  0  0  0
 41114  1  0  0  0
 41115  1  0  0  0
 41 48  1  0  0  0
 42 43  1  0  0  0
 42 66  1  0  0  0
 42116  1  0  0  0
 42117  1  0  0  0
 43 44  1  0  0  0
 44118  1  0  0  0
 45 46  2  0  0  0
 45119  1  0  0  0
 46120  1  0  0  0
 47121  1  0  0  0
 47122  1  0  0  0
 48 56  1  0  0  0
 48 65  1  0  0  0
 48123  1  0  0  0
 49 50  1  0  0  0
 49 53  1  0  0  0
 49 64  1  0  0  0
 49124  1  0  0  0
 50 51  1  0  0  0
 50125  1  0  0  0
 50126  1  0  0  0
 51 52  1  0  0  0
 51127  1  0  0  0
 51128  1  0  0  0
 52129  1  0  0  0
 52130  1  0  0  0
 53 54  1  0  0  0
 54 55  2  0  0  0
 54131  1  0  0  0
 55 57  1  0  0  0
 55132  1  0  0  0
 56 69  2  0  0  0
 57 58  2  0  0  0
 57133  1  0  0  0
 58134  1  0  0  0
 59 60  1  0  0  0
 59 61  1  0  0  0
 59 62  1  0  0  0
 60135  1  0  0  0
 60136  1  0  0  0
 60137  1  0  0  0
 61138  1  0  0  0
 61139  1  0  0  0
 61140  1  0  0  0
 62141  1  0  0  0
 62142  1  0  0  0
 62143  1  0  0  0
 63 65  1  0  0  0
 63144  1  0  0  0
 63145  1  0  0  0
 63146  1  0  0  0
 64147  1  0  0  0
 65148  1  0  0  0
 68 85  1  0  0  0
 71 73  2  0  0  0
 71 74  1  0  0  0
 71149  1  0  0  0
 72 73  1  0  0  0
 72 75  2  0  0  0
 72150  1  0  0  0
 73 83  1  0  0  0
 74 86  2  0  0  0
 74 82  1  0  0  0
 75 86  1  0  0  0
 75 87  1  0  0  0
 76 77  1  0  0  0
 76 83  1  0  0  0
 76151  1  0  0  0
 76152  1  0  0  0
 77 83  1  0  0  0
 77153  1  0  0  0
 77154  1  0  0  0
 78 80  1  0  0  0
 78 82  1  0  0  0
 78155  1  0  0  0
 78156  1  0  0  0
 79 81  1  0  0  0
 79 82  1  0  0  0
 79157  1  0  0  0
 79158  1  0  0  0
 80 88  1  0  0  0
 80159  1  0  0  0
 80160  1  0  0  0
 81 88  1  0  0  0
 81161  1  0  0  0
 81162  1  0  0  0
 82163  1  0  0  0
 83 89  1  0  0  0
 84 85  1  0  0  0
 84164  1  0  0  0
 84165  1  0  0  0
 84 88  1  0  0  0
 85166  1  0  0  0
 85167  1  0  0  0
 87168  1  0  0  0
 88169  1  0  0  0
 89170  1  0  0  0
M  CHG  1  88   1
M  ISO  4   1 100  68 101  85 101  87 100
M  END
> <chiral flag>
0

> <version>
0

> <s_m_source_file>
/data/baiqing/PycharmProjects/Reinvent-master-3.2/result/LINK_invent/BTK/process_docking_weight1_custom_sum_contain_oxygen_bond_distance_aromatic_linkinvent_7_9_3/rearranged_h_0139.sdf

> <i_m_source_file_index>
20

> <r_mmod_Potential_Energy-OPLS-2005>
-368.972595214844

> <r_mmod_Stretch_Energy-OPLS-2005>
42.5512161254883

> <r_mmod_Bend_Energy-OPLS-2005>
119.582420349121

> <r_mmod_Torsional_Energy-OPLS-2005>
293.64697265625

> <r_mmod_Improper_Torsional_Energy-OPLS-2005>
7.24429178237915

> <r_mmod_Van_der_Waal_Energy-OPLS-2005>
149.340667724609

> <r_mmod_Electrostatic_Energy-OPLS-2005>
-516.532165527344

> <r_mmod_Solvation_Energy-OPLS-2005>
-477.863006591797

> <b_mmod_Minimization_Converged-OPLS-2005>
0

> <r_mmod_RMS_Derivative-OPLS-2005>
2.26048469543457

$$$$
20
                    3D
 Structure written by MMmdl.
160169  0  0  1  0            999 V2000
  -30.6657  -14.6588   20.4720 C   0  0  0  0  0  0
  -30.4200  -12.4017   19.4720 C   0  0  0  0  0  0
  -29.5033  -12.4920   18.2341 C   0  0  0  0  0  0
  -28.0278  -12.3343   18.6468 C   0  0  0  0  0  0
  -27.6443  -13.2291   19.8561 C   0  0  2  0  0  0
  -28.6881  -13.1474   20.9922 C   0  0  0  0  0  0
  -25.2517  -13.8204   20.5696 C   0  0  0  0  0  0
  -24.1805  -13.0450   20.9207 C   0  0  0  0  0  0
  -24.6392  -11.6922   20.8753 C   0  0  0  0  0  0
  -23.9067  -10.4295   21.0408 C   0  0  0  0  0  0
  -24.3618   -9.4209   21.9185 C   0  0  0  0  0  0
  -23.6291   -8.2244   22.0754 C   0  0  0  0  0  0
  -22.4275   -8.0282   21.3542 C   0  0  0  0  0  0
  -21.9913   -9.0258   20.4644 C   0  0  0  0  0  0
  -22.7241  -10.2136   20.3055 C   0  0  0  0  0  0
  -21.6855   -6.0735   22.5273 C   0  0  0  0  0  0
  -21.4015   -6.5639   23.8206 C   0  0  0  0  0  0
  -21.3658   -5.6793   24.9171 C   0  0  0  0  0  0
  -21.6043   -4.3054   24.7223 C   0  0  0  0  0  0
  -21.8821   -3.8144   23.4343 C   0  0  0  0  0  0
  -21.9194   -4.6962   22.3398 C   0  0  0  0  0  0
  -22.7825  -13.5226   21.1859 C   0  0  0  0  0  0
  -22.1663   -4.2146   21.0975 F   0  0  0  0  0  0
  -21.5630   -3.4537   25.7737 F   0  0  0  0  0  0
  -29.9984  -13.4625   20.4125 N   0  0  0  0  0  0
  -26.2949  -12.9406   20.3317 N   0  0  0  0  0  0
  -25.9325  -11.6546   20.5779 N   0  0  0  0  0  0
  -22.0478  -12.8215   22.0419 N   0  0  0  0  0  0
  -25.4215  -15.1925   20.4098 N   0  0  0  0  0  0
  -31.8489  -14.7254   20.1332 O   0  0  0  0  0  0
  -21.6641   -6.8878   21.4233 O   0  0  0  0  0  0
  -22.3507  -14.5529   20.6707 O   0  0  0  0  0  0
  -24.6267  -31.8605   23.2029 C   0  0  0  0  0  0
  -25.9115  -32.4779   23.8354 C   0  0  1  0  0  0
  -27.2149  -27.3145   20.1258 C   0  0  0  0  0  0
  -25.5940  -33.8579   24.2284 N   0  0  0  0  0  0
  -23.4200  -30.4837   21.5456 C   0  0  2  0  0  0
  -24.8669  -28.9405   20.1086 C   0  0  0  0  0  0
  -22.7477  -29.4614   22.4929 C   0  0  0  0  0  0
  -18.0285  -28.1380   22.8483 C   0  0  0  0  0  0
  -24.1489  -36.7291   23.2641 C   0  0  0  0  0  0
  -25.9611  -30.7897   21.3756 C   0  0  0  0  0  0
  -26.0355  -29.4166   20.7182 C   0  0  0  0  0  0
  -27.2162  -28.6148   20.7177 C   0  0  0  0  0  0
  -26.0328  -26.9004   19.4747 C   0  0  0  0  0  0
  -24.8674  -27.6881   19.4757 C   0  0  0  0  0  0
  -23.6361  -29.8224   20.1592 C   0  0  0  0  0  0
  -25.4115  -36.3078   24.0331 C   0  0  1  0  0  0
  -20.5887  -28.3687   23.1276 C   0  0  2  0  0  0
  -20.6774  -26.9411   22.5405 C   0  0  0  0  0  0
  -19.5751  -26.6383   21.5205 C   0  0  0  0  0  0
  -18.1927  -26.7921   22.1618 C   0  0  0  0  0  0
  -19.1540  -28.8850   23.2872 C   0  0  0  0  0  0
  -18.9468  -30.1452   23.8888 C   0  0  0  0  0  0
  -17.6469  -30.6586   24.0562 C   0  0  0  0  0  0
  -25.9051  -34.9448   23.5102 C   0  0  0  0  0  0
  -16.5357  -29.9089   23.6330 C   0  0  0  0  0  0
  -16.7271  -28.6506   23.0348 C   0  0  0  0  0  0
  -26.4501  -31.6589   25.0727 C   0  0  0  0  0  0
  -25.3737  -31.3722   26.1454 C   0  0  0  0  0  0
  -27.0350  -30.3020   24.6173 C   0  0  0  0  0  0
  -27.6053  -32.4331   25.7504 C   0  0  0  0  0  0
  -27.5577  -37.1800   24.8468 C   0  0  0  0  0  0
  -21.4191  -29.3042   22.3675 N   0  0  0  0  0  0
  -26.4290  -37.3777   23.9412 N   0  0  0  0  0  0
  -24.6880  -31.0612   22.0986 N   0  0  0  0  0  0
  -23.4196  -28.8147   23.3005 O   0  0  0  0  0  0
  -28.3039  -26.4323   20.1672 O   0  0  0  0  0  0
  -26.5617  -34.8921   22.4663 O   0  0  0  0  0  0
  -23.5431  -32.1413   23.7356 O   0  0  0  0  0  0
  -29.7321  -20.7264   21.7247 C   0  0  0  0  0  0
  -30.1887  -19.3768   21.6618 C   0  0  0  0  0  0
  -28.8951  -21.2723   20.7207 C   0  0  0  0  0  0
  -28.5299  -20.3507   19.6965 C   0  0  0  0  0  0
  -29.8083  -18.5442   20.5755 C   0  0  0  0  0  0
  -26.2498  -21.3809   18.8822 C   0  0  0  0  0  0
  -26.3040  -19.9707   18.3543 C   0  0  0  0  0  0
  -27.5898  -20.7365   18.5904 C   0  0  0  0  0  0
  -31.1198  -18.8657   22.7495 C   0  0  0  0  0  0
  -30.5087  -17.1654   20.2683 C   0  0  0  0  0  0
  -28.0247  -25.0745   20.7088 C   0  0  0  0  0  0
  -28.8299  -23.7706   20.2517 C   0  0  0  0  0  0
  -28.9862  -19.0579   19.6225 N   0  0  0  0  0  0
  -29.9570  -15.8192   20.6637 N   0  0  0  0  0  0
  -28.3134  -22.5478   20.8824 O   0  0  0  0  0  0
  -31.4645  -12.4965   19.1705 H   0  0  0  0  0  0
  -30.3362  -11.4220   19.9459 H   0  0  0  0  0  0
  -29.7711  -11.7223   17.5089 H   0  0  0  0  0  0
  -29.6472  -13.4508   17.7331 H   0  0  0  0  0  0
  -27.8704  -11.2849   18.9004 H   0  0  0  0  0  0
  -27.3726  -12.5422   17.7997 H   0  0  0  0  0  0
  -27.6469  -14.2541   19.4849 H   0  0  0  0  0  0
  -28.7008  -12.1524   21.4387 H   0  0  0  0  0  0
  -28.4383  -13.8405   21.7971 H   0  0  0  0  0  0
  -25.2760   -9.5689   22.4765 H   0  0  0  0  0  0
  -23.9998   -7.4639   22.7475 H   0  0  0  0  0  0
  -21.0844   -8.8776   19.8950 H   0  0  0  0  0  0
  -22.3696  -10.9677   19.6167 H   0  0  0  0  0  0
  -21.2004   -7.6146   23.9708 H   0  0  0  0  0  0
  -21.1480   -6.0523   25.9074 H   0  0  0  0  0  0
  -22.0601   -2.7606   23.2844 H   0  0  0  0  0  0
  -22.4096  -11.9870   22.4798 H   0  0  0  0  0  0
  -21.1098  -13.1240   22.2634 H   0  0  0  0  0  0
  -24.6538  -15.8470   20.5158 H   0  0  0  0  0  0
  -26.2679  -15.6297   20.0684 H   0  0  0  0  0  0
  -26.7197  -32.5456   23.1116 H   0  0  0  0  0  0
  -25.0090  -33.9719   25.0433 H   0  0  0  0  0  0
  -22.7135  -31.3042   21.4048 H   0  0  0  0  0  0
  -23.3747  -35.9625   23.3304 H   0  0  0  0  0  0
  -24.3581  -36.8913   22.2056 H   0  0  0  0  0  0
  -23.7239  -37.6493   23.6664 H   0  0  0  0  0  0
  -26.0907  -31.5536   20.6077 H   0  0  0  0  0  0
  -26.8414  -30.8389   22.0044 H   0  0  0  0  0  0
  -28.1104  -28.9714   21.2102 H   0  0  0  0  0  0
  -25.9978  -25.9451   18.9701 H   0  0  0  0  0  0
  -23.9759  -27.3211   18.9860 H   0  0  0  0  0  0
  -23.7557  -30.6011   19.4048 H   0  0  0  0  0  0
  -22.7555  -29.2546   19.8545 H   0  0  0  0  0  0
  -25.1288  -36.1933   25.0823 H   0  0  0  0  0  0
  -20.9972  -28.3266   24.1401 H   0  0  0  0  0  0
  -20.5674  -26.2301   23.3609 H   0  0  0  0  0  0
  -21.6644  -26.7447   22.1197 H   0  0  0  0  0  0
  -19.6919  -25.6295   21.1239 H   0  0  0  0  0  0
  -19.6686  -27.3192   20.6729 H   0  0  0  0  0  0
  -17.4197  -26.6669   21.4019 H   0  0  0  0  0  0
  -18.0327  -26.0065   22.9016 H   0  0  0  0  0  0
  -19.7951  -30.7259   24.2259 H   0  0  0  0  0  0
  -17.5034  -31.6267   24.5163 H   0  0  0  0  0  0
  -15.5361  -30.2989   23.7664 H   0  0  0  0  0  0
  -15.8669  -28.0828   22.7060 H   0  0  0  0  0  0
  -24.5924  -30.7057   25.7790 H   0  0  0  0  0  0
  -24.8915  -32.2884   26.4872 H   0  0  0  0  0  0
  -25.8070  -30.8919   27.0232 H   0  0  0  0  0  0
  -26.2918  -29.6766   24.1211 H   0  0  0  0  0  0
  -27.4077  -29.7283   25.4667 H   0  0  0  0  0  0
  -27.8774  -30.4325   23.9373 H   0  0  0  0  0  0
  -27.2652  -33.3638   26.2055 H   0  0  0  0  0  0
  -28.3868  -32.6873   25.0335 H   0  0  0  0  0  0
  -28.0702  -31.8470   26.5443 H   0  0  0  0  0  0
  -28.2587  -38.0103   24.7510 H   0  0  0  0  0  0
  -28.1075  -36.2629   24.6292 H   0  0  0  0  0  0
  -27.2288  -37.1441   25.8868 H   0  0  0  0  0  0
  -20.9368  -29.8785   21.6906 H   0  0  0  0  0  0
  -26.0169  -38.2849   24.1422 H   0  0  0  0  0  0
  -30.0170  -21.3504   22.5595 H   0  0  0  0  0  0
  -25.9608  -21.5121   19.9237 H   0  0  0  0  0  0
  -25.9004  -22.1506   18.1976 H   0  0  0  0  0  0
  -25.9893  -19.8163   17.3243 H   0  0  0  0  0  0
  -26.0544  -19.1682   19.0462 H   0  0  0  0  0  0
  -28.1388  -21.0890   17.7195 H   0  0  0  0  0  0
  -31.0562  -19.4847   23.6451 H   0  0  0  0  0  0
  -32.1550  -18.8809   22.4071 H   0  0  0  0  0  0
  -30.8659  -17.8444   23.0361 H   0  0  0  0  0  0
  -31.5249  -17.2350   20.6579 H   0  0  0  0  0  0
  -30.6478  -17.1302   19.1869 H   0  0  0  0  0  0
  -28.1550  -25.1638   21.7875 H   0  0  0  0  0  0
  -26.9719  -24.8213   20.5951 H   0  0  0  0  0  0
  -29.8856  -23.8857   20.4991 H   0  0  0  0  0  0
  -28.7673  -23.6598   19.1688 H   0  0  0  0  0  0
  -28.9773  -15.7667   20.8944 H   0  0  0  0  0  0
  1 25  1  0  0  0
  1 30  2  0  0  0
  1 84  1  0  0  0
  2  3  1  0  0  0
  2 25  1  0  0  0
  2 86  1  0  0  0
  2 87  1  0  0  0
  3  4  1  0  0  0
  3 88  1  0  0  0
  3 89  1  0  0  0
  4  5  1  0  0  0
  4 90  1  0  0  0
  4 91  1  0  0  0
  5  6  1  0  0  0
  5 26  1  0  0  0
  5 92  1  0  0  0
  6 25  1  0  0  0
  6 93  1  0  0  0
  6 94  1  0  0  0
  7  8  2  0  0  0
  7 26  1  0  0  0
  7 29  1  0  0  0
  8  9  1  0  0  0
  8 22  1  0  0  0
  9 10  1  0  0  0
  9 27  2  0  0  0
 10 11  2  0  0  0
 10 15  1  0  0  0
 11 12  1  0  0  0
 11 95  1  0  0  0
 12 13  2  0  0  0
 12 96  1  0  0  0
 13 14  1  0  0  0
 13 31  1  0  0  0
 14 15  2  0  0  0
 14 97  1  0  0  0
 15 98  1  0  0  0
 16 17  2  0  0  0
 16 21  1  0  0  0
 16 31  1  0  0  0
 17 18  1  0  0  0
 17 99  1  0  0  0
 18 19  2  0  0  0
 18100  1  0  0  0
 19 20  1  0  0  0
 19 24  1  0  0  0
 20 21  2  0  0  0
 20101  1  0  0  0
 21 23  1  0  0  0
 22 28  1  0  0  0
 22 32  2  0  0  0
 26 27  1  0  0  0
 28102  1  0  0  0
 28103  1  0  0  0
 29104  1  0  0  0
 29105  1  0  0  0
 33 34  1  0  0  0
 33 66  1  0  0  0
 33 70  2  0  0  0
 34 36  1  0  0  0
 34 59  1  0  0  0
 34106  1  0  0  0
 35 44  2  0  0  0
 35 45  1  0  0  0
 35 68  1  0  0  0
 36 56  1  0  0  0
 36107  1  0  0  0
 37 39  1  0  0  0
 37 47  1  0  0  0
 37 66  1  0  0  0
 37108  1  0  0  0
 38 43  2  0  0  0
 38 46  1  0  0  0
 38 47  1  0  0  0
 39 64  1  0  0  0
 39 67  2  0  0  0
 40 52  1  0  0  0
 40 53  2  0  0  0
 40 58  1  0  0  0
 41109  1  0  0  0
 41110  1  0  0  0
 41111  1  0  0  0
 41 48  1  0  0  0
 42 43  1  0  0  0
 42 66  1  0  0  0
 42112  1  0  0  0
 42113  1  0  0  0
 43 44  1  0  0  0
 44114  1  0  0  0
 45 46  2  0  0  0
 45115  1  0  0  0
 46116  1  0  0  0
 47117  1  0  0  0
 47118  1  0  0  0
 48 56  1  0  0  0
 48 65  1  0  0  0
 48119  1  0  0  0
 49 50  1  0  0  0
 49 53  1  0  0  0
 49 64  1  0  0  0
 49120  1  0  0  0
 50 51  1  0  0  0
 50121  1  0  0  0
 50122  1  0  0  0
 51 52  1  0  0  0
 51123  1  0  0  0
 51124  1  0  0  0
 52125  1  0  0  0
 52126  1  0  0  0
 53 54  1  0  0  0
 54 55  2  0  0  0
 54127  1  0  0  0
 55 57  1  0  0  0
 55128  1  0  0  0
 56 69  2  0  0  0
 57 58  2  0  0  0
 57129  1  0  0  0
 58130  1  0  0  0
 59 60  1  0  0  0
 59 61  1  0  0  0
 59 62  1  0  0  0
 60131  1  0  0  0
 60132  1  0  0  0
 60133  1  0  0  0
 61134  1  0  0  0
 61135  1  0  0  0
 61136  1  0  0  0
 62137  1  0  0  0
 62138  1  0  0  0
 62139  1  0  0  0
 63 65  1  0  0  0
 63140  1  0  0  0
 63141  1  0  0  0
 63142  1  0  0  0
 64143  1  0  0  0
 65144  1  0  0  0
 68 81  1  0  0  0
 71 72  2  0  0  0
 71 73  1  0  0  0
 71145  1  0  0  0
 72 75  1  0  0  0
 72 79  1  0  0  0
 73 74  2  0  0  0
 73 85  1  0  0  0
 74 83  1  0  0  0
 74 78  1  0  0  0
 75 80  1  0  0  0
 75 83  2  0  0  0
 76 77  1  0  0  0
 76 78  1  0  0  0
 76146  1  0  0  0
 76147  1  0  0  0
 77 78  1  0  0  0
 77148  1  0  0  0
 77149  1  0  0  0
 78150  1  0  0  0
 79151  1  0  0  0
 79152  1  0  0  0
 79153  1  0  0  0
 80 84  1  0  0  0
 80154  1  0  0  0
 80155  1  0  0  0
 81 82  1  0  0  0
 81156  1  0  0  0
 81157  1  0  0  0
 82 85  1  0  0  0
 82158  1  0  0  0
 82159  1  0  0  0
 84160  1  0  0  0
M  ISO  4   1 100  68 101  81 101  84 100
M  END
> <chiral flag>
0

> <version>
0

> <s_m_source_file>
/data/baiqing/PycharmProjects/Reinvent-master-3.2/result/LINK_invent/BTK/process_docking_weight1_custom_sum_contain_oxygen_bond_distance_aromatic_linkinvent_7_9_3/rearranged_h_0139.sdf

> <i_m_source_file_index>
21

> <r_mmod_Potential_Energy-OPLS-2005>
-71.2559432983398

> <r_mmod_Stretch_Energy-OPLS-2005>
80.6900405883789

> <r_mmod_Bend_Energy-OPLS-2005>
150.0322265625

> <r_mmod_Torsional_Energy-OPLS-2005>
283.641174316406

> <r_mmod_Improper_Torsional_Energy-OPLS-2005>
8.78290367126465

> <r_mmod_Van_der_Waal_Energy-OPLS-2005>
139.031982421875

> <r_mmod_Electrostatic_Energy-OPLS-2005>
-575.940795898438

> <r_mmod_Solvation_Energy-OPLS-2005>
-215.530395507812

> <b_mmod_Minimization_Converged-OPLS-2005>
0

> <r_mmod_RMS_Derivative-OPLS-2005>
0.963133811950684

$$$$
21
                    3D
 Structure written by MMmdl.
157165  0  0  1  0            999 V2000
  -30.5500  -14.9696   20.3841 C   0  0  0  0  0  0
  -30.4436  -12.5977   19.4975 C   0  0  0  0  0  0
  -29.5325  -12.5432   18.2509 C   0  0  0  0  0  0
  -28.0606  -12.3328   18.6547 C   0  0  0  0  0  0
  -27.6341  -13.2565   19.8297 C   0  0  2  0  0  0
  -28.6761  -13.2997   20.9674 C   0  0  0  0  0  0
  -25.2511  -13.8252   20.5625 C   0  0  0  0  0  0
  -24.1824  -13.0467   20.9200 C   0  0  0  0  0  0
  -24.6446  -11.6954   20.8728 C   0  0  0  0  0  0
  -23.9129  -10.4309   21.0394 C   0  0  0  0  0  0
  -24.3689   -9.4210   21.9152 C   0  0  0  0  0  0
  -23.6359   -8.2238   22.0723 C   0  0  0  0  0  0
  -22.4319   -8.0298   21.3543 C   0  0  0  0  0  0
  -21.9959   -9.0275   20.4635 C   0  0  0  0  0  0
  -22.7296  -10.2150   20.3041 C   0  0  0  0  0  0
  -21.6875   -6.0752   22.5267 C   0  0  0  0  0  0
  -21.4014   -6.5636   23.8209 C   0  0  0  0  0  0
  -21.3669   -5.6777   24.9166 C   0  0  0  0  0  0
  -21.6072   -4.3047   24.7201 C   0  0  0  0  0  0
  -21.8837   -3.8146   23.4310 C   0  0  0  0  0  0
  -21.9209   -4.6979   22.3377 C   0  0  0  0  0  0
  -22.7830  -13.5234   21.1845 C   0  0  0  0  0  0
  -22.1661   -4.2166   21.0952 F   0  0  0  0  0  0
  -21.5656   -3.4526   25.7710 F   0  0  0  0  0  0
  -29.9554  -13.7068   20.3704 N   0  0  0  0  0  0
  -26.2940  -12.9478   20.3172 N   0  0  0  0  0  0
  -25.9378  -11.6606   20.5680 N   0  0  0  0  0  0
  -22.0495  -12.8210   22.0428 N   0  0  0  0  0  0
  -25.4214  -15.1970   20.4013 N   0  0  0  0  0  0
  -31.7501  -15.0225   20.0981 O   0  0  0  0  0  0
  -21.6667   -6.8898   21.4239 O   0  0  0  0  0  0
  -22.3468  -14.5496   20.6649 O   0  0  0  0  0  0
  -24.6456  -31.8434   23.1871 C   0  0  0  0  0  0
  -25.9224  -32.4694   23.8275 C   0  0  1  0  0  0
  -27.2154  -27.1054   20.1522 C   0  0  0  0  0  0
  -25.5986  -33.8498   24.2186 N   0  0  0  0  0  0
  -23.4513  -30.4612   21.5320 C   0  0  2  0  0  0
  -24.9020  -28.8795   20.1177 C   0  0  0  0  0  0
  -22.7600  -29.4542   22.4848 C   0  0  0  0  0  0
  -18.0295  -28.1372   22.8474 C   0  0  0  0  0  0
  -24.1484  -36.7232   23.2634 C   0  0  0  0  0  0
  -26.0117  -30.7035   21.3976 C   0  0  0  0  0  0
  -26.0824  -29.3116   20.7366 C   0  0  0  0  0  0
  -27.2417  -28.4409   20.7357 C   0  0  0  0  0  0
  -26.0102  -26.7887   19.4909 C   0  0  0  0  0  0
  -24.8785  -27.6313   19.4814 C   0  0  0  0  0  0
  -23.6831  -29.7886   20.1537 C   0  0  0  0  0  0
  -25.4123  -36.3020   24.0312 C   0  0  1  0  0  0
  -20.5918  -28.3710   23.1225 C   0  0  2  0  0  0
  -20.6794  -26.9399   22.5411 C   0  0  0  0  0  0
  -19.5772  -26.6343   21.5220 C   0  0  0  0  0  0
  -18.1948  -26.7908   22.1623 C   0  0  0  0  0  0
  -19.1561  -28.8853   23.2837 C   0  0  0  0  0  0
  -18.9486  -30.1462   23.8841 C   0  0  0  0  0  0
  -17.6489  -30.6576   24.0534 C   0  0  0  0  0  0
  -25.9086  -34.9402   23.5046 C   0  0  0  0  0  0
  -16.5370  -29.9059   23.6345 C   0  0  0  0  0  0
  -16.7294  -28.6479   23.0364 C   0  0  0  0  0  0
  -26.4509  -31.6597   25.0755 C   0  0  0  0  0  0
  -25.3677  -31.3833   26.1448 C   0  0  0  0  0  0
  -27.0384  -30.2980   24.6412 C   0  0  0  0  0  0
  -27.6016  -32.4398   25.7541 C   0  0  0  0  0  0
  -27.5565  -37.1778   24.8455 C   0  0  0  0  0  0
  -21.4277  -29.3025   22.3601 N   0  0  0  0  0  0
  -26.4272  -37.3755   23.9402 N   0  0  0  0  0  0
  -24.7217  -31.0258   22.0921 N   0  0  0  0  0  0
  -23.4240  -28.8091   23.3002 O   0  0  0  0  0  0
  -28.2594  -26.0983   20.1675 O   0  0  0  0  0  0
  -26.5654  -34.8893   22.4612 O   0  0  0  0  0  0
  -23.5575  -32.1321   23.7074 O   0  0  0  0  0  0
  -29.7589  -23.3356   19.0043 C   0  0  0  0  0  0
  -30.2317  -20.8912   19.0001 C   0  0  0  0  0  0
  -30.4408  -22.2008   18.4852 C   0  0  0  0  0  0
  -28.8161  -23.2371   20.0482 C   0  0  0  0  0  0
  -29.3491  -20.6208   20.0720 C   0  0  0  0  0  0
  -28.6523  -21.8454   20.5764 C   0  0  0  0  0  0
  -31.3991  -22.3945   17.3157 C   0  0  0  0  0  0
  -28.3337  -21.9131   22.8898 C   0  0  0  0  0  0
  -27.9424  -24.5889   20.4650 C   0  0  0  0  0  0
  -30.0868  -17.6861   20.1194 C   0  0  0  0  0  0
  -29.1589  -19.0373   20.5664 C   0  0  1  0  0  0
  -29.7826  -16.1680   20.4948 N   0  0  0  0  0  0
  -27.7632  -21.6713   21.6070 O   0  0  0  0  0  0
  -29.1883  -19.0260   21.8974 F   0  0  0  0  0  0
  -31.4790  -12.7511   19.1854 H   0  0  0  0  0  0
  -30.4268  -11.6447   20.0294 H   0  0  0  0  0  0
  -29.8539  -11.7446   17.5807 H   0  0  0  0  0  0
  -29.6313  -13.4742   17.6879 H   0  0  0  0  0  0
  -27.9395  -11.2855   18.9387 H   0  0  0  0  0  0
  -27.4081  -12.4884   17.7928 H   0  0  0  0  0  0
  -27.5948  -14.2623   19.4099 H   0  0  0  0  0  0
  -28.7595  -12.3295   21.4597 H   0  0  0  0  0  0
  -28.3740  -14.0172   21.7316 H   0  0  0  0  0  0
  -25.2865   -9.5667   22.4679 H   0  0  0  0  0  0
  -24.0111   -7.4617   22.7385 H   0  0  0  0  0  0
  -21.0908   -8.8801   19.8918 H   0  0  0  0  0  0
  -22.3787  -10.9692   19.6133 H   0  0  0  0  0  0
  -21.1955   -7.6139   23.9723 H   0  0  0  0  0  0
  -21.1497   -6.0478   25.9081 H   0  0  0  0  0  0
  -22.0609   -2.7606   23.2790 H   0  0  0  0  0  0
  -22.4191  -11.9967   22.4917 H   0  0  0  0  0  0
  -21.1069  -13.1135   22.2554 H   0  0  0  0  0  0
  -24.6506  -15.8520   20.4813 H   0  0  0  0  0  0
  -26.2659  -15.6245   20.0414 H   0  0  0  0  0  0
  -26.7284  -32.5278   23.1001 H   0  0  0  0  0  0
  -25.0153  -33.9624   25.0338 H   0  0  0  0  0  0
  -22.7537  -31.2860   21.3715 H   0  0  0  0  0  0
  -23.3780  -35.9529   23.3277 H   0  0  0  0  0  0
  -24.3575  -36.8901   22.2052 H   0  0  0  0  0  0
  -23.7216  -37.6408   23.6702 H   0  0  0  0  0  0
  -26.1856  -31.4610   20.6324 H   0  0  0  0  0  0
  -26.8769  -30.7452   22.0494 H   0  0  0  0  0  0
  -28.1408  -28.7669   21.2393 H   0  0  0  0  0  0
  -25.9177  -25.8455   18.9726 H   0  0  0  0  0  0
  -23.9774  -27.2969   18.9825 H   0  0  0  0  0  0
  -23.8293  -30.5609   19.3965 H   0  0  0  0  0  0
  -22.7998  -29.2346   19.8390 H   0  0  0  0  0  0
  -25.1317  -36.1817   25.0820 H   0  0  0  0  0  0
  -21.0013  -28.3274   24.1347 H   0  0  0  0  0  0
  -20.5675  -26.2311   23.3634 H   0  0  0  0  0  0
  -21.6656  -26.7394   22.1202 H   0  0  0  0  0  0
  -19.6912  -25.6236   21.1280 H   0  0  0  0  0  0
  -19.6692  -27.3118   20.6725 H   0  0  0  0  0  0
  -17.4221  -26.6671   21.4016 H   0  0  0  0  0  0
  -18.0320  -26.0053   22.9018 H   0  0  0  0  0  0
  -19.7966  -30.7294   24.2187 H   0  0  0  0  0  0
  -17.5036  -31.6255   24.5125 H   0  0  0  0  0  0
  -15.5371  -30.2933   23.7697 H   0  0  0  0  0  0
  -15.8708  -28.0774   22.7114 H   0  0  0  0  0  0
  -24.5814  -30.7229   25.7772 H   0  0  0  0  0  0
  -24.8911  -32.3043   26.4825 H   0  0  0  0  0  0
  -25.7944  -30.9022   27.0256 H   0  0  0  0  0  0
  -26.3037  -29.6702   24.1364 H   0  0  0  0  0  0
  -27.3883  -29.7304   25.5040 H   0  0  0  0  0  0
  -27.8994  -30.4196   23.9841 H   0  0  0  0  0  0
  -27.2588  -33.3722   26.2045 H   0  0  0  0  0  0
  -28.3874  -32.6947   25.0418 H   0  0  0  0  0  0
  -28.0639  -31.8588   26.5532 H   0  0  0  0  0  0
  -28.2570  -38.0086   24.7537 H   0  0  0  0  0  0
  -28.1087  -36.2622   24.6254 H   0  0  0  0  0  0
  -27.2293  -37.1398   25.8863 H   0  0  0  0  0  0
  -20.9490  -29.8752   21.6782 H   0  0  0  0  0  0
  -26.0119  -38.2811   24.1448 H   0  0  0  0  0  0
  -29.9397  -24.3072   18.5636 H   0  0  0  0  0  0
  -30.7643  -20.0665   18.5447 H   0  0  0  0  0  0
  -30.8569  -22.4252   16.3706 H   0  0  0  0  0  0
  -32.1320  -21.5905   17.2405 H   0  0  0  0  0  0
  -31.9507  -23.3283   17.4169 H   0  0  0  0  0  0
  -27.5566  -21.9182   23.6552 H   0  0  0  0  0  0
  -28.8561  -22.8695   22.9335 H   0  0  0  0  0  0
  -29.0541  -21.1415   23.1611 H   0  0  0  0  0  0
  -27.8292  -24.5375   21.5484 H   0  0  0  0  0  0
  -26.9418  -24.3638   20.1014 H   0  0  0  0  0  0
  -31.1135  -17.8820   20.4304 H   0  0  0  0  0  0
  -30.1192  -17.6826   19.0282 H   0  0  0  0  0  0
  -28.1238  -18.8051   20.3180 H   0  0  0  0  0  0
  -28.8216  -16.0022   20.7529 H   0  0  0  0  0  0
  1 25  1  0  0  0
  1 30  2  0  0  0
  1 82  1  0  0  0
  2  3  1  0  0  0
  2 25  1  0  0  0
  2 85  1  0  0  0
  2 86  1  0  0  0
  3  4  1  0  0  0
  3 87  1  0  0  0
  3 88  1  0  0  0
  4  5  1  0  0  0
  4 89  1  0  0  0
  4 90  1  0  0  0
  5  6  1  0  0  0
  5 26  1  0  0  0
  5 91  1  0  0  0
  6 25  1  0  0  0
  6 92  1  0  0  0
  6 93  1  0  0  0
  7  8  2  0  0  0
  7 26  1  0  0  0
  7 29  1  0  0  0
  8  9  1  0  0  0
  8 22  1  0  0  0
  9 10  1  0  0  0
  9 27  2  0  0  0
 10 11  2  0  0  0
 10 15  1  0  0  0
 11 12  1  0  0  0
 11 94  1  0  0  0
 12 13  2  0  0  0
 12 95  1  0  0  0
 13 14  1  0  0  0
 13 31  1  0  0  0
 14 15  2  0  0  0
 14 96  1  0  0  0
 15 97  1  0  0  0
 16 17  2  0  0  0
 16 21  1  0  0  0
 16 31  1  0  0  0
 17 18  1  0  0  0
 17 98  1  0  0  0
 18 19  2  0  0  0
 18 99  1  0  0  0
 19 20  1  0  0  0
 19 24  1  0  0  0
 20 21  2  0  0  0
 20100  1  0  0  0
 21 23  1  0  0  0
 22 28  1  0  0  0
 22 32  2  0  0  0
 26 27  1  0  0  0
 28101  1  0  0  0
 28102  1  0  0  0
 29103  1  0  0  0
 29104  1  0  0  0
 33 34  1  0  0  0
 33 66  1  0  0  0
 33 70  2  0  0  0
 34 36  1  0  0  0
 34 59  1  0  0  0
 34105  1  0  0  0
 35 44  2  0  0  0
 35 45  1  0  0  0
 35 68  1  0  0  0
 36 56  1  0  0  0
 36106  1  0  0  0
 37 39  1  0  0  0
 37 47  1  0  0  0
 37 66  1  0  0  0
 37107  1  0  0  0
 38 43  2  0  0  0
 38 46  1  0  0  0
 38 47  1  0  0  0
 39 64  1  0  0  0
 39 67  2  0  0  0
 40 52  1  0  0  0
 40 53  2  0  0  0
 40 58  1  0  0  0
 41108  1  0  0  0
 41109  1  0  0  0
 41110  1  0  0  0
 41 48  1  0  0  0
 42 43  1  0  0  0
 42 66  1  0  0  0
 42111  1  0  0  0
 42112  1  0  0  0
 43 44  1  0  0  0
 44113  1  0  0  0
 45 46  2  0  0  0
 45114  1  0  0  0
 46115  1  0  0  0
 47116  1  0  0  0
 47117  1  0  0  0
 48 56  1  0  0  0
 48 65  1  0  0  0
 48118  1  0  0  0
 49 50  1  0  0  0
 49 53  1  0  0  0
 49 64  1  0  0  0
 49119  1  0  0  0
 50 51  1  0  0  0
 50120  1  0  0  0
 50121  1  0  0  0
 51 52  1  0  0  0
 51122  1  0  0  0
 51123  1  0  0  0
 52124  1  0  0  0
 52125  1  0  0  0
 53 54  1  0  0  0
 54 55  2  0  0  0
 54126  1  0  0  0
 55 57  1  0  0  0
 55127  1  0  0  0
 56 69  2  0  0  0
 57 58  2  0  0  0
 57128  1  0  0  0
 58129  1  0  0  0
 59 60  1  0  0  0
 59 61  1  0  0  0
 59 62  1  0  0  0
 60130  1  0  0  0
 60131  1  0  0  0
 60132  1  0  0  0
 61133  1  0  0  0
 61134  1  0  0  0
 61135  1  0  0  0
 62136  1  0  0  0
 62137  1  0  0  0
 62138  1  0  0  0
 63 65  1  0  0  0
 63139  1  0  0  0
 63140  1  0  0  0
 63141  1  0  0  0
 64142  1  0  0  0
 65143  1  0  0  0
 68 79  1  0  0  0
 71 73  2  0  0  0
 71 74  1  0  0  0
 71144  1  0  0  0
 72 73  1  0  0  0
 72 75  2  0  0  0
 72145  1  0  0  0
 73 77  1  0  0  0
 74 76  2  0  0  0
 74 79  1  0  0  0
 75 76  1  0  0  0
 75 81  1  0  0  0
 76 83  1  0  0  0
 77146  1  0  0  0
 77147  1  0  0  0
 77148  1  0  0  0
 78 83  1  0  0  0
 78149  1  0  0  0
 78150  1  0  0  0
 78151  1  0  0  0
 79152  1  0  0  0
 79153  1  0  0  0
 80 81  1  0  0  0
 80 82  1  0  0  0
 80154  1  0  0  0
 80155  1  0  0  0
 81 84  1  0  0  0
 81156  1  0  0  0
 82157  1  0  0  0
M  ISO  4   1 100  68 101  79 101  82 100
M  END
> <chiral flag>
0

> <version>
0

> <s_m_source_file>
/data/baiqing/PycharmProjects/Reinvent-master-3.2/result/LINK_invent/BTK/process_docking_weight1_custom_sum_contain_oxygen_bond_distance_aromatic_linkinvent_7_9_3/rearranged_h_0139.sdf

> <i_m_source_file_index>
22

> <r_mmod_Potential_Energy-OPLS-2005>
554.213134765625

> <r_mmod_Stretch_Energy-OPLS-2005>
286.214935302734

> <r_mmod_Bend_Energy-OPLS-2005>
246.411895751953

> <r_mmod_Torsional_Energy-OPLS-2005>
259.311584472656

> <r_mmod_Improper_Torsional_Energy-OPLS-2005>
5.56126070022583

> <r_mmod_Van_der_Waal_Energy-OPLS-2005>
124.491340637207

> <r_mmod_Electrostatic_Energy-OPLS-2005>
-367.951324462891

> <r_mmod_Solvation_Energy-OPLS-2005>
-212.39631652832

> <b_mmod_Minimization_Converged-OPLS-2005>
0

> <r_mmod_RMS_Derivative-OPLS-2005>
4.0764365196228

$$$$
22
                    3D
 Structure written by MMmdl.
172181  0  0  1  0            999 V2000
  -30.7280  -14.6148   20.3519 C   0  0  0  0  0  0
  -30.4013  -12.3659   19.4289 C   0  0  0  0  0  0
  -29.4627  -12.4355   18.2092 C   0  0  0  0  0  0
  -27.9993  -12.2920   18.6495 C   0  0  0  0  0  0
  -27.6320  -13.2254   19.8331 C   0  0  2  0  0  0
  -28.6974  -13.1939   20.9494 C   0  0  0  0  0  0
  -25.2490  -13.8212   20.5736 C   0  0  0  0  0  0
  -24.1787  -13.0458   20.9244 C   0  0  0  0  0  0
  -24.6366  -11.6926   20.8798 C   0  0  0  0  0  0
  -23.9054  -10.4297   21.0432 C   0  0  0  0  0  0
  -24.3615   -9.4203   21.9195 C   0  0  0  0  0  0
  -23.6296   -8.2238   22.0754 C   0  0  0  0  0  0
  -22.4281   -8.0276   21.3543 C   0  0  0  0  0  0
  -21.9921   -9.0249   20.4640 C   0  0  0  0  0  0
  -22.7240  -10.2135   20.3058 C   0  0  0  0  0  0
  -21.6850   -6.0737   22.5272 C   0  0  0  0  0  0
  -21.4015   -6.5643   23.8208 C   0  0  0  0  0  0
  -21.3662   -5.6797   24.9174 C   0  0  0  0  0  0
  -21.6041   -4.3060   24.7221 C   0  0  0  0  0  0
  -21.8821   -3.8151   23.4344 C   0  0  0  0  0  0
  -21.9195   -4.6965   22.3397 C   0  0  0  0  0  0
  -22.7800  -13.5220   21.1896 C   0  0  0  0  0  0
  -22.1660   -4.2152   21.0973 F   0  0  0  0  0  0
  -21.5632   -3.4539   25.7738 F   0  0  0  0  0  0
  -29.9951  -13.4630   20.3196 N   0  0  0  0  0  0
  -26.2915  -12.9414   20.3339 N   0  0  0  0  0  0
  -25.9296  -11.6561   20.5847 N   0  0  0  0  0  0
  -22.0452  -12.8190   22.0436 N   0  0  0  0  0  0
  -25.4184  -15.1938   20.4114 N   0  0  0  0  0  0
  -31.9469  -14.5585   20.4501 O   0  0  0  0  0  0
  -21.6644   -6.8876   21.4235 O   0  0  0  0  0  0
  -22.3481  -14.5529   20.6745 O   0  0  0  0  0  0
  -24.6273  -31.8639   23.2061 C   0  0  0  0  0  0
  -25.9138  -32.4801   23.8363 C   0  0  1  0  0  0
  -27.1946  -27.3199   20.1065 C   0  0  0  0  0  0
  -25.5965  -33.8598   24.2269 N   0  0  0  0  0  0
  -23.4182  -30.4917   21.5495 C   0  0  2  0  0  0
  -24.8577  -28.9569   20.1045 C   0  0  0  0  0  0
  -22.7474  -29.4637   22.4920 C   0  0  0  0  0  0
  -18.0279  -28.1375   22.8474 C   0  0  0  0  0  0
  -24.1492  -36.7284   23.2639 C   0  0  0  0  0  0
  -25.9608  -30.7923   21.3789 C   0  0  0  0  0  0
  -26.0300  -29.4240   20.7124 C   0  0  0  0  0  0
  -27.2064  -28.6166   20.7060 C   0  0  0  0  0  0
  -26.0040  -26.9162   19.4568 C   0  0  0  0  0  0
  -24.8466  -27.7099   19.4659 C   0  0  0  0  0  0
  -23.6318  -29.8424   20.1582 C   0  0  0  0  0  0
  -25.4120  -36.3075   24.0306 C   0  0  1  0  0  0
  -20.5881  -28.3693   23.1258 C   0  0  2  0  0  0
  -20.6769  -26.9412   22.5399 C   0  0  0  0  0  0
  -19.5746  -26.6373   21.5198 C   0  0  0  0  0  0
  -18.1919  -26.7930   22.1606 C   0  0  0  0  0  0
  -19.1529  -28.8849   23.2862 C   0  0  0  0  0  0
  -18.9472  -30.1449   23.8890 C   0  0  0  0  0  0
  -17.6481  -30.6592   24.0549 C   0  0  0  0  0  0
  -25.9068  -34.9461   23.5077 C   0  0  0  0  0  0
  -16.5366  -29.9099   23.6322 C   0  0  0  0  0  0
  -16.7273  -28.6506   23.0348 C   0  0  0  0  0  0
  -26.4525  -31.6625   25.0740 C   0  0  0  0  0  0
  -25.3739  -31.3772   26.1448 C   0  0  0  0  0  0
  -27.0371  -30.3042   24.6203 C   0  0  0  0  0  0
  -27.6044  -32.4405   25.7544 C   0  0  0  0  0  0
  -27.5581  -37.1802   24.8466 C   0  0  0  0  0  0
  -21.4184  -29.3065   22.3683 N   0  0  0  0  0  0
  -26.4294  -37.3769   23.9392 N   0  0  0  0  0  0
  -24.6878  -31.0637   22.1021 N   0  0  0  0  0  0
  -23.4206  -28.8134   23.2973 O   0  0  0  0  0  0
  -28.2860  -26.4440   20.1827 O   0  0  0  0  0  0
  -26.5623  -34.8930   22.4636 O   0  0  0  0  0  0
  -23.5432  -32.1451   23.7362 O   0  0  0  0  0  0
  -32.3299  -19.2236   18.3943 C   0  0  0  0  0  0
  -32.7702  -17.9250   18.1715 C   0  0  0  0  0  0
  -31.0885  -19.4101   18.9949 C   0  0  0  0  0  0
  -31.9838  -16.8159   18.5364 C   0  0  0  0  0  0
  -30.3419  -18.3469   19.5469 C   0  0  0  0  0  0
  -30.8172  -16.9733   19.3807 C   0  0  0  0  0  0
  -32.7791  -15.5599   16.3775 C   0  0  0  0  0  0
  -31.6112  -14.7718   16.8893 C   0  0  0  0  0  0
  -32.4653  -15.5467   17.8660 C   0  0  0  0  0  0
  -31.1641  -21.0553   23.2162 C   0  0  0  0  0  0
  -28.9946  -18.8229   20.1384 C   0  0  0  0  0  0
  -29.9771  -21.8538   22.6453 C   0  0  0  0  0  0
  -28.9620  -19.9381   21.2734 C   0  0  0  0  0  0
  -28.9854  -23.9613   20.6998 C   0  0  0  0  0  0
  -27.9980  -24.9969   20.0369 C   0  0  0  0  0  0
  -29.5336  -21.4412   21.2091 C   0  0  1  0  0  0
  -30.1372  -15.7881   19.9419 N   0  0  0  0  0  0
  -28.5965  -22.4850   20.6137 N   0  3  0  0  0  0
  -31.4414  -12.4501   19.1067 H   0  0  0  0  0  0
  -30.3137  -11.4042   19.9360 H   0  0  0  0  0  0
  -29.7176  -11.6595   17.4863 H   0  0  0  0  0  0
  -29.5650  -13.3881   17.6952 H   0  0  0  0  0  0
  -27.8512  -11.2509   18.9381 H   0  0  0  0  0  0
  -27.3308  -12.4703   17.8068 H   0  0  0  0  0  0
  -27.6181  -14.2363   19.4258 H   0  0  0  0  0  0
  -28.7103  -12.2260   21.4536 H   0  0  0  0  0  0
  -28.4781  -13.9447   21.7097 H   0  0  0  0  0  0
  -25.2753   -9.5692   22.4774 H   0  0  0  0  0  0
  -24.0011   -7.4629   22.7465 H   0  0  0  0  0  0
  -21.0861   -8.8759   19.8927 H   0  0  0  0  0  0
  -22.3693  -10.9680   19.6172 H   0  0  0  0  0  0
  -21.2003   -7.6148   23.9713 H   0  0  0  0  0  0
  -21.1483   -6.0526   25.9078 H   0  0  0  0  0  0
  -22.0599   -2.7610   23.2841 H   0  0  0  0  0  0
  -22.4086  -11.9835   22.4788 H   0  0  0  0  0  0
  -21.1057  -13.1183   22.2646 H   0  0  0  0  0  0
  -24.6532  -15.8497   20.5244 H   0  0  0  0  0  0
  -26.2711  -15.6327   20.0911 H   0  0  0  0  0  0
  -26.7220  -32.5481   23.1114 H   0  0  0  0  0  0
  -25.0136  -33.9740   25.0431 H   0  0  0  0  0  0
  -22.7137  -31.3142   21.4137 H   0  0  0  0  0  0
  -23.3750  -35.9629   23.3319 H   0  0  0  0  0  0
  -24.3574  -36.8913   22.2058 H   0  0  0  0  0  0
  -23.7259  -37.6482   23.6671 H   0  0  0  0  0  0
  -26.0975  -31.5607   20.6176 H   0  0  0  0  0  0
  -26.8381  -30.8330   22.0108 H   0  0  0  0  0  0
  -28.1065  -28.9619   21.1971 H   0  0  0  0  0  0
  -25.9248  -25.9718   18.9374 H   0  0  0  0  0  0
  -23.9503  -27.3540   18.9750 H   0  0  0  0  0  0
  -23.7637  -30.6276   19.4138 H   0  0  0  0  0  0
  -22.7474  -29.2836   19.8460 H   0  0  0  0  0  0
  -25.1305  -36.1920   25.0797 H   0  0  0  0  0  0
  -20.9973  -28.3308   24.1364 H   0  0  0  0  0  0
  -20.5654  -26.2320   23.3623 H   0  0  0  0  0  0
  -21.6639  -26.7432   22.1203 H   0  0  0  0  0  0
  -19.6897  -25.6269   21.1275 H   0  0  0  0  0  0
  -19.6689  -27.3146   20.6703 H   0  0  0  0  0  0
  -17.4186  -26.6685   21.4011 H   0  0  0  0  0  0
  -18.0286  -26.0070   22.8991 H   0  0  0  0  0  0
  -19.7963  -30.7225   24.2294 H   0  0  0  0  0  0
  -17.5055  -31.6281   24.5157 H   0  0  0  0  0  0
  -15.5377  -30.3007   23.7645 H   0  0  0  0  0  0
  -15.8663  -28.0838   22.7068 H   0  0  0  0  0  0
  -24.5923  -30.7113   25.7781 H   0  0  0  0  0  0
  -24.8916  -32.2951   26.4842 H   0  0  0  0  0  0
  -25.8059  -30.8988   27.0255 H   0  0  0  0  0  0
  -26.2936  -29.6803   24.1229 H   0  0  0  0  0  0
  -27.4056  -29.7296   25.4718 H   0  0  0  0  0  0
  -27.8822  -30.4303   23.9420 H   0  0  0  0  0  0
  -27.2593  -33.3719   26.2043 H   0  0  0  0  0  0
  -28.3898  -32.6985   25.0428 H   0  0  0  0  0  0
  -28.0654  -31.8605   26.5546 H   0  0  0  0  0  0
  -28.2586  -38.0121   24.7513 H   0  0  0  0  0  0
  -28.1098  -36.2641   24.6292 H   0  0  0  0  0  0
  -27.2287  -37.1431   25.8872 H   0  0  0  0  0  0
  -20.9346  -29.8883   21.6978 H   0  0  0  0  0  0
  -26.0178  -38.2835   24.1428 H   0  0  0  0  0  0
  -32.8954  -20.0674   18.0223 H   0  0  0  0  0  0
  -33.6895  -17.7855   17.6195 H   0  0  0  0  0  0
  -30.7015  -20.4113   18.9826 H   0  0  0  0  0  0
  -32.5497  -16.4568   15.8034 H   0  0  0  0  0  0
  -33.6309  -14.9839   16.0216 H   0  0  0  0  0  0
  -31.7197  -13.6895   16.8610 H   0  0  0  0  0  0
  -30.6200  -15.1574   16.6579 H   0  0  0  0  0  0
  -33.2198  -15.0336   18.4589 H   0  0  0  0  0  0
  -31.9665  -20.9619   22.4825 H   0  0  0  0  0  0
  -30.8940  -20.0523   23.5422 H   0  0  0  0  0  0
  -31.5784  -21.5642   24.0871 H   0  0  0  0  0  0
  -28.4722  -17.9437   20.5127 H   0  0  0  0  0  0
  -28.3910  -19.1681   19.2981 H   0  0  0  0  0  0
  -30.3253  -22.8830   22.6525 H   0  0  0  0  0  0
  -29.1311  -21.8090   23.3324 H   0  0  0  0  0  0
  -29.4501  -19.4293   22.0998 H   0  0  0  0  0  0
  -27.9285  -20.0144   21.6092 H   0  0  0  0  0  0
  -29.0358  -24.2558   21.7455 H   0  0  0  0  0  0
  -29.9822  -24.0965   20.2819 H   0  0  0  0  0  0
  -27.0218  -24.7789   20.4768 H   0  0  0  0  0  0
  -27.9206  -24.7748   18.9718 H   0  0  0  0  0  0
  -30.4544  -21.4871   20.6381 H   0  0  0  0  0  0
  -29.1293  -15.8023   19.9493 H   0  0  0  0  0  0
  -28.4746  -22.2508   19.6384 H   0  0  0  0  0  0
  -27.6914  -22.3726   21.0453 H   0  0  0  0  0  0
  1 25  1  0  0  0
  1 30  2  0  0  0
  1 87  1  0  0  0
  2  3  1  0  0  0
  2 25  1  0  0  0
  2 89  1  0  0  0
  2 90  1  0  0  0
  3  4  1  0  0  0
  3 91  1  0  0  0
  3 92  1  0  0  0
  4  5  1  0  0  0
  4 93  1  0  0  0
  4 94  1  0  0  0
  5  6  1  0  0  0
  5 26  1  0  0  0
  5 95  1  0  0  0
  6 25  1  0  0  0
  6 96  1  0  0  0
  6 97  1  0  0  0
  7  8  2  0  0  0
  7 26  1  0  0  0
  7 29  1  0  0  0
  8  9  1  0  0  0
  8 22  1  0  0  0
  9 10  1  0  0  0
  9 27  2  0  0  0
 10 11  2  0  0  0
 10 15  1  0  0  0
 11 12  1  0  0  0
 11 98  1  0  0  0
 12 13  2  0  0  0
 12 99  1  0  0  0
 13 14  1  0  0  0
 13 31  1  0  0  0
 14 15  2  0  0  0
 14100  1  0  0  0
 15101  1  0  0  0
 16 17  2  0  0  0
 16 21  1  0  0  0
 16 31  1  0  0  0
 17 18  1  0  0  0
 17102  1  0  0  0
 18 19  2  0  0  0
 18103  1  0  0  0
 19 20  1  0  0  0
 19 24  1  0  0  0
 20 21  2  0  0  0
 20104  1  0  0  0
 21 23  1  0  0  0
 22 28  1  0  0  0
 22 32  2  0  0  0
 26 27  1  0  0  0
 28105  1  0  0  0
 28106  1  0  0  0
 29107  1  0  0  0
 29108  1  0  0  0
 33 34  1  0  0  0
 33 66  1  0  0  0
 33 70  2  0  0  0
 34 36  1  0  0  0
 34 59  1  0  0  0
 34109  1  0  0  0
 35 44  2  0  0  0
 35 45  1  0  0  0
 35 68  1  0  0  0
 36 56  1  0  0  0
 36110  1  0  0  0
 37 39  1  0  0  0
 37 47  1  0  0  0
 37 66  1  0  0  0
 37111  1  0  0  0
 38 43  2  0  0  0
 38 46  1  0  0  0
 38 47  1  0  0  0
 39 64  1  0  0  0
 39 67  2  0  0  0
 40 52  1  0  0  0
 40 53  2  0  0  0
 40 58  1  0  0  0
 41112  1  0  0  0
 41113  1  0  0  0
 41114  1  0  0  0
 41 48  1  0  0  0
 42 43  1  0  0  0
 42 66  1  0  0  0
 42115  1  0  0  0
 42116  1  0  0  0
 43 44  1  0  0  0
 44117  1  0  0  0
 45 46  2  0  0  0
 45118  1  0  0  0
 46119  1  0  0  0
 47120  1  0  0  0
 47121  1  0  0  0
 48 56  1  0  0  0
 48 65  1  0  0  0
 48122  1  0  0  0
 49 50  1  0  0  0
 49 53  1  0  0  0
 49 64  1  0  0  0
 49123  1  0  0  0
 50 51  1  0  0  0
 50124  1  0  0  0
 50125  1  0  0  0
 51 52  1  0  0  0
 51126  1  0  0  0
 51127  1  0  0  0
 52128  1  0  0  0
 52129  1  0  0  0
 53 54  1  0  0  0
 54 55  2  0  0  0
 54130  1  0  0  0
 55 57  1  0  0  0
 55131  1  0  0  0
 56 69  2  0  0  0
 57 58  2  0  0  0
 57132  1  0  0  0
 58133  1  0  0  0
 59 60  1  0  0  0
 59 61  1  0  0  0
 59 62  1  0  0  0
 60134  1  0  0  0
 60135  1  0  0  0
 60136  1  0  0  0
 61137  1  0  0  0
 61138  1  0  0  0
 61139  1  0  0  0
 62140  1  0  0  0
 62141  1  0  0  0
 62142  1  0  0  0
 63 65  1  0  0  0
 63143  1  0  0  0
 63144  1  0  0  0
 63145  1  0  0  0
 64146  1  0  0  0
 65147  1  0  0  0
 68 85  1  0  0  0
 71 72  2  0  0  0
 71 73  1  0  0  0
 71148  1  0  0  0
 72 74  1  0  0  0
 72149  1  0  0  0
 73 75  2  0  0  0
 73150  1  0  0  0
 74 76  2  0  0  0
 74 79  1  0  0  0
 75 76  1  0  0  0
 75 81  1  0  0  0
 76 87  1  0  0  0
 77 78  1  0  0  0
 77 79  1  0  0  0
 77151  1  0  0  0
 77152  1  0  0  0
 78 79  1  0  0  0
 78153  1  0  0  0
 78154  1  0  0  0
 79155  1  0  0  0
 80 82  1  0  0  0
 80156  1  0  0  0
 80157  1  0  0  0
 80158  1  0  0  0
 81 83  1  0  0  0
 81159  1  0  0  0
 81160  1  0  0  0
 82161  1  0  0  0
 82162  1  0  0  0
 82 86  1  0  0  0
 83 86  1  0  0  0
 83163  1  0  0  0
 83164  1  0  0  0
 84 85  1  0  0  0
 84 88  1  0  0  0
 84165  1  0  0  0
 84166  1  0  0  0
 85167  1  0  0  0
 85168  1  0  0  0
 86 88  1  0  0  0
 86169  1  0  0  0
 87170  1  0  0  0
 88171  1  0  0  0
 88172  1  0  0  0
M  CHG  1  88   1
M  ISO  4   1 100  68 101  85 101  87 100
M  END
> <chiral flag>
0

> <version>
0

> <s_m_source_file>
/data/baiqing/PycharmProjects/Reinvent-master-3.2/result/LINK_invent/BTK/process_docking_weight1_custom_sum_contain_oxygen_bond_distance_aromatic_linkinvent_7_9_3/rearranged_h_0139.sdf

> <i_m_source_file_index>
23

> <r_mmod_Potential_Energy-OPLS-2005>
139.297073364258

> <r_mmod_Stretch_Energy-OPLS-2005>
94.1942977905273

> <r_mmod_Bend_Energy-OPLS-2005>
181.539138793945

> <r_mmod_Torsional_Energy-OPLS-2005>
314.616363525391

> <r_mmod_Improper_Torsional_Energy-OPLS-2005>
9.38073825836182

> <r_mmod_Van_der_Waal_Energy-OPLS-2005>
166.492980957031

> <r_mmod_Electrostatic_Energy-OPLS-2005>
-254.051681518555

> <r_mmod_Solvation_Energy-OPLS-2005>
-456.928253173828

> <b_mmod_Minimization_Converged-OPLS-2005>
0

> <r_mmod_RMS_Derivative-OPLS-2005>
2.94843029975891

$$$$
23
                    3D
 Structure written by MMmdl.
170179  0  0  1  0            999 V2000
  -30.7209  -14.4619   20.6203 C   0  0  0  0  0  0
  -30.4225  -12.3223   19.4139 C   0  0  0  0  0  0
  -29.4907  -12.5142   18.2010 C   0  0  0  0  0  0
  -28.0134  -12.3710   18.6163 C   0  0  0  0  0  0
  -27.6605  -13.2097   19.8739 C   0  0  2  0  0  0
  -28.7019  -12.9878   20.9926 C   0  0  0  0  0  0
  -25.2581  -13.8169   20.5677 C   0  0  0  0  0  0
  -24.1833  -13.0440   20.9166 C   0  0  0  0  0  0
  -24.6394  -11.6908   20.8728 C   0  0  0  0  0  0
  -23.9061  -10.4290   21.0402 C   0  0  0  0  0  0
  -24.3611   -9.4205   21.9182 C   0  0  0  0  0  0
  -23.6285   -8.2243   22.0755 C   0  0  0  0  0  0
  -22.4270   -8.0278   21.3545 C   0  0  0  0  0  0
  -21.9904   -9.0252   20.4646 C   0  0  0  0  0  0
  -22.7233  -10.2131   20.3054 C   0  0  0  0  0  0
  -21.6854   -6.0729   22.5276 C   0  0  0  0  0  0
  -21.4013   -6.5632   23.8209 C   0  0  0  0  0  0
  -21.3658   -5.6788   24.9172 C   0  0  0  0  0  0
  -21.6044   -4.3053   24.7224 C   0  0  0  0  0  0
  -21.8818   -3.8144   23.4346 C   0  0  0  0  0  0
  -21.9191   -4.6959   22.3402 C   0  0  0  0  0  0
  -22.7855  -13.5239   21.1830 C   0  0  0  0  0  0
  -22.1660   -4.2143   21.0981 F   0  0  0  0  0  0
  -21.5629   -3.4537   25.7739 F   0  0  0  0  0  0
  -30.0316  -13.3010   20.4414 N   0  0  0  0  0  0
  -26.3020  -12.9344   20.3359 N   0  0  0  0  0  0
  -25.9320  -11.6499   20.5757 N   0  0  0  0  0  0
  -22.0498  -12.8232   22.0390 N   0  0  0  0  0  0
  -25.4309  -15.1887   20.4099 N   0  0  0  0  0  0
  -31.8217  -14.6684   20.1018 O   0  0  0  0  0  0
  -21.6635   -6.8873   21.4240 O   0  0  0  0  0  0
  -22.3540  -14.5547   20.6683 O   0  0  0  0  0  0
  -24.6142  -31.8681   23.2106 C   0  0  0  0  0  0
  -25.9038  -32.4827   23.8397 C   0  0  1  0  0  0
  -27.2319  -27.4318   20.1019 C   0  0  0  0  0  0
  -25.5900  -33.8625   24.2327 N   0  0  0  0  0  0
  -23.4037  -30.4913   21.5500 C   0  0  2  0  0  0
  -24.8530  -28.9576   20.1142 C   0  0  0  0  0  0
  -22.7417  -29.4654   22.4979 C   0  0  0  0  0  0
  -18.0275  -28.1375   22.8485 C   0  0  0  0  0  0
  -24.1488  -36.7311   23.2634 C   0  0  0  0  0  0
  -25.9328  -30.8307   21.3677 C   0  0  0  0  0  0
  -26.0116  -29.4633   20.7194 C   0  0  0  0  0  0
  -27.2060  -28.7045   20.7190 C   0  0  0  0  0  0
  -26.0656  -26.9484   19.4770 C   0  0  0  0  0  0
  -24.8741  -27.6970   19.4918 C   0  0  0  0  0  0
  -23.6149  -29.8250   20.1640 C   0  0  0  0  0  0
  -25.4107  -36.3111   24.0338 C   0  0  1  0  0  0
  -20.5868  -28.3661   23.1312 C   0  0  2  0  0  0
  -20.6769  -26.9395   22.5415 C   0  0  0  0  0  0
  -19.5754  -26.6377   21.5210 C   0  0  0  0  0  0
  -18.1926  -26.7924   22.1608 C   0  0  0  0  0  0
  -19.1527  -28.8834   23.2899 C   0  0  0  0  0  0
  -18.9458  -30.1439   23.8914 C   0  0  0  0  0  0
  -17.6462  -30.6582   24.0564 C   0  0  0  0  0  0
  -25.9036  -34.9478   23.5128 C   0  0  0  0  0  0
  -16.5352  -29.9085   23.6328 C   0  0  0  0  0  0
  -16.7266  -28.6503   23.0345 C   0  0  0  0  0  0
  -26.4467  -31.6602   25.0720 C   0  0  0  0  0  0
  -25.3727  -31.3718   26.1468 C   0  0  0  0  0  0
  -27.0288  -30.3042   24.6084 C   0  0  0  0  0  0
  -27.6044  -32.4314   25.7478 C   0  0  0  0  0  0
  -27.5593  -37.1791   24.8452 C   0  0  0  0  0  0
  -21.4142  -29.3033   22.3721 N   0  0  0  0  0  0
  -26.4285  -37.3801   23.9428 N   0  0  0  0  0  0
  -24.6680  -31.0776   22.1014 N   0  0  0  0  0  0
  -23.4190  -28.8199   23.3023 O   0  0  0  0  0  0
  -28.3593  -26.6401   20.0754 O   0  0  0  0  0  0
  -26.5595  -34.8931   22.4688 O   0  0  0  0  0  0
  -23.5333  -32.1432   23.7496 O   0  0  0  0  0  0
  -28.9206  -18.4508   21.6666 C   0  0  0  0  0  0
  -31.0022  -18.7505   20.4644 C   0  0  0  0  0  0
  -30.1908  -17.9577   21.3019 C   0  0  0  0  0  0
  -28.4789  -19.7228   21.2248 C   0  0  0  0  0  0
  -30.5763  -20.0247   20.0184 C   0  0  0  0  0  0
  -29.3129  -20.5380   20.4140 C   0  0  0  0  0  0
  -29.9980  -25.1980   21.1830 C   0  0  0  0  0  0
  -27.5386  -24.8777   21.6667 C   0  0  0  0  0  0
  -29.9761  -23.9034   20.3347 C   0  0  0  0  0  0
  -27.5404  -23.6183   20.7741 C   0  0  0  0  0  0
  -28.6300  -25.9117   21.2847 C   0  0  2  0  0  0
  -28.9036  -22.8960   20.8038 C   0  0  1  0  0  0
  -27.0884  -20.1869   21.6144 C   0  0  0  0  0  0
  -32.8027  -21.2352   19.8024 C   0  0  0  0  0  0
  -31.5019  -20.8134   19.1034 C   0  0  0  0  0  0
  -30.7263  -16.6378   21.8716 C   0  0  0  0  0  0
  -30.1113  -15.4013   21.3671 N   0  0  0  0  0  0
  -28.8697  -21.7577   19.9259 O   0  0  0  0  0  0
  -31.4650  -12.4283   19.1089 H   0  0  0  0  0  0
  -30.3319  -11.3101   19.8103 H   0  0  0  0  0  0
  -29.7312  -11.7884   17.4230 H   0  0  0  0  0  0
  -29.6552  -13.4993   17.7618 H   0  0  0  0  0  0
  -27.8256  -11.3146   18.8124 H   0  0  0  0  0  0
  -27.3613  -12.6462   17.7865 H   0  0  0  0  0  0
  -27.7057  -14.2590   19.5803 H   0  0  0  0  0  0
  -28.6827  -11.9493   21.3266 H   0  0  0  0  0  0
  -28.4536  -13.5782   21.8752 H   0  0  0  0  0  0
  -25.2759   -9.5677   22.4753 H   0  0  0  0  0  0
  -23.9989   -7.4637   22.7483 H   0  0  0  0  0  0
  -21.0832   -8.8773   19.8956 H   0  0  0  0  0  0
  -22.3696  -10.9667   19.6161 H   0  0  0  0  0  0
  -21.2006   -7.6142   23.9709 H   0  0  0  0  0  0
  -21.1480   -6.0520   25.9072 H   0  0  0  0  0  0
  -22.0600   -2.7603   23.2851 H   0  0  0  0  0  0
  -22.4106  -11.9889   22.4775 H   0  0  0  0  0  0
  -21.1122  -13.1266   22.2603 H   0  0  0  0  0  0
  -24.6671  -15.8470   20.5199 H   0  0  0  0  0  0
  -26.2896  -15.6275   20.1011 H   0  0  0  0  0  0
  -26.7112  -32.5542   23.1164 H   0  0  0  0  0  0
  -25.0078  -33.9794   25.0492 H   0  0  0  0  0  0
  -22.6920  -31.3078   21.4103 H   0  0  0  0  0  0
  -23.3767  -35.9621   23.3263 H   0  0  0  0  0  0
  -24.3596  -36.8958   22.2057 H   0  0  0  0  0  0
  -23.7209  -37.6494   23.6669 H   0  0  0  0  0  0
  -26.0438  -31.5947   20.5971 H   0  0  0  0  0  0
  -26.8212  -30.8865   21.9848 H   0  0  0  0  0  0
  -28.1004  -29.0883   21.1898 H   0  0  0  0  0  0
  -26.0779  -25.9808   18.9958 H   0  0  0  0  0  0
  -23.9851  -27.3021   19.0196 H   0  0  0  0  0  0
  -23.7260  -30.6016   19.4067 H   0  0  0  0  0  0
  -22.7383  -29.2475   19.8644 H   0  0  0  0  0  0
  -25.1276  -36.1969   25.0827 H   0  0  0  0  0  0
  -20.9954  -28.3222   24.1433 H   0  0  0  0  0  0
  -20.5666  -26.2267   23.3603 H   0  0  0  0  0  0
  -21.6644  -26.7428   22.1217 H   0  0  0  0  0  0
  -19.6923  -25.6289   21.1234 H   0  0  0  0  0  0
  -19.6711  -27.3192   20.6746 H   0  0  0  0  0  0
  -17.4202  -26.6683   21.4003 H   0  0  0  0  0  0
  -18.0317  -26.0054   22.8990 H   0  0  0  0  0  0
  -19.7936  -30.7247   24.2293 H   0  0  0  0  0  0
  -17.5021  -31.6269   24.5154 H   0  0  0  0  0  0
  -15.5357  -30.2999   23.7646 H   0  0  0  0  0  0
  -15.8661  -28.0834   22.7051 H   0  0  0  0  0  0
  -24.5917  -30.7040   25.7819 H   0  0  0  0  0  0
  -24.8903  -32.2878   26.4888 H   0  0  0  0  0  0
  -25.8080  -30.8922   27.0245 H   0  0  0  0  0  0
  -26.2829  -29.6821   24.1127 H   0  0  0  0  0  0
  -27.4056  -29.7259   25.4531 H   0  0  0  0  0  0
  -27.8663  -30.4370   23.9230 H   0  0  0  0  0  0
  -27.2673  -33.3613   26.2071 H   0  0  0  0  0  0
  -28.3848  -32.6872   25.0296 H   0  0  0  0  0  0
  -28.0717  -31.8426   26.5384 H   0  0  0  0  0  0
  -28.2557  -38.0141   24.7579 H   0  0  0  0  0  0
  -28.1143  -36.2677   24.6167 H   0  0  0  0  0  0
  -27.2333  -37.1308   25.8857 H   0  0  0  0  0  0
  -20.9299  -29.8764   21.6954 H   0  0  0  0  0  0
  -26.0174  -38.2865   24.1489 H   0  0  0  0  0  0
  -28.2857  -17.8525   22.3056 H   0  0  0  0  0  0
  -31.9763  -18.3841   20.1711 H   0  0  0  0  0  0
  -30.7481  -25.8871   20.7941 H   0  0  0  0  0  0
  -30.3273  -24.9381   22.1895 H   0  0  0  0  0  0
  -27.7109  -24.5626   22.6966 H   0  0  0  0  0  0
  -26.5500  -25.3357   21.6728 H   0  0  0  0  0  0
  -30.9598  -23.4406   20.3715 H   0  0  0  0  0  0
  -29.7996  -24.1630   19.2900 H   0  0  0  0  0  0
  -27.2963  -23.9008   19.7496 H   0  0  0  0  0  0
  -26.7474  -22.9483   21.1016 H   0  0  0  0  0  0
  -28.7001  -26.6475   22.0882 H   0  0  0  0  0  0
  -29.1239  -22.5803   21.8259 H   0  0  0  0  0  0
  -26.4851  -19.3641   21.9994 H   0  0  0  0  0  0
  -26.5677  -20.5991   20.7500 H   0  0  0  0  0  0
  -27.1448  -20.9531   22.3875 H   0  0  0  0  0  0
  -33.4279  -21.8265   19.1335 H   0  0  0  0  0  0
  -33.3861  -20.3705   20.1180 H   0  0  0  0  0  0
  -32.6026  -21.8377   20.6880 H   0  0  0  0  0  0
  -30.9960  -21.6914   18.7035 H   0  0  0  0  0  0
  -31.7387  -20.1941   18.2374 H   0  0  0  0  0  0
  -30.5671  -16.6574   22.9505 H   0  0  0  0  0  0
  -31.8111  -16.6088   21.7522 H   0  0  0  0  0  0
  -29.1936  -15.1730   21.7172 H   0  0  0  0  0  0
  1 25  1  0  0  0
  1 30  2  0  0  0
  1 87  1  0  0  0
  2  3  1  0  0  0
  2 25  1  0  0  0
  2 89  1  0  0  0
  2 90  1  0  0  0
  3  4  1  0  0  0
  3 91  1  0  0  0
  3 92  1  0  0  0
  4  5  1  0  0  0
  4 93  1  0  0  0
  4 94  1  0  0  0
  5  6  1  0  0  0
  5 26  1  0  0  0
  5 95  1  0  0  0
  6 25  1  0  0  0
  6 96  1  0  0  0
  6 97  1  0  0  0
  7  8  2  0  0  0
  7 26  1  0  0  0
  7 29  1  0  0  0
  8  9  1  0  0  0
  8 22  1  0  0  0
  9 10  1  0  0  0
  9 27  2  0  0  0
 10 11  2  0  0  0
 10 15  1  0  0  0
 11 12  1  0  0  0
 11 98  1  0  0  0
 12 13  2  0  0  0
 12 99  1  0  0  0
 13 14  1  0  0  0
 13 31  1  0  0  0
 14 15  2  0  0  0
 14100  1  0  0  0
 15101  1  0  0  0
 16 17  2  0  0  0
 16 21  1  0  0  0
 16 31  1  0  0  0
 17 18  1  0  0  0
 17102  1  0  0  0
 18 19  2  0  0  0
 18103  1  0  0  0
 19 20  1  0  0  0
 19 24  1  0  0  0
 20 21  2  0  0  0
 20104  1  0  0  0
 21 23  1  0  0  0
 22 28  1  0  0  0
 22 32  2  0  0  0
 26 27  1  0  0  0
 28105  1  0  0  0
 28106  1  0  0  0
 29107  1  0  0  0
 29108  1  0  0  0
 33 34  1  0  0  0
 33 66  1  0  0  0
 33 70  2  0  0  0
 34 36  1  0  0  0
 34 59  1  0  0  0
 34109  1  0  0  0
 35 44  2  0  0  0
 35 45  1  0  0  0
 35 68  1  0  0  0
 36 56  1  0  0  0
 36110  1  0  0  0
 37 39  1  0  0  0
 37 47  1  0  0  0
 37 66  1  0  0  0
 37111  1  0  0  0
 38 43  2  0  0  0
 38 46  1  0  0  0
 38 47  1  0  0  0
 39 64  1  0  0  0
 39 67  2  0  0  0
 40 52  1  0  0  0
 40 53  2  0  0  0
 40 58  1  0  0  0
 41112  1  0  0  0
 41113  1  0  0  0
 41114  1  0  0  0
 41 48  1  0  0  0
 42 43  1  0  0  0
 42 66  1  0  0  0
 42115  1  0  0  0
 42116  1  0  0  0
 43 44  1  0  0  0
 44117  1  0  0  0
 45 46  2  0  0  0
 45118  1  0  0  0
 46119  1  0  0  0
 47120  1  0  0  0
 47121  1  0  0  0
 48 56  1  0  0  0
 48 65  1  0  0  0
 48122  1  0  0  0
 49 50  1  0  0  0
 49 53  1  0  0  0
 49 64  1  0  0  0
 49123  1  0  0  0
 50 51  1  0  0  0
 50124  1  0  0  0
 50125  1  0  0  0
 51 52  1  0  0  0
 51126  1  0  0  0
 51127  1  0  0  0
 52128  1  0  0  0
 52129  1  0  0  0
 53 54  1  0  0  0
 54 55  2  0  0  0
 54130  1  0  0  0
 55 57  1  0  0  0
 55131  1  0  0  0
 56 69  2  0  0  0
 57 58  2  0  0  0
 57132  1  0  0  0
 58133  1  0  0  0
 59 60  1  0  0  0
 59 61  1  0  0  0
 59 62  1  0  0  0
 60134  1  0  0  0
 60135  1  0  0  0
 60136  1  0  0  0
 61137  1  0  0  0
 61138  1  0  0  0
 61139  1  0  0  0
 62140  1  0  0  0
 62141  1  0  0  0
 62142  1  0  0  0
 63 65  1  0  0  0
 63143  1  0  0  0
 63144  1  0  0  0
 63145  1  0  0  0
 64146  1  0  0  0
 65147  1  0  0  0
 68 81  1  0  0  0
 71 73  2  0  0  0
 71 74  1  0  0  0
 71148  1  0  0  0
 72 73  1  0  0  0
 72 75  2  0  0  0
 72149  1  0  0  0
 73 86  1  0  0  0
 74 76  2  0  0  0
 74 83  1  0  0  0
 75 76  1  0  0  0
 75 85  1  0  0  0
 76 88  1  0  0  0
 77 79  1  0  0  0
 77 81  1  0  0  0
 77150  1  0  0  0
 77151  1  0  0  0
 78 80  1  0  0  0
 78 81  1  0  0  0
 78152  1  0  0  0
 78153  1  0  0  0
 79 82  1  0  0  0
 79154  1  0  0  0
 79155  1  0  0  0
 80 82  1  0  0  0
 80156  1  0  0  0
 80157  1  0  0  0
 81158  1  0  0  0
 82 88  1  0  0  0
 82159  1  0  0  0
 83160  1  0  0  0
 83161  1  0  0  0
 83162  1  0  0  0
 84 85  1  0  0  0
 84163  1  0  0  0
 84164  1  0  0  0
 84165  1  0  0  0
 85166  1  0  0  0
 85167  1  0  0  0
 86 87  1  0  0  0
 86168  1  0  0  0
 86169  1  0  0  0
 87170  1  0  0  0
M  ISO  4   1 100  68 101  81 101  87 100
M  END
> <chiral flag>
0

> <version>
0

> <s_m_source_file>
/data/baiqing/PycharmProjects/Reinvent-master-3.2/result/LINK_invent/BTK/process_docking_weight1_custom_sum_contain_oxygen_bond_distance_aromatic_linkinvent_7_9_3/rearranged_h_0139.sdf

> <i_m_source_file_index>
24

> <r_mmod_Potential_Energy-OPLS-2005>
-98.2863159179688

> <r_mmod_Stretch_Energy-OPLS-2005>
39.5435676574707

> <r_mmod_Bend_Energy-OPLS-2005>
100.135452270508

> <r_mmod_Torsional_Energy-OPLS-2005>
272.167114257812

> <r_mmod_Improper_Torsional_Energy-OPLS-2005>
2.42882609367371

> <r_mmod_Van_der_Waal_Energy-OPLS-2005>
141.365127563477

> <r_mmod_Electrostatic_Energy-OPLS-2005>
-461.869110107422

> <r_mmod_Solvation_Energy-OPLS-2005>
-204.219375610352

> <b_mmod_Minimization_Converged-OPLS-2005>
0

> <r_mmod_RMS_Derivative-OPLS-2005>
0.867009580135345

$$$$
24
                    3D
 Structure written by MMmdl.
153161  0  0  1  0            999 V2000
  -30.6228  -14.7834   20.4070 C   0  0  0  0  0  0
  -30.4454  -12.4725   19.4592 C   0  0  0  0  0  0
  -29.5072  -12.4697   18.2323 C   0  0  0  0  0  0
  -28.0354  -12.3036   18.6579 C   0  0  0  0  0  0
  -27.6361  -13.2366   19.8287 C   0  0  2  0  0  0
  -28.6945  -13.2139   20.9549 C   0  0  0  0  0  0
  -25.2445  -13.8217   20.5658 C   0  0  0  0  0  0
  -24.1762  -13.0406   20.9233 C   0  0  0  0  0  0
  -24.6390  -11.6923   20.8719 C   0  0  0  0  0  0
  -23.9063  -10.4277   21.0349 C   0  0  0  0  0  0
  -24.3599   -9.4184   21.9129 C   0  0  0  0  0  0
  -23.6264   -8.2222   22.0716 C   0  0  0  0  0  0
  -22.4245   -8.0272   21.3525 C   0  0  0  0  0  0
  -21.9888   -9.0230   20.4614 C   0  0  0  0  0  0
  -22.7220  -10.2114   20.2996 C   0  0  0  0  0  0
  -21.6853   -6.0695   22.5279 C   0  0  0  0  0  0
  -21.4008   -6.5589   23.8212 C   0  0  0  0  0  0
  -21.3671   -5.6755   24.9185 C   0  0  0  0  0  0
  -21.6035   -4.3010   24.7245 C   0  0  0  0  0  0
  -21.8825   -3.8099   23.4364 C   0  0  0  0  0  0
  -21.9187   -4.6916   22.3415 C   0  0  0  0  0  0
  -22.7773  -13.5160   21.1980 C   0  0  0  0  0  0
  -22.1643   -4.2087   21.0992 F   0  0  0  0  0  0
  -21.5661   -3.4503   25.7761 F   0  0  0  0  0  0
  -29.9877  -13.5619   20.3519 N   0  0  0  0  0  0
  -26.2914  -12.9441   20.3213 N   0  0  0  0  0  0
  -25.9331  -11.6581   20.5734 N   0  0  0  0  0  0
  -22.0421  -12.8084   22.0505 N   0  0  0  0  0  0
  -25.3993  -15.1976   20.4097 N   0  0  0  0  0  0
  -31.8296  -14.8460   20.1592 O   0  0  0  0  0  0
  -21.6629   -6.8845   21.4245 O   0  0  0  0  0  0
  -22.3410  -14.5450   20.6868 O   0  0  0  0  0  0
  -24.6265  -31.8488   23.1942 C   0  0  0  0  0  0
  -25.9070  -32.4747   23.8333 C   0  0  1  0  0  0
  -27.2216  -27.2328   20.1246 C   0  0  0  0  0  0
  -25.5871  -33.8550   24.2270 N   0  0  0  0  0  0
  -23.4285  -30.4707   21.5318 C   0  0  2  0  0  0
  -24.8782  -28.9094   20.1099 C   0  0  0  0  0  0
  -22.7517  -29.4552   22.4852 C   0  0  0  0  0  0
  -18.0236  -28.1427   22.8707 C   0  0  0  0  0  0
  -24.1464  -36.7291   23.2653 C   0  0  0  0  0  0
  -25.9753  -30.7580   21.3740 C   0  0  0  0  0  0
  -26.0464  -29.3723   20.7216 C   0  0  0  0  0  0
  -27.2127  -28.5381   20.7301 C   0  0  0  0  0  0
  -26.0260  -26.8335   19.4892 C   0  0  0  0  0  0
  -24.8672  -27.6437   19.4928 C   0  0  0  0  0  0
  -23.6498  -29.7990   20.1478 C   0  0  0  0  0  0
  -25.4109  -36.3128   24.0335 C   0  0  1  0  0  0
  -20.5865  -28.3707   23.1385 C   0  0  2  0  0  0
  -20.6676  -26.9431   22.5498 C   0  0  0  0  0  0
  -19.5687  -26.6513   21.5256 C   0  0  0  0  0  0
  -18.1921  -26.8001   22.1817 C   0  0  0  0  0  0
  -19.1523  -28.8857   23.3010 C   0  0  0  0  0  0
  -18.9527  -30.1487   23.8929 C   0  0  0  0  0  0
  -17.6593  -30.6787   24.0535 C   0  0  0  0  0  0
  -25.9006  -34.9492   23.5149 C   0  0  0  0  0  0
  -16.5403  -29.9306   23.6505 C   0  0  0  0  0  0
  -16.7233  -28.6613   23.0675 C   0  0  0  0  0  0
  -26.4457  -31.6590   25.0705 C   0  0  0  0  0  0
  -25.3649  -31.3722   26.1383 C   0  0  0  0  0  0
  -27.0352  -30.3034   24.6213 C   0  0  0  0  0  0
  -27.6029  -32.4322   25.7446 C   0  0  0  0  0  0
  -27.5602  -37.1797   24.8480 C   0  0  0  0  0  0
  -21.4201  -29.3141   22.3808 N   0  0  0  0  0  0
  -26.4316  -37.3795   23.9412 N   0  0  0  0  0  0
  -24.6975  -31.0429   22.0919 N   0  0  0  0  0  0
  -23.4272  -28.8031   23.2839 O   0  0  0  0  0  0
  -28.3431  -26.3638   20.1939 O   0  0  0  0  0  0
  -26.5638  -34.8950   22.4733 O   0  0  0  0  0  0
  -23.5391  -32.1305   23.7166 O   0  0  0  0  0  0
  -27.6509  -23.7540   20.4576 C   0  0  0  0  0  0
  -29.6326  -24.0382   19.7382 C   0  0  0  0  0  0
  -28.9580  -22.8617   20.5599 C   0  0  2  0  0  0
  -28.3275  -24.9419   19.6757 C   0  0  1  0  0  0
  -29.3903  -18.6700   20.1428 C   0  0  0  0  0  0
  -30.3038  -17.4218   20.6872 C   0  0  0  0  0  0
  -29.6868  -20.2194   20.6247 C   0  0  0  0  0  0
  -29.8666  -15.9495   20.5339 N   0  0  0  0  0  0
  -28.8941  -21.3995   19.9966 N   0  3  0  0  0  0
  -31.4804  -12.6026   19.1339 H   0  0  0  0  0  0
  -30.4217  -11.5132   19.9778 H   0  0  0  0  0  0
  -29.7850  -11.6720   17.5433 H   0  0  0  0  0  0
  -29.6293  -13.4026   17.6826 H   0  0  0  0  0  0
  -27.9010  -11.2647   18.9636 H   0  0  0  0  0  0
  -27.3759  -12.4582   17.8029 H   0  0  0  0  0  0
  -27.6142  -14.2447   19.4120 H   0  0  0  0  0  0
  -28.7499  -12.2262   21.4147 H   0  0  0  0  0  0
  -28.4442  -13.9193   21.7493 H   0  0  0  0  0  0
  -25.2755   -9.5641   22.4684 H   0  0  0  0  0  0
  -23.9975   -7.4589   22.7410 H   0  0  0  0  0  0
  -21.0812   -8.8703   19.8911 H   0  0  0  0  0  0
  -22.3642  -10.9615   19.6069 H   0  0  0  0  0  0
  -21.1966   -7.6084   23.9703 H   0  0  0  0  0  0
  -21.1513   -6.0475   25.9087 H   0  0  0  0  0  0
  -22.0600   -2.7549   23.2901 H   0  0  0  0  0  0
  -22.4100  -11.9807   22.4952 H   0  0  0  0  0  0
  -21.1009  -13.1049   22.2731 H   0  0  0  0  0  0
  -24.6149  -15.8331   20.5303 H   0  0  0  0  0  0
  -26.2280  -15.6602   20.0621 H   0  0  0  0  0  0
  -26.7153  -32.5392   23.1102 H   0  0  0  0  0  0
  -24.9989  -33.9619   25.0419 H   0  0  0  0  0  0
  -22.7224  -31.2880   21.3733 H   0  0  0  0  0  0
  -23.3753  -35.9583   23.3327 H   0  0  0  0  0  0
  -24.3559  -36.8864   22.2062 H   0  0  0  0  0  0
  -23.7131  -37.6466   23.6639 H   0  0  0  0  0  0
  -26.1048  -31.5129   20.5958 H   0  0  0  0  0  0
  -26.8528  -30.8234   22.0055 H   0  0  0  0  0  0
  -28.1013  -28.8638   21.2480 H   0  0  0  0  0  0
  -25.9366  -25.8684   19.0134 H   0  0  0  0  0  0
  -23.9592  -27.2914   19.0224 H   0  0  0  0  0  0
  -23.7653  -30.5588   19.3717 H   0  0  0  0  0  0
  -22.7748  -29.2143   19.8642 H   0  0  0  0  0  0
  -25.1280  -36.2057   25.0818 H   0  0  0  0  0  0
  -21.0000  -28.3220   24.1506 H   0  0  0  0  0  0
  -20.5370  -26.2319   23.3706 H   0  0  0  0  0  0
  -21.6589  -26.7442   22.1462 H   0  0  0  0  0  0
  -19.6820  -25.6492   21.1079 H   0  0  0  0  0  0
  -19.6509  -27.3457   20.6844 H   0  0  0  0  0  0
  -17.4131  -26.6724   21.4364 H   0  0  0  0  0  0
  -18.0482  -26.0159   22.9259 H   0  0  0  0  0  0
  -19.8094  -30.7158   24.2239 H   0  0  0  0  0  0
  -17.5334  -31.6597   24.4940 H   0  0  0  0  0  0
  -15.5494  -30.3353   23.7950 H   0  0  0  0  0  0
  -15.8529  -28.0979   22.7657 H   0  0  0  0  0  0
  -24.5824  -30.7097   25.7685 H   0  0  0  0  0  0
  -24.8801  -32.2853   26.4837 H   0  0  0  0  0  0
  -25.7851  -30.8862   27.0194 H   0  0  0  0  0  0
  -26.2991  -29.6715   24.1221 H   0  0  0  0  0  0
  -27.4076  -29.7352   25.4764 H   0  0  0  0  0  0
  -27.8847  -30.4364   23.9492 H   0  0  0  0  0  0
  -27.2711  -33.3640   26.2052 H   0  0  0  0  0  0
  -28.3807  -32.6822   25.0221 H   0  0  0  0  0  0
  -28.0796  -31.8438   26.5295 H   0  0  0  0  0  0
  -28.2652  -38.0086   24.7576 H   0  0  0  0  0  0
  -28.1081  -36.2614   24.6303 H   0  0  0  0  0  0
  -27.2312  -37.1466   25.8883 H   0  0  0  0  0  0
  -20.9322  -29.9328   21.7450 H   0  0  0  0  0  0
  -26.0247  -38.2882   24.1409 H   0  0  0  0  0  0
  -27.2411  -24.0618   21.4227 H   0  0  0  0  0  0
  -26.8731  -23.2716   19.8616 H   0  0  0  0  0  0
  -29.9970  -23.7455   18.7572 H   0  0  0  0  0  0
  -30.4716  -24.5008   20.2745 H   0  0  0  0  0  0
  -29.3290  -22.8470   21.5843 H   0  0  0  0  0  0
  -27.9547  -24.9523   18.6458 H   0  0  0  0  0  0
  -28.3506  -18.4395   20.3821 H   0  0  0  0  0  0
  -29.4330  -18.6360   19.0509 H   0  0  0  0  0  0
  -30.4470  -17.5844   21.7572 H   0  0  0  0  0  0
  -31.3105  -17.5154   20.2688 H   0  0  0  0  0  0
  -30.7531  -20.4323   20.4989 H   0  0  0  0  0  0
  -29.5244  -20.2496   21.7060 H   0  0  0  0  0  0
  -28.8730  -15.7890   20.5878 H   0  0  0  0  0  0
  -29.0913  -21.4201   19.0112 H   0  0  0  0  0  0
  -27.9300  -21.1139   20.0968 H   0  0  0  0  0  0
  1 25  1  0  0  0
  1 30  2  0  0  0
  1 78  1  0  0  0
  2  3  1  0  0  0
  2 25  1  0  0  0
  2 80  1  0  0  0
  2 81  1  0  0  0
  3  4  1  0  0  0
  3 82  1  0  0  0
  3 83  1  0  0  0
  4  5  1  0  0  0
  4 84  1  0  0  0
  4 85  1  0  0  0
  5  6  1  0  0  0
  5 26  1  0  0  0
  5 86  1  0  0  0
  6 25  1  0  0  0
  6 87  1  0  0  0
  6 88  1  0  0  0
  7  8  2  0  0  0
  7 26  1  0  0  0
  7 29  1  0  0  0
  8  9  1  0  0  0
  8 22  1  0  0  0
  9 10  1  0  0  0
  9 27  2  0  0  0
 10 11  2  0  0  0
 10 15  1  0  0  0
 11 12  1  0  0  0
 11 89  1  0  0  0
 12 13  2  0  0  0
 12 90  1  0  0  0
 13 14  1  0  0  0
 13 31  1  0  0  0
 14 15  2  0  0  0
 14 91  1  0  0  0
 15 92  1  0  0  0
 16 17  2  0  0  0
 16 21  1  0  0  0
 16 31  1  0  0  0
 17 18  1  0  0  0
 17 93  1  0  0  0
 18 19  2  0  0  0
 18 94  1  0  0  0
 19 20  1  0  0  0
 19 24  1  0  0  0
 20 21  2  0  0  0
 20 95  1  0  0  0
 21 23  1  0  0  0
 22 28  1  0  0  0
 22 32  2  0  0  0
 26 27  1  0  0  0
 28 96  1  0  0  0
 28 97  1  0  0  0
 29 98  1  0  0  0
 29 99  1  0  0  0
 33 34  1  0  0  0
 33 66  1  0  0  0
 33 70  2  0  0  0
 34 36  1  0  0  0
 34 59  1  0  0  0
 34100  1  0  0  0
 35 44  2  0  0  0
 35 45  1  0  0  0
 35 68  1  0  0  0
 36 56  1  0  0  0
 36101  1  0  0  0
 37 39  1  0  0  0
 37 47  1  0  0  0
 37 66  1  0  0  0
 37102  1  0  0  0
 38 43  2  0  0  0
 38 46  1  0  0  0
 38 47  1  0  0  0
 39 64  1  0  0  0
 39 67  2  0  0  0
 40 52  1  0  0  0
 40 53  2  0  0  0
 40 58  1  0  0  0
 41103  1  0  0  0
 41104  1  0  0  0
 41105  1  0  0  0
 41 48  1  0  0  0
 42 43  1  0  0  0
 42 66  1  0  0  0
 42106  1  0  0  0
 42107  1  0  0  0
 43 44  1  0  0  0
 44108  1  0  0  0
 45 46  2  0  0  0
 45109  1  0  0  0
 46110  1  0  0  0
 47111  1  0  0  0
 47112  1  0  0  0
 48 56  1  0  0  0
 48 65  1  0  0  0
 48113  1  0  0  0
 49 50  1  0  0  0
 49 53  1  0  0  0
 49 64  1  0  0  0
 49114  1  0  0  0
 50 51  1  0  0  0
 50115  1  0  0  0
 50116  1  0  0  0
 51 52  1  0  0  0
 51117  1  0  0  0
 51118  1  0  0  0
 52119  1  0  0  0
 52120  1  0  0  0
 53 54  1  0  0  0
 54 55  2  0  0  0
 54121  1  0  0  0
 55 57  1  0  0  0
 55122  1  0  0  0
 56 69  2  0  0  0
 57 58  2  0  0  0
 57123  1  0  0  0
 58124  1  0  0  0
 59 60  1  0  0  0
 59 61  1  0  0  0
 59 62  1  0  0  0
 60125  1  0  0  0
 60126  1  0  0  0
 60127  1  0  0  0
 61128  1  0  0  0
 61129  1  0  0  0
 61130  1  0  0  0
 62131  1  0  0  0
 62132  1  0  0  0
 62133  1  0  0  0
 63 65  1  0  0  0
 63134  1  0  0  0
 63135  1  0  0  0
 63136  1  0  0  0
 64137  1  0  0  0
 65138  1  0  0  0
 68 74  1  0  0  0
 71 73  1  0  0  0
 71 74  1  0  0  0
 71139  1  0  0  0
 71140  1  0  0  0
 72 73  1  0  0  0
 72 74  1  0  0  0
 72141  1  0  0  0
 72142  1  0  0  0
 73 79  1  0  0  0
 73143  1  0  0  0
 74144  1  0  0  0
 75 76  1  0  0  0
 75 77  1  0  0  0
 75145  1  0  0  0
 75146  1  0  0  0
 76 78  1  0  0  0
 76147  1  0  0  0
 76148  1  0  0  0
 77 79  1  0  0  0
 77149  1  0  0  0
 77150  1  0  0  0
 78151  1  0  0  0
 79152  1  0  0  0
 79153  1  0  0  0
M  CHG  1  79   1
M  ISO  4   1 100  68 101  74 101  78 100
M  END
> <chiral flag>
0

> <version>
0

> <s_m_source_file>
/data/baiqing/PycharmProjects/Reinvent-master-3.2/result/LINK_invent/BTK/process_docking_weight1_custom_sum_contain_oxygen_bond_distance_aromatic_linkinvent_7_9_3/rearranged_h_0139.sdf

> <i_m_source_file_index>
25

> <r_mmod_Potential_Energy-OPLS-2005>
77.6792831420898

> <r_mmod_Stretch_Energy-OPLS-2005>
149.898864746094

> <r_mmod_Bend_Energy-OPLS-2005>
205.622177124023

> <r_mmod_Torsional_Energy-OPLS-2005>
248.39616394043

> <r_mmod_Improper_Torsional_Energy-OPLS-2005>
4.34335279464722

> <r_mmod_Van_der_Waal_Energy-OPLS-2005>
112.983520507812

> <r_mmod_Electrostatic_Energy-OPLS-2005>
-241.870315551758

> <r_mmod_Solvation_Energy-OPLS-2005>
-506.545349121094

> <b_mmod_Minimization_Converged-OPLS-2005>
0

> <r_mmod_RMS_Derivative-OPLS-2005>
8.95741748809814

$$$$
25
                    3D
 Structure written by MMmdl.
174184  0  0  1  0            999 V2000
  -30.6589  -14.7153   20.3172 C   0  0  0  0  0  0
  -30.4351  -12.4046   19.4561 C   0  0  0  0  0  0
  -29.5060  -12.3688   18.2265 C   0  0  0  0  0  0
  -28.0206  -12.2785   18.6462 C   0  0  0  0  0  0
  -27.6278  -13.2086   19.8304 C   0  0  2  0  0  0
  -28.6954  -13.2129   20.9421 C   0  0  0  0  0  0
  -25.2523  -13.8146   20.5757 C   0  0  0  0  0  0
  -24.1775  -13.0426   20.9233 C   0  0  0  0  0  0
  -24.6339  -11.6898   20.8792 C   0  0  0  0  0  0
  -23.9017  -10.4297   21.0435 C   0  0  0  0  0  0
  -24.3586   -9.4220   21.9206 C   0  0  0  0  0  0
  -23.6273   -8.2247   22.0771 C   0  0  0  0  0  0
  -22.4257   -8.0292   21.3562 C   0  0  0  0  0  0
  -21.9875   -9.0261   20.4663 C   0  0  0  0  0  0
  -22.7196  -10.2148   20.3073 C   0  0  0  0  0  0
  -21.6853   -6.0734   22.5289 C   0  0  0  0  0  0
  -21.4023   -6.5636   23.8219 C   0  0  0  0  0  0
  -21.3643   -5.6799   24.9186 C   0  0  0  0  0  0
  -21.6023   -4.3065   24.7233 C   0  0  0  0  0  0
  -21.8820   -3.8150   23.4359 C   0  0  0  0  0  0
  -21.9189   -4.6966   22.3415 C   0  0  0  0  0  0
  -22.7793  -13.5234   21.1856 C   0  0  0  0  0  0
  -22.1655   -4.2142   21.0995 F   0  0  0  0  0  0
  -21.5609   -3.4548   25.7749 F   0  0  0  0  0  0
  -29.9837  -13.5208   20.3072 N   0  0  0  0  0  0
  -26.2897  -12.9269   20.3328 N   0  0  0  0  0  0
  -25.9264  -11.6447   20.5837 N   0  0  0  0  0  0
  -22.0393  -12.8258   22.0390 N   0  0  0  0  0  0
  -25.4295  -15.1872   20.4213 N   0  0  0  0  0  0
  -31.8897  -14.7139   20.2877 O   0  0  0  0  0  0
  -21.6631   -6.8883   21.4256 O   0  0  0  0  0  0
  -22.3496  -14.5539   20.6683 O   0  0  0  0  0  0
  -24.6240  -31.8602   23.2016 C   0  0  0  0  0  0
  -25.9087  -32.4778   23.8343 C   0  0  1  0  0  0
  -27.2309  -27.3190   20.1152 C   0  0  0  0  0  0
  -25.5907  -33.8575   24.2285 N   0  0  0  0  0  0
  -23.4190  -30.4812   21.5443 C   0  0  2  0  0  0
  -24.8679  -28.9392   20.1097 C   0  0  0  0  0  0
  -22.7470  -29.4603   22.4931 C   0  0  0  0  0  0
  -18.0284  -28.1375   22.8487 C   0  0  0  0  0  0
  -24.1483  -36.7290   23.2622 C   0  0  0  0  0  0
  -25.9594  -30.7926   21.3716 C   0  0  0  0  0  0
  -26.0347  -29.4184   20.7166 C   0  0  0  0  0  0
  -27.2138  -28.6164   20.7156 C   0  0  0  0  0  0
  -26.0318  -26.8856   19.4998 C   0  0  0  0  0  0
  -24.8686  -27.6785   19.4957 C   0  0  0  0  0  0
  -23.6346  -29.8169   20.1593 C   0  0  0  0  0  0
  -25.4102  -36.3081   24.0320 C   0  0  1  0  0  0
  -20.5889  -28.3678   23.1294 C   0  0  2  0  0  0
  -20.6772  -26.9398   22.5417 C   0  0  0  0  0  0
  -19.5748  -26.6379   21.5211 C   0  0  0  0  0  0
  -18.1926  -26.7919   22.1625 C   0  0  0  0  0  0
  -19.1537  -28.8850   23.2882 C   0  0  0  0  0  0
  -18.9459  -30.1447   23.8895 C   0  0  0  0  0  0
  -17.6456  -30.6582   24.0565 C   0  0  0  0  0  0
  -25.9049  -34.9447   23.5116 C   0  0  0  0  0  0
  -16.5352  -29.9081   23.6314 C   0  0  0  0  0  0
  -16.7268  -28.6500   23.0341 C   0  0  0  0  0  0
  -26.4469  -31.6555   25.0693 C   0  0  0  0  0  0
  -25.3713  -31.3741   26.1446 C   0  0  0  0  0  0
  -27.0231  -30.2945   24.6116 C   0  0  0  0  0  0
  -27.6070  -32.4237   25.7452 C   0  0  0  0  0  0
  -27.5587  -37.1785   24.8434 C   0  0  0  0  0  0
  -21.4189  -29.3030   22.3691 N   0  0  0  0  0  0
  -26.4276  -37.3785   23.9416 N   0  0  0  0  0  0
  -24.6864  -31.0607   22.0967 N   0  0  0  0  0  0
  -23.4192  -28.8140   23.3010 O   0  0  0  0  0  0
  -28.3663  -26.4937   20.2001 O   0  0  0  0  0  0
  -26.5626  -34.8922   22.4688 O   0  0  0  0  0  0
  -23.5405  -32.1400   23.7336 O   0  0  0  0  0  0
  -27.8542  -22.7968   19.9160 C   0  0  0  0  0  0
  -30.0514  -23.4975   20.5489 C   0  0  0  0  0  0
  -28.1562  -21.4336   20.2444 C   0  0  0  0  0  0
  -28.7878  -23.8599   20.0321 C   0  0  0  0  0  0
  -30.3811  -22.1465   20.8722 C   0  0  0  0  0  0
  -29.4673  -21.0614   20.6886 C   0  0  0  0  0  0
  -31.1271  -17.8391   18.0831 C   0  0  0  0  0  0
  -30.3979  -16.5617   17.6436 C   0  0  0  0  0  0
  -25.6345  -20.7839   20.5555 C   0  0  0  0  0  0
  -26.4303  -19.7331   21.2863 C   0  0  0  0  0  0
  -31.5987  -17.7433   19.5421 C   0  0  0  0  0  0
  -29.3830  -16.0445   18.6909 C   0  0  0  0  0  0
  -27.0363  -20.4443   20.0947 C   0  0  0  0  0  0
  -30.4508  -17.2852   20.4772 C   0  0  1  0  0  0
  -31.7519  -21.6751   22.9455 C   0  0  0  0  0  0
  -31.7725  -21.8718   21.4243 C   0  0  0  0  0  0
  -28.5186  -25.2714   19.3880 C   0  0  0  0  0  0
  -29.3799  -18.4774   20.5843 C   0  0  0  0  0  0
  -29.9666  -15.9008   20.0494 N   0  0  0  0  0  0
  -29.9520  -19.7639   21.0009 O   0  0  0  0  0  0
  -31.4708  -12.5222   19.1336 H   0  0  0  0  0  0
  -30.3962  -11.4653   20.0112 H   0  0  0  0  0  0
  -29.7562  -11.5018   17.6134 H   0  0  0  0  0  0
  -29.6895  -13.2258   17.5837 H   0  0  0  0  0  0
  -27.8458  -11.2407   18.9336 H   0  0  0  0  0  0
  -27.3711  -12.4578   17.7882 H   0  0  0  0  0  0
  -27.5669  -14.2113   19.4272 H   0  0  0  0  0  0
  -28.7372  -12.2498   21.4509 H   0  0  0  0  0  0
  -28.4534  -13.9610   21.6970 H   0  0  0  0  0  0
  -25.2731   -9.5694   22.4768 H   0  0  0  0  0  0
  -23.9990   -7.4636   22.7482 H   0  0  0  0  0  0
  -21.0805   -8.8777   19.8969 H   0  0  0  0  0  0
  -22.3657  -10.9688   19.6173 H   0  0  0  0  0  0
  -21.2042   -7.6147   23.9713 H   0  0  0  0  0  0
  -21.1435   -6.0537   25.9081 H   0  0  0  0  0  0
  -22.0606   -2.7612   23.2870 H   0  0  0  0  0  0
  -22.3955  -11.9911   22.4804 H   0  0  0  0  0  0
  -21.1007  -13.1325   22.2539 H   0  0  0  0  0  0
  -24.6772  -15.8535   20.5551 H   0  0  0  0  0  0
  -26.2996  -15.6261   20.1511 H   0  0  0  0  0  0
  -26.7155  -32.5450   23.1093 H   0  0  0  0  0  0
  -25.0005  -33.9727   25.0397 H   0  0  0  0  0  0
  -22.7114  -31.3003   21.4007 H   0  0  0  0  0  0
  -23.3774  -35.9590   23.3221 H   0  0  0  0  0  0
  -24.3596  -36.8975   22.2052 H   0  0  0  0  0  0
  -23.7204  -37.6452   23.6700 H   0  0  0  0  0  0
  -26.0815  -31.5555   20.6014 H   0  0  0  0  0  0
  -26.8440  -30.8486   21.9943 H   0  0  0  0  0  0
  -28.1086  -28.9803   21.2011 H   0  0  0  0  0  0
  -25.9361  -25.9105   19.0506 H   0  0  0  0  0  0
  -23.9688  -27.3002   19.0293 H   0  0  0  0  0  0
  -23.7526  -30.5929   19.4025 H   0  0  0  0  0  0
  -22.7568  -29.2428   19.8573 H   0  0  0  0  0  0
  -25.1269  -36.1930   25.0809 H   0  0  0  0  0  0
  -20.9968  -28.3251   24.1421 H   0  0  0  0  0  0
  -20.5661  -26.2274   23.3611 H   0  0  0  0  0  0
  -21.6645  -26.7420   22.1223 H   0  0  0  0  0  0
  -19.6908  -25.6295   21.1228 H   0  0  0  0  0  0
  -19.6681  -27.3203   20.6753 H   0  0  0  0  0  0
  -17.4190  -26.6664   21.4030 H   0  0  0  0  0  0
  -18.0321  -26.0057   22.9022 H   0  0  0  0  0  0
  -19.7935  -30.7267   24.2263 H   0  0  0  0  0  0
  -17.5010  -31.6258   24.5168 H   0  0  0  0  0  0
  -15.5354  -30.2992   23.7617 H   0  0  0  0  0  0
  -15.8665  -28.0815   22.7054 H   0  0  0  0  0  0
  -24.5839  -30.7133   25.7805 H   0  0  0  0  0  0
  -24.8964  -32.2935   26.4881 H   0  0  0  0  0  0
  -25.8029  -30.8900   27.0217 H   0  0  0  0  0  0
  -26.2758  -29.6770   24.1117 H   0  0  0  0  0  0
  -27.3874  -29.7129   25.4598 H   0  0  0  0  0  0
  -27.8677  -30.4181   23.9333 H   0  0  0  0  0  0
  -27.2736  -33.3580   26.1992 H   0  0  0  0  0  0
  -28.3907  -32.6704   25.0273 H   0  0  0  0  0  0
  -28.0689  -31.8344   26.5391 H   0  0  0  0  0  0
  -28.2545  -38.0138   24.7562 H   0  0  0  0  0  0
  -28.1141  -36.2679   24.6143 H   0  0  0  0  0  0
  -27.2328  -37.1297   25.8836 H   0  0  0  0  0  0
  -20.9357  -29.8750   21.6910 H   0  0  0  0  0  0
  -26.0146  -38.2841   24.1479 H   0  0  0  0  0  0
  -26.8761  -23.0286   19.5197 H   0  0  0  0  0  0
  -30.8044  -24.2666   20.6520 H   0  0  0  0  0  0
  -30.4664  -18.6997   17.9653 H   0  0  0  0  0  0
  -31.9753  -18.0291   17.4236 H   0  0  0  0  0  0
  -31.1304  -15.7819   17.4322 H   0  0  0  0  0  0
  -29.8856  -16.7530   16.6984 H   0  0  0  0  0  0
  -25.4719  -21.7242   21.0783 H   0  0  0  0  0  0
  -24.8043  -20.4419   19.9401 H   0  0  0  0  0  0
  -26.1287  -18.6967   21.1513 H   0  0  0  0  0  0
  -26.7977  -19.9885   22.2798 H   0  0  0  0  0  0
  -31.9882  -18.7099   19.8633 H   0  0  0  0  0  0
  -32.4439  -17.0599   19.6035 H   0  0  0  0  0  0
  -29.0174  -15.1060   18.2971 H   0  0  0  0  0  0
  -28.5017  -16.6842   18.7162 H   0  0  0  0  0  0
  -27.1146  -19.9092   19.1510 H   0  0  0  0  0  0
  -30.8686  -17.1596   21.4774 H   0  0  0  0  0  0
  -32.7594  -21.5189   23.3305 H   0  0  0  0  0  0
  -31.1526  -20.8076   23.2232 H   0  0  0  0  0  0
  -31.3327  -22.5474   23.4483 H   0  0  0  0  0  0
  -32.4398  -22.6985   21.1734 H   0  0  0  0  0  0
  -32.1984  -20.9934   20.9380 H   0  0  0  0  0  0
  -27.7639  -25.1551   18.6158 H   0  0  0  0  0  0
  -29.4143  -25.4683   18.7995 H   0  0  0  0  0  0
  -28.6110  -18.1901   21.2993 H   0  0  0  0  0  0
  -28.8887  -18.6202   19.6262 H   0  0  0  0  0  0
  1 25  1  0  0  0
  1 30  2  0  0  0
  1 89  1  0  0  0
  2  3  1  0  0  0
  2 25  1  0  0  0
  2 91  1  0  0  0
  2 92  1  0  0  0
  3  4  1  0  0  0
  3 93  1  0  0  0
  3 94  1  0  0  0
  4  5  1  0  0  0
  4 95  1  0  0  0
  4 96  1  0  0  0
  5  6  1  0  0  0
  5 26  1  0  0  0
  5 97  1  0  0  0
  6 25  1  0  0  0
  6 98  1  0  0  0
  6 99  1  0  0  0
  7  8  2  0  0  0
  7 26  1  0  0  0
  7 29  1  0  0  0
  8  9  1  0  0  0
  8 22  1  0  0  0
  9 10  1  0  0  0
  9 27  2  0  0  0
 10 11  2  0  0  0
 10 15  1  0  0  0
 11 12  1  0  0  0
 11100  1  0  0  0
 12 13  2  0  0  0
 12101  1  0  0  0
 13 14  1  0  0  0
 13 31  1  0  0  0
 14 15  2  0  0  0
 14102  1  0  0  0
 15103  1  0  0  0
 16 17  2  0  0  0
 16 21  1  0  0  0
 16 31  1  0  0  0
 17 18  1  0  0  0
 17104  1  0  0  0
 18 19  2  0  0  0
 18105  1  0  0  0
 19 20  1  0  0  0
 19 24  1  0  0  0
 20 21  2  0  0  0
 20106  1  0  0  0
 21 23  1  0  0  0
 22 28  1  0  0  0
 22 32  2  0  0  0
 26 27  1  0  0  0
 28107  1  0  0  0
 28108  1  0  0  0
 29109  1  0  0  0
 29110  1  0  0  0
 33 34  1  0  0  0
 33 66  1  0  0  0
 33 70  2  0  0  0
 34 36  1  0  0  0
 34 59  1  0  0  0
 34111  1  0  0  0
 35 44  2  0  0  0
 35 45  1  0  0  0
 35 68  1  0  0  0
 36 56  1  0  0  0
 36112  1  0  0  0
 37 39  1  0  0  0
 37 47  1  0  0  0
 37 66  1  0  0  0
 37113  1  0  0  0
 38 43  2  0  0  0
 38 46  1  0  0  0
 38 47  1  0  0  0
 39 64  1  0  0  0
 39 67  2  0  0  0
 40 52  1  0  0  0
 40 53  2  0  0  0
 40 58  1  0  0  0
 41114  1  0  0  0
 41115  1  0  0  0
 41116  1  0  0  0
 41 48  1  0  0  0
 42 43  1  0  0  0
 42 66  1  0  0  0
 42117  1  0  0  0
 42118  1  0  0  0
 43 44  1  0  0  0
 44119  1  0  0  0
 45 46  2  0  0  0
 45120  1  0  0  0
 46121  1  0  0  0
 47122  1  0  0  0
 47123  1  0  0  0
 48 56  1  0  0  0
 48 65  1  0  0  0
 48124  1  0  0  0
 49 50  1  0  0  0
 49 53  1  0  0  0
 49 64  1  0  0  0
 49125  1  0  0  0
 50 51  1  0  0  0
 50126  1  0  0  0
 50127  1  0  0  0
 51 52  1  0  0  0
 51128  1  0  0  0
 51129  1  0  0  0
 52130  1  0  0  0
 52131  1  0  0  0
 53 54  1  0  0  0
 54 55  2  0  0  0
 54132  1  0  0  0
 55 57  1  0  0  0
 55133  1  0  0  0
 56 69  2  0  0  0
 57 58  2  0  0  0
 57134  1  0  0  0
 58135  1  0  0  0
 59 60  1  0  0  0
 59 61  1  0  0  0
 59 62  1  0  0  0
 60136  1  0  0  0
 60137  1  0  0  0
 60138  1  0  0  0
 61139  1  0  0  0
 61140  1  0  0  0
 61141  1  0  0  0
 62142  1  0  0  0
 62143  1  0  0  0
 62144  1  0  0  0
 63 65  1  0  0  0
 63145  1  0  0  0
 63146  1  0  0  0
 63147  1  0  0  0
 64148  1  0  0  0
 65149  1  0  0  0
 68 87  1  0  0  0
 71 73  2  0  0  0
 71 74  1  0  0  0
 71150  1  0  0  0
 72 74  2  0  0  0
 72 75  1  0  0  0
 72151  1  0  0  0
 73 76  1  0  0  0
 73 83  1  0  0  0
 74 87  1  0  0  0
 75 76  2  0  0  0
 75 86  1  0  0  0
 76 90  1  0  0  0
 77 78  1  0  0  0
 77 81  1  0  0  0
 77152  1  0  0  0
 77153  1  0  0  0
 78 82  1  0  0  0
 78154  1  0  0  0
 78155  1  0  0  0
 79 80  1  0  0  0
 79 83  1  0  0  0
 79156  1  0  0  0
 79157  1  0  0  0
 80 83  1  0  0  0
 80158  1  0  0  0
 80159  1  0  0  0
 81 84  1  0  0  0
 81160  1  0  0  0
 81161  1  0  0  0
 82 89  1  0  0  0
 82162  1  0  0  0
 82163  1  0  0  0
 83164  1  0  0  0
 84 88  1  0  0  0
 84 89  1  0  0  0
 84165  1  0  0  0
 85 86  1  0  0  0
 85166  1  0  0  0
 85167  1  0  0  0
 85168  1  0  0  0
 86169  1  0  0  0
 86170  1  0  0  0
 87171  1  0  0  0
 87172  1  0  0  0
 88 90  1  0  0  0
 88173  1  0  0  0
 88174  1  0  0  0
M  ISO  4   1 100  68 101  87 101  89 100
M  END
> <chiral flag>
0

> <version>
0

> <s_m_source_file>
/data/baiqing/PycharmProjects/Reinvent-master-3.2/result/LINK_invent/BTK/process_docking_weight1_custom_sum_contain_oxygen_bond_distance_aromatic_linkinvent_7_9_3/rearranged_h_0139.sdf

> <i_m_source_file_index>
26

> <r_mmod_Potential_Energy-OPLS-2005>
445.066558837891

> <r_mmod_Stretch_Energy-OPLS-2005>
95.4082794189453

> <r_mmod_Bend_Energy-OPLS-2005>
187.941513061523

> <r_mmod_Torsional_Energy-OPLS-2005>
395.483276367188

> <r_mmod_Improper_Torsional_Energy-OPLS-2005>
12.401270866394

> <r_mmod_Van_der_Waal_Energy-OPLS-2005>
149.481460571289

> <r_mmod_Electrostatic_Energy-OPLS-2005>
-286.796508789062

> <r_mmod_Solvation_Energy-OPLS-2005>
-193.747970581055

> <b_mmod_Minimization_Converged-OPLS-2005>
0

> <r_mmod_RMS_Derivative-OPLS-2005>
2.7957980632782

$$$$
26
                    3D
 Structure written by MMmdl.
166175  0  0  1  0            999 V2000
  -30.7045  -14.4834   20.5176 C   0  0  0  0  0  0
  -30.4114  -12.2981   19.4267 C   0  0  0  0  0  0
  -29.4909  -12.4929   18.2052 C   0  0  0  0  0  0
  -28.0107  -12.3602   18.6174 C   0  0  0  0  0  0
  -27.6544  -13.2092   19.8686 C   0  0  2  0  0  0
  -28.7003  -13.0274   20.9912 C   0  0  0  0  0  0
  -25.2567  -13.8157   20.5690 C   0  0  0  0  0  0
  -24.1820  -13.0430   20.9184 C   0  0  0  0  0  0
  -24.6383  -11.6896   20.8749 C   0  0  0  0  0  0
  -23.9055  -10.4281   21.0406 C   0  0  0  0  0  0
  -24.3606   -9.4194   21.9183 C   0  0  0  0  0  0
  -23.6282   -8.2229   22.0751 C   0  0  0  0  0  0
  -22.4269   -8.0273   21.3542 C   0  0  0  0  0  0
  -21.9902   -9.0243   20.4638 C   0  0  0  0  0  0
  -22.7230  -10.2123   20.3048 C   0  0  0  0  0  0
  -21.6849   -6.0732   22.5286 C   0  0  0  0  0  0
  -21.4008   -6.5631   23.8219 C   0  0  0  0  0  0
  -21.3660   -5.6782   24.9179 C   0  0  0  0  0  0
  -21.6045   -4.3050   24.7230 C   0  0  0  0  0  0
  -21.8817   -3.8140   23.4349 C   0  0  0  0  0  0
  -21.9188   -4.6958   22.3408 C   0  0  0  0  0  0
  -22.7842  -13.5228   21.1843 C   0  0  0  0  0  0
  -22.1651   -4.2146   21.0985 F   0  0  0  0  0  0
  -21.5641   -3.4534   25.7741 F   0  0  0  0  0  0
  -30.0236  -13.3100   20.4202 N   0  0  0  0  0  0
  -26.2998  -12.9326   20.3370 N   0  0  0  0  0  0
  -25.9313  -11.6487   20.5785 N   0  0  0  0  0  0
  -22.0475  -12.8226   22.0396 N   0  0  0  0  0  0
  -25.4306  -15.1876   20.4120 N   0  0  0  0  0  0
  -31.8783  -14.5984   20.1487 O   0  0  0  0  0  0
  -21.6631   -6.8871   21.4244 O   0  0  0  0  0  0
  -22.3532  -14.5532   20.6689 O   0  0  0  0  0  0
  -24.6134  -31.8695   23.2111 C   0  0  0  0  0  0
  -25.9033  -32.4832   23.8406 C   0  0  1  0  0  0
  -27.2338  -27.4505   20.0878 C   0  0  0  0  0  0
  -25.5899  -33.8629   24.2343 N   0  0  0  0  0  0
  -23.4019  -30.4918   21.5511 C   0  0  2  0  0  0
  -24.8511  -28.9601   20.1130 C   0  0  0  0  0  0
  -22.7409  -29.4663   22.4996 C   0  0  0  0  0  0
  -18.0274  -28.1380   22.8485 C   0  0  0  0  0  0
  -24.1486  -36.7304   23.2638 C   0  0  0  0  0  0
  -25.9299  -30.8381   21.3653 C   0  0  0  0  0  0
  -26.0088  -29.4735   20.7128 C   0  0  0  0  0  0
  -27.2066  -28.7227   20.7031 C   0  0  0  0  0  0
  -26.0683  -26.9517   19.4772 C   0  0  0  0  0  0
  -24.8746  -27.6976   19.4936 C   0  0  0  0  0  0
  -23.6107  -29.8236   20.1654 C   0  0  0  0  0  0
  -25.4109  -36.3114   24.0343 C   0  0  1  0  0  0
  -20.5864  -28.3664   23.1320 C   0  0  2  0  0  0
  -20.6773  -26.9403   22.5418 C   0  0  0  0  0  0
  -19.5758  -26.6386   21.5213 C   0  0  0  0  0  0
  -18.1930  -26.7926   22.1615 C   0  0  0  0  0  0
  -19.1525  -28.8835   23.2904 C   0  0  0  0  0  0
  -18.9457  -30.1440   23.8919 C   0  0  0  0  0  0
  -17.6461  -30.6584   24.0569 C   0  0  0  0  0  0
  -25.9033  -34.9478   23.5135 C   0  0  0  0  0  0
  -16.5348  -29.9093   23.6324 C   0  0  0  0  0  0
  -16.7264  -28.6509   23.0341 C   0  0  0  0  0  0
  -26.4465  -31.6598   25.0718 C   0  0  0  0  0  0
  -25.3726  -31.3698   26.1461 C   0  0  0  0  0  0
  -27.0301  -30.3050   24.6074 C   0  0  0  0  0  0
  -27.6045  -32.4304   25.7486 C   0  0  0  0  0  0
  -27.5584  -37.1802   24.8465 C   0  0  0  0  0  0
  -21.4137  -29.3029   22.3726 N   0  0  0  0  0  0
  -26.4294  -37.3798   23.9407 N   0  0  0  0  0  0
  -24.6664  -31.0805   22.1010 N   0  0  0  0  0  0
  -23.4185  -28.8216   23.3045 O   0  0  0  0  0  0
  -28.3621  -26.6675   20.0781 O   0  0  0  0  0  0
  -26.5598  -34.8924   22.4696 O   0  0  0  0  0  0
  -23.5330  -32.1432   23.7519 O   0  0  0  0  0  0
  -30.6441  -22.1182   21.7195 C   0  0  0  0  0  0
  -28.9927  -20.9912   20.6364 C   0  0  0  0  0  0
  -29.4776  -22.2768   21.0370 C   0  0  0  0  0  0
  -29.9223  -20.0633   21.0722 C   0  0  0  0  0  0
  -29.5899  -17.7254   22.1344 C   0  0  0  0  0  0
  -29.3165  -17.9158   19.7362 C   0  0  0  0  0  0
  -30.0605  -16.2508   22.0375 C   0  0  0  0  0  0
  -29.7939  -16.4654   19.5053 C   0  0  0  0  0  0
  -30.0434  -18.5489   20.9228 C   0  0  0  0  0  0
  -27.7171  -20.7198   19.8751 C   0  0  0  0  0  0
  -32.1034  -20.2134   22.3952 C   0  0  0  0  0  0
  -29.5094  -24.7628   21.1813 C   0  0  0  0  0  0
  -28.5530  -25.9715   21.3108 C   0  0  0  0  0  0
  -30.9203  -20.7676   21.7543 N   0  0  0  0  0  0
  -29.9521  -15.6010   20.7086 N   0  0  0  0  0  0
  -28.8560  -23.5122   20.7734 N   0  0  0  0  0  0
  -31.4587  -12.3756   19.1293 H   0  0  0  0  0  0
  -30.2912  -11.2960   19.8410 H   0  0  0  0  0  0
  -29.7297  -11.7633   17.4307 H   0  0  0  0  0  0
  -29.6641  -13.4754   17.7623 H   0  0  0  0  0  0
  -27.8166  -11.3057   18.8177 H   0  0  0  0  0  0
  -27.3624  -12.6319   17.7832 H   0  0  0  0  0  0
  -27.6818  -14.2519   19.5554 H   0  0  0  0  0  0
  -28.6752  -12.0075   21.3778 H   0  0  0  0  0  0
  -28.4774  -13.6793   21.8370 H   0  0  0  0  0  0
  -25.2750   -9.5672   22.4761 H   0  0  0  0  0  0
  -23.9996   -7.4618   22.7468 H   0  0  0  0  0  0
  -21.0839   -8.8747   19.8945 H   0  0  0  0  0  0
  -22.3682  -10.9656   19.6153 H   0  0  0  0  0  0
  -21.1985   -7.6137   23.9723 H   0  0  0  0  0  0
  -21.1492   -6.0513   25.9084 H   0  0  0  0  0  0
  -22.0598   -2.7607   23.2852 H   0  0  0  0  0  0
  -22.4072  -11.9881   22.4790 H   0  0  0  0  0  0
  -21.1093  -13.1263   22.2586 H   0  0  0  0  0  0
  -24.6704  -15.8485   20.5279 H   0  0  0  0  0  0
  -26.3011  -15.6269   20.1398 H   0  0  0  0  0  0
  -26.7111  -32.5557   23.1179 H   0  0  0  0  0  0
  -25.0051  -33.9799   25.0490 H   0  0  0  0  0  0
  -22.6885  -31.3073   21.4125 H   0  0  0  0  0  0
  -23.3755  -35.9630   23.3310 H   0  0  0  0  0  0
  -24.3582  -36.8908   22.2051 H   0  0  0  0  0  0
  -23.7225  -37.6507   23.6640 H   0  0  0  0  0  0
  -26.0423  -31.6065   20.5995 H   0  0  0  0  0  0
  -26.8172  -30.8906   21.9838 H   0  0  0  0  0  0
  -28.1017  -29.1127   21.1666 H   0  0  0  0  0  0
  -26.0854  -25.9819   18.9995 H   0  0  0  0  0  0
  -23.9856  -27.2974   19.0263 H   0  0  0  0  0  0
  -23.7132  -30.5984   19.4049 H   0  0  0  0  0  0
  -22.7361  -29.2395   19.8724 H   0  0  0  0  0  0
  -25.1284  -36.1986   25.0840 H   0  0  0  0  0  0
  -20.9953  -28.3233   24.1442 H   0  0  0  0  0  0
  -20.5690  -26.2269   23.3604 H   0  0  0  0  0  0
  -21.6643  -26.7457   22.1202 H   0  0  0  0  0  0
  -19.6923  -25.6304   21.1232 H   0  0  0  0  0  0
  -19.6710  -27.3204   20.6755 H   0  0  0  0  0  0
  -17.4208  -26.6682   21.4013 H   0  0  0  0  0  0
  -18.0323  -26.0065   22.9004 H   0  0  0  0  0  0
  -19.7934  -30.7249   24.2300 H   0  0  0  0  0  0
  -17.5016  -31.6266   24.5165 H   0  0  0  0  0  0
  -15.5348  -30.3005   23.7635 H   0  0  0  0  0  0
  -15.8661  -28.0839   22.7041 H   0  0  0  0  0  0
  -24.5894  -30.7066   25.7775 H   0  0  0  0  0  0
  -24.8926  -32.2858   26.4913 H   0  0  0  0  0  0
  -25.8059  -30.8844   27.0211 H   0  0  0  0  0  0
  -26.2848  -29.6823   24.1114 H   0  0  0  0  0  0
  -27.4082  -29.7270   25.4513 H   0  0  0  0  0  0
  -27.8673  -30.4397   23.9220 H   0  0  0  0  0  0
  -27.2671  -33.3589   26.2101 H   0  0  0  0  0  0
  -28.3833  -32.6885   25.0297 H   0  0  0  0  0  0
  -28.0732  -31.8402   26.5368 H   0  0  0  0  0  0
  -28.2593  -38.0107   24.7518 H   0  0  0  0  0  0
  -28.1087  -36.2632   24.6279 H   0  0  0  0  0  0
  -27.2300  -37.1444   25.8869 H   0  0  0  0  0  0
  -20.9298  -29.8726   21.6927 H   0  0  0  0  0  0
  -26.0190  -38.2879   24.1412 H   0  0  0  0  0  0
  -31.3147  -22.8304   22.1812 H   0  0  0  0  0  0
  -29.9759  -18.1554   23.0581 H   0  0  0  0  0  0
  -28.5032  -17.7708   22.2252 H   0  0  0  0  0  0
  -28.2370  -17.9354   19.8896 H   0  0  0  0  0  0
  -29.5061  -18.4927   18.8303 H   0  0  0  0  0  0
  -29.5187  -15.6515   22.7700 H   0  0  0  0  0  0
  -31.1070  -16.2224   22.3494 H   0  0  0  0  0  0
  -30.7493  -16.5339   18.9800 H   0  0  0  0  0  0
  -29.1180  -15.9775   18.8021 H   0  0  0  0  0  0
  -31.1014  -18.3389   20.7618 H   0  0  0  0  0  0
  -27.1430  -21.6326   19.7247 H   0  0  0  0  0  0
  -27.0897  -20.0182   20.4246 H   0  0  0  0  0  0
  -27.9324  -20.2997   18.8929 H   0  0  0  0  0  0
  -32.6906  -21.0062   22.8606 H   0  0  0  0  0  0
  -32.7318  -19.7118   21.6594 H   0  0  0  0  0  0
  -31.8176  -19.5039   23.1706 H   0  0  0  0  0  0
  -29.9460  -24.6117   22.1689 H   0  0  0  0  0  0
  -30.3381  -24.9984   20.5117 H   0  0  0  0  0  0
  -28.9911  -26.6847   22.0106 H   0  0  0  0  0  0
  -27.6051  -25.6549   21.7522 H   0  0  0  0  0  0
  -28.0639  -23.5605   20.1380 H   0  0  0  0  0  0
  1 25  1  0  0  0
  1 30  2  0  0  0
  1 85  1  0  0  0
  2  3  1  0  0  0
  2 25  1  0  0  0
  2 87  1  0  0  0
  2 88  1  0  0  0
  3  4  1  0  0  0
  3 89  1  0  0  0
  3 90  1  0  0  0
  4  5  1  0  0  0
  4 91  1  0  0  0
  4 92  1  0  0  0
  5  6  1  0  0  0
  5 26  1  0  0  0
  5 93  1  0  0  0
  6 25  1  0  0  0
  6 94  1  0  0  0
  6 95  1  0  0  0
  7  8  2  0  0  0
  7 26  1  0  0  0
  7 29  1  0  0  0
  8  9  1  0  0  0
  8 22  1  0  0  0
  9 10  1  0  0  0
  9 27  2  0  0  0
 10 11  2  0  0  0
 10 15  1  0  0  0
 11 12  1  0  0  0
 11 96  1  0  0  0
 12 13  2  0  0  0
 12 97  1  0  0  0
 13 14  1  0  0  0
 13 31  1  0  0  0
 14 15  2  0  0  0
 14 98  1  0  0  0
 15 99  1  0  0  0
 16 17  2  0  0  0
 16 21  1  0  0  0
 16 31  1  0  0  0
 17 18  1  0  0  0
 17100  1  0  0  0
 18 19  2  0  0  0
 18101  1  0  0  0
 19 20  1  0  0  0
 19 24  1  0  0  0
 20 21  2  0  0  0
 20102  1  0  0  0
 21 23  1  0  0  0
 22 28  1  0  0  0
 22 32  2  0  0  0
 26 27  1  0  0  0
 28103  1  0  0  0
 28104  1  0  0  0
 29105  1  0  0  0
 29106  1  0  0  0
 33 34  1  0  0  0
 33 66  1  0  0  0
 33 70  2  0  0  0
 34 36  1  0  0  0
 34 59  1  0  0  0
 34107  1  0  0  0
 35 44  2  0  0  0
 35 45  1  0  0  0
 35 68  1  0  0  0
 36 56  1  0  0  0
 36108  1  0  0  0
 37 39  1  0  0  0
 37 47  1  0  0  0
 37 66  1  0  0  0
 37109  1  0  0  0
 38 43  2  0  0  0
 38 46  1  0  0  0
 38 47  1  0  0  0
 39 64  1  0  0  0
 39 67  2  0  0  0
 40 52  1  0  0  0
 40 53  2  0  0  0
 40 58  1  0  0  0
 41110  1  0  0  0
 41111  1  0  0  0
 41112  1  0  0  0
 41 48  1  0  0  0
 42 43  1  0  0  0
 42 66  1  0  0  0
 42113  1  0  0  0
 42114  1  0  0  0
 43 44  1  0  0  0
 44115  1  0  0  0
 45 46  2  0  0  0
 45116  1  0  0  0
 46117  1  0  0  0
 47118  1  0  0  0
 47119  1  0  0  0
 48 56  1  0  0  0
 48 65  1  0  0  0
 48120  1  0  0  0
 49 50  1  0  0  0
 49 53  1  0  0  0
 49 64  1  0  0  0
 49121  1  0  0  0
 50 51  1  0  0  0
 50122  1  0  0  0
 50123  1  0  0  0
 51 52  1  0  0  0
 51124  1  0  0  0
 51125  1  0  0  0
 52126  1  0  0  0
 52127  1  0  0  0
 53 54  1  0  0  0
 54 55  2  0  0  0
 54128  1  0  0  0
 55 57  1  0  0  0
 55129  1  0  0  0
 56 69  2  0  0  0
 57 58  2  0  0  0
 57130  1  0  0  0
 58131  1  0  0  0
 59 60  1  0  0  0
 59 61  1  0  0  0
 59 62  1  0  0  0
 60132  1  0  0  0
 60133  1  0  0  0
 60134  1  0  0  0
 61135  1  0  0  0
 61136  1  0  0  0
 61137  1  0  0  0
 62138  1  0  0  0
 62139  1  0  0  0
 62140  1  0  0  0
 63 65  1  0  0  0
 63141  1  0  0  0
 63142  1  0  0  0
 63143  1  0  0  0
 64144  1  0  0  0
 65145  1  0  0  0
 68 83  1  0  0  0
 71 73  2  0  0  0
 71 84  1  0  0  0
 71146  1  0  0  0
 72 73  1  0  0  0
 72 74  2  0  0  0
 72 80  1  0  0  0
 73 86  1  0  0  0
 74 84  1  0  0  0
 74 79  1  0  0  0
 75 77  1  0  0  0
 75 79  1  0  0  0
 75147  1  0  0  0
 75148  1  0  0  0
 76 78  1  0  0  0
 76 79  1  0  0  0
 76149  1  0  0  0
 76150  1  0  0  0
 77 85  1  0  0  0
 77151  1  0  0  0
 77152  1  0  0  0
 78 85  1  0  0  0
 78153  1  0  0  0
 78154  1  0  0  0
 79155  1  0  0  0
 80156  1  0  0  0
 80157  1  0  0  0
 80158  1  0  0  0
 81 84  1  0  0  0
 81159  1  0  0  0
 81160  1  0  0  0
 81161  1  0  0  0
 82 83  1  0  0  0
 82 86  1  0  0  0
 82162  1  0  0  0
 82163  1  0  0  0
 83164  1  0  0  0
 83165  1  0  0  0
 86166  1  0  0  0
M  ISO  4   1 100  68 101  83 101  85 100
M  END
> <chiral flag>
0

> <version>
0

> <s_m_source_file>
/data/baiqing/PycharmProjects/Reinvent-master-3.2/result/LINK_invent/BTK/process_docking_weight1_custom_sum_contain_oxygen_bond_distance_aromatic_linkinvent_7_9_3/rearranged_h_0139.sdf

> <i_m_source_file_index>
27

> <r_mmod_Potential_Energy-OPLS-2005>
136.724060058594

> <r_mmod_Stretch_Energy-OPLS-2005>
40.2771987915039

> <r_mmod_Bend_Energy-OPLS-2005>
127.225784301758

> <r_mmod_Torsional_Energy-OPLS-2005>
369.993316650391

> <r_mmod_Improper_Torsional_Energy-OPLS-2005>
11.6532220840454

> <r_mmod_Van_der_Waal_Energy-OPLS-2005>
131.461791992188

> <r_mmod_Electrostatic_Energy-OPLS-2005>
-350.958953857422

> <r_mmod_Solvation_Energy-OPLS-2005>
-209.382537841797

> <b_mmod_Minimization_Converged-OPLS-2005>
0

> <r_mmod_RMS_Derivative-OPLS-2005>
1.34904801845551

$$$$
27
                    3D
 Structure written by MMmdl.
173182  0  0  1  0            999 V2000
  -30.6446  -14.5838   20.5445 C   0  0  0  0  0  0
  -30.4351  -12.3708   19.4479 C   0  0  0  0  0  0
  -29.5123  -12.5165   18.2195 C   0  0  0  0  0  0
  -28.0317  -12.3528   18.6237 C   0  0  0  0  0  0
  -27.6539  -13.2143   19.8596 C   0  0  2  0  0  0
  -28.6925  -13.0428   20.9921 C   0  0  0  0  0  0
  -25.2563  -13.8171   20.5661 C   0  0  0  0  0  0
  -24.1827  -13.0433   20.9161 C   0  0  0  0  0  0
  -24.6384  -11.6899   20.8684 C   0  0  0  0  0  0
  -23.9035  -10.4282   21.0343 C   0  0  0  0  0  0
  -24.3595   -9.4212   21.9130 C   0  0  0  0  0  0
  -23.6302   -8.2246   22.0712 C   0  0  0  0  0  0
  -22.4294   -8.0256   21.3509 C   0  0  0  0  0  0
  -21.9891   -9.0224   20.4613 C   0  0  0  0  0  0
  -22.7196  -10.2114   20.3013 C   0  0  0  0  0  0
  -21.6865   -6.0719   22.5265 C   0  0  0  0  0  0
  -21.4023   -6.5622   23.8192 C   0  0  0  0  0  0
  -21.3657   -5.6774   24.9160 C   0  0  0  0  0  0
  -21.6058   -4.3041   24.7210 C   0  0  0  0  0  0
  -21.8823   -3.8124   23.4330 C   0  0  0  0  0  0
  -21.9196   -4.6947   22.3385 C   0  0  0  0  0  0
  -22.7850  -13.5225   21.1838 C   0  0  0  0  0  0
  -22.1675   -4.2133   21.0965 F   0  0  0  0  0  0
  -21.5614   -3.4518   25.7717 F   0  0  0  0  0  0
  -30.0147  -13.3766   20.4413 N   0  0  0  0  0  0
  -26.2978  -12.9339   20.3251 N   0  0  0  0  0  0
  -25.9304  -11.6495   20.5664 N   0  0  0  0  0  0
  -22.0504  -12.8233   22.0415 N   0  0  0  0  0  0
  -25.4246  -15.1908   20.4111 N   0  0  0  0  0  0
  -31.7971  -14.7546   20.1355 O   0  0  0  0  0  0
  -21.6647   -6.8868   21.4228 O   0  0  0  0  0  0
  -22.3505  -14.5505   20.6651 O   0  0  0  0  0  0
  -24.6248  -31.8594   23.2028 C   0  0  0  0  0  0
  -25.9111  -32.4768   23.8336 C   0  0  1  0  0  0
  -27.2193  -27.3355   20.0928 C   0  0  0  0  0  0
  -25.5941  -33.8568   24.2269 N   0  0  0  0  0  0
  -23.4152  -30.4857   21.5447 C   0  0  2  0  0  0
  -24.8585  -28.9418   20.1086 C   0  0  0  0  0  0
  -22.7465  -29.4624   22.4920 C   0  0  0  0  0  0
  -18.0279  -28.1368   22.8489 C   0  0  0  0  0  0
  -24.1492  -36.7296   23.2634 C   0  0  0  0  0  0
  -25.9560  -30.7930   21.3720 C   0  0  0  0  0  0
  -26.0274  -29.4234   20.7109 C   0  0  0  0  0  0
  -27.2078  -28.6271   20.7019 C   0  0  0  0  0  0
  -26.0228  -26.8925   19.4966 C   0  0  0  0  0  0
  -24.8553  -27.6776   19.4998 C   0  0  0  0  0  0
  -23.6282  -29.8230   20.1586 C   0  0  0  0  0  0
  -25.4109  -36.3083   24.0335 C   0  0  1  0  0  0
  -20.5883  -28.3670   23.1287 C   0  0  2  0  0  0
  -20.6767  -26.9392   22.5410 C   0  0  0  0  0  0
  -19.5739  -26.6368   21.5210 C   0  0  0  0  0  0
  -18.1921  -26.7913   22.1628 C   0  0  0  0  0  0
  -19.1535  -28.8834   23.2884 C   0  0  0  0  0  0
  -18.9460  -30.1437   23.8891 C   0  0  0  0  0  0
  -17.6458  -30.6579   24.0552 C   0  0  0  0  0  0
  -25.9053  -34.9451   23.5106 C   0  0  0  0  0  0
  -16.5349  -29.9071   23.6328 C   0  0  0  0  0  0
  -16.7269  -28.6492   23.0356 C   0  0  0  0  0  0
  -26.4495  -31.6587   25.0712 C   0  0  0  0  0  0
  -25.3746  -31.3732   26.1462 C   0  0  0  0  0  0
  -27.0323  -30.3010   24.6163 C   0  0  0  0  0  0
  -27.6047  -32.4321   25.7489 C   0  0  0  0  0  0
  -27.5591  -37.1783   24.8447 C   0  0  0  0  0  0
  -21.4182  -29.3034   22.3692 N   0  0  0  0  0  0
  -26.4278  -37.3790   23.9436 N   0  0  0  0  0  0
  -24.6839  -31.0631   22.0964 N   0  0  0  0  0  0
  -23.4218  -28.8166   23.2980 O   0  0  0  0  0  0
  -28.3431  -26.5082   20.1656 O   0  0  0  0  0  0
  -26.5610  -34.8924   22.4663 O   0  0  0  0  0  0
  -23.5423  -32.1375   23.7387 O   0  0  0  0  0  0
  -26.6855  -22.3314   18.1524 C   0  0  0  0  0  0
  -27.0480  -23.6686   18.3519 C   0  0  0  0  0  0
  -27.4258  -21.3060   18.7717 C   0  0  0  0  0  0
  -28.1174  -24.0011   19.2055 C   0  0  0  0  0  0
  -28.4903  -21.6654   19.6424 C   0  0  0  0  0  0
  -26.8881  -18.2372   17.0441 C   0  0  0  0  0  0
  -25.9540  -19.3481   17.5532 C   0  0  0  0  0  0
  -28.0289  -19.2278   17.2816 C   0  0  0  0  0  0
  -27.1524  -19.8599   18.3772 C   0  0  0  0  0  0
  -31.0185  -25.4602   20.1863 C   0  0  0  0  0  0
  -30.5733  -26.8209   18.1013 C   0  0  0  0  0  0
  -29.0273  -18.0519   20.5895 C   0  0  0  0  0  0
  -28.9465  -19.5732   21.0745 C   0  0  0  0  0  0
  -30.2059  -17.0959   21.0238 C   0  0  0  0  0  0
  -28.6577  -25.4916   19.1506 C   0  0  2  0  0  0
  -30.1848  -25.5570   18.8912 C   0  0  0  0  0  0
  -28.8006  -22.9881   19.8565 N   0  0  0  0  0  0
  -29.3811  -20.6820   20.1730 N   0  0  0  0  0  0
  -29.8753  -15.6325   20.9589 N   0  0  0  0  0  0
  -31.4770  -12.4993   19.1484 H   0  0  0  0  0  0
  -30.3683  -11.3643   19.8625 H   0  0  0  0  0  0
  -29.7860  -11.7828   17.4616 H   0  0  0  0  0  0
  -29.6613  -13.4979   17.7661 H   0  0  0  0  0  0
  -27.8688  -11.2958   18.8425 H   0  0  0  0  0  0
  -27.3832  -12.5926   17.7790 H   0  0  0  0  0  0
  -27.6789  -14.2537   19.5312 H   0  0  0  0  0  0
  -28.6885  -12.0175   21.3644 H   0  0  0  0  0  0
  -28.4367  -13.6652   21.8506 H   0  0  0  0  0  0
  -25.2746   -9.5716   22.4679 H   0  0  0  0  0  0
  -24.0015   -7.4648   22.7436 H   0  0  0  0  0  0
  -21.0814   -8.8732   19.8945 H   0  0  0  0  0  0
  -22.3634  -10.9637   19.6110 H   0  0  0  0  0  0
  -21.2042   -7.6132   23.9697 H   0  0  0  0  0  0
  -21.1471   -6.0498   25.9061 H   0  0  0  0  0  0
  -22.0617   -2.7591   23.2818 H   0  0  0  0  0  0
  -22.4163  -11.9974   22.4916 H   0  0  0  0  0  0
  -21.1077  -13.1180   22.2513 H   0  0  0  0  0  0
  -24.6462  -15.8342   20.5036 H   0  0  0  0  0  0
  -26.2709  -15.6361   20.0820 H   0  0  0  0  0  0
  -26.7168  -32.5424   23.1062 H   0  0  0  0  0  0
  -25.0118  -33.9694   25.0439 H   0  0  0  0  0  0
  -22.7068  -31.3047   21.4048 H   0  0  0  0  0  0
  -23.3766  -35.9613   23.3254 H   0  0  0  0  0  0
  -24.3606  -36.8959   22.2059 H   0  0  0  0  0  0
  -23.7219  -37.6482   23.6669 H   0  0  0  0  0  0
  -26.0896  -31.5576   20.6057 H   0  0  0  0  0  0
  -26.8377  -30.8356   22.0006 H   0  0  0  0  0  0
  -28.1034  -28.9931   21.1842 H   0  0  0  0  0  0
  -25.9446  -25.9091   19.0737 H   0  0  0  0  0  0
  -23.9522  -27.2872   19.0515 H   0  0  0  0  0  0
  -23.7531  -30.6005   19.4038 H   0  0  0  0  0  0
  -22.7461  -29.2568   19.8531 H   0  0  0  0  0  0
  -25.1278  -36.1922   25.0825 H   0  0  0  0  0  0
  -20.9970  -28.3225   24.1407 H   0  0  0  0  0  0
  -20.5661  -26.2264   23.3604 H   0  0  0  0  0  0
  -21.6632  -26.7414   22.1199 H   0  0  0  0  0  0
  -19.6901  -25.6282   21.1224 H   0  0  0  0  0  0
  -19.6681  -27.3182   20.6746 H   0  0  0  0  0  0
  -17.4195  -26.6660   21.4030 H   0  0  0  0  0  0
  -18.0321  -26.0051   22.9021 H   0  0  0  0  0  0
  -19.7935  -30.7248   24.2261 H   0  0  0  0  0  0
  -17.5020  -31.6261   24.5145 H   0  0  0  0  0  0
  -15.5350  -30.2974   23.7664 H   0  0  0  0  0  0
  -15.8667  -28.0809   22.7079 H   0  0  0  0  0  0
  -24.5900  -30.7088   25.7824 H   0  0  0  0  0  0
  -24.8953  -32.2902   26.4904 H   0  0  0  0  0  0
  -25.8104  -30.8911   27.0225 H   0  0  0  0  0  0
  -26.2886  -29.6767   24.1194 H   0  0  0  0  0  0
  -27.4032  -29.7260   25.4660 H   0  0  0  0  0  0
  -27.8757  -30.4294   23.9372 H   0  0  0  0  0  0
  -27.2645  -33.3610   26.2080 H   0  0  0  0  0  0
  -28.3864  -32.6908   25.0334 H   0  0  0  0  0  0
  -28.0707  -31.8438   26.5406 H   0  0  0  0  0  0
  -28.2546  -38.0143   24.7595 H   0  0  0  0  0  0
  -28.1156  -36.2685   24.6138 H   0  0  0  0  0  0
  -27.2332  -37.1268   25.8851 H   0  0  0  0  0  0
  -20.9346  -29.8783   21.6936 H   0  0  0  0  0  0
  -26.0158  -38.2857   24.1493 H   0  0  0  0  0  0
  -25.8936  -22.1090   17.4522 H   0  0  0  0  0  0
  -26.5437  -24.4222   17.7653 H   0  0  0  0  0  0
  -26.7525  -17.9346   16.0056 H   0  0  0  0  0  0
  -26.9378  -17.3743   17.7140 H   0  0  0  0  0  0
  -25.1057  -19.0008   18.1444 H   0  0  0  0  0  0
  -25.6354  -20.0058   16.7424 H   0  0  0  0  0  0
  -28.1804  -19.8961   16.4323 H   0  0  0  0  0  0
  -28.9819  -18.8093   17.5981 H   0  0  0  0  0  0
  -27.1311  -19.2733   19.2906 H   0  0  0  0  0  0
  -32.0842  -25.3765   19.9703 H   0  0  0  0  0  0
  -30.7403  -24.5897   20.7792 H   0  0  0  0  0  0
  -30.8724  -26.3368   20.8190 H   0  0  0  0  0  0
  -31.6421  -26.8395   17.8853 H   0  0  0  0  0  0
  -30.3318  -27.7261   18.6598 H   0  0  0  0  0  0
  -30.0466  -26.8705   17.1473 H   0  0  0  0  0  0
  -28.9125  -17.9632   19.5159 H   0  0  0  0  0  0
  -28.1215  -17.5927   20.9883 H   0  0  0  0  0  0
  -29.4868  -19.6703   22.0166 H   0  0  0  0  0  0
  -27.9093  -19.7843   21.3432 H   0  0  0  0  0  0
  -30.4930  -17.3210   22.0516 H   0  0  0  0  0  0
  -31.0824  -17.3068   20.4085 H   0  0  0  0  0  0
  -28.2209  -25.8809   18.2284 H   0  0  0  0  0  0
  -30.4390  -24.7071   18.2554 H   0  0  0  0  0  0
  -30.2294  -21.1166   20.5184 H   0  0  0  0  0  0
  -28.9486  -15.3775   21.2648 H   0  0  0  0  0  0
  1 25  1  0  0  0
  1 30  2  0  0  0
  1 89  1  0  0  0
  2  3  1  0  0  0
  2 25  1  0  0  0
  2 90  1  0  0  0
  2 91  1  0  0  0
  3  4  1  0  0  0
  3 92  1  0  0  0
  3 93  1  0  0  0
  4  5  1  0  0  0
  4 94  1  0  0  0
  4 95  1  0  0  0
  5  6  1  0  0  0
  5 26  1  0  0  0
  5 96  1  0  0  0
  6 25  1  0  0  0
  6 97  1  0  0  0
  6 98  1  0  0  0
  7  8  2  0  0  0
  7 26  1  0  0  0
  7 29  1  0  0  0
  8  9  1  0  0  0
  8 22  1  0  0  0
  9 10  1  0  0  0
  9 27  2  0  0  0
 10 11  2  0  0  0
 10 15  1  0  0  0
 11 12  1  0  0  0
 11 99  1  0  0  0
 12 13  2  0  0  0
 12100  1  0  0  0
 13 14  1  0  0  0
 13 31  1  0  0  0
 14 15  2  0  0  0
 14101  1  0  0  0
 15102  1  0  0  0
 16 17  2  0  0  0
 16 21  1  0  0  0
 16 31  1  0  0  0
 17 18  1  0  0  0
 17103  1  0  0  0
 18 19  2  0  0  0
 18104  1  0  0  0
 19 20  1  0  0  0
 19 24  1  0  0  0
 20 21  2  0  0  0
 20105  1  0  0  0
 21 23  1  0  0  0
 22 28  1  0  0  0
 22 32  2  0  0  0
 26 27  1  0  0  0
 28106  1  0  0  0
 28107  1  0  0  0
 29108  1  0  0  0
 29109  1  0  0  0
 33 34  1  0  0  0
 33 66  1  0  0  0
 33 70  2  0  0  0
 34 36  1  0  0  0
 34 59  1  0  0  0
 34110  1  0  0  0
 35 44  2  0  0  0
 35 45  1  0  0  0
 35 68  1  0  0  0
 36 56  1  0  0  0
 36111  1  0  0  0
 37 39  1  0  0  0
 37 47  1  0  0  0
 37 66  1  0  0  0
 37112  1  0  0  0
 38 43  2  0  0  0
 38 46  1  0  0  0
 38 47  1  0  0  0
 39 64  1  0  0  0
 39 67  2  0  0  0
 40 52  1  0  0  0
 40 53  2  0  0  0
 40 58  1  0  0  0
 41113  1  0  0  0
 41114  1  0  0  0
 41115  1  0  0  0
 41 48  1  0  0  0
 42 43  1  0  0  0
 42 66  1  0  0  0
 42116  1  0  0  0
 42117  1  0  0  0
 43 44  1  0  0  0
 44118  1  0  0  0
 45 46  2  0  0  0
 45119  1  0  0  0
 46120  1  0  0  0
 47121  1  0  0  0
 47122  1  0  0  0
 48 56  1  0  0  0
 48 65  1  0  0  0
 48123  1  0  0  0
 49 50  1  0  0  0
 49 53  1  0  0  0
 49 64  1  0  0  0
 49124  1  0  0  0
 50 51  1  0  0  0
 50125  1  0  0  0
 50126  1  0  0  0
 51 52  1  0  0  0
 51127  1  0  0  0
 51128  1  0  0  0
 52129  1  0  0  0
 52130  1  0  0  0
 53 54  1  0  0  0
 54 55  2  0  0  0
 54131  1  0  0  0
 55 57  1  0  0  0
 55132  1  0  0  0
 56 69  2  0  0  0
 57 58  2  0  0  0
 57133  1  0  0  0
 58134  1  0  0  0
 59 60  1  0  0  0
 59 61  1  0  0  0
 59 62  1  0  0  0
 60135  1  0  0  0
 60136  1  0  0  0
 60137  1  0  0  0
 61138  1  0  0  0
 61139  1  0  0  0
 61140  1  0  0  0
 62141  1  0  0  0
 62142  1  0  0  0
 62143  1  0  0  0
 63 65  1  0  0  0
 63144  1  0  0  0
 63145  1  0  0  0
 63146  1  0  0  0
 64147  1  0  0  0
 65148  1  0  0  0
 68 85  1  0  0  0
 71 72  2  0  0  0
 71 73  1  0  0  0
 71149  1  0  0  0
 72 74  1  0  0  0
 72150  1  0  0  0
 73 75  2  0  0  0
 73 79  1  0  0  0
 74 85  1  0  0  0
 74 87  2  0  0  0
 75 87  1  0  0  0
 75 88  1  0  0  0
 76 77  1  0  0  0
 76 78  1  0  0  0
 76151  1  0  0  0
 76152  1  0  0  0
 77 79  1  0  0  0
 77153  1  0  0  0
 77154  1  0  0  0
 78 79  1  0  0  0
 78155  1  0  0  0
 78156  1  0  0  0
 79157  1  0  0  0
 80158  1  0  0  0
 80159  1  0  0  0
 80160  1  0  0  0
 80 86  1  0  0  0
 81 86  1  0  0  0
 81161  1  0  0  0
 81162  1  0  0  0
 81163  1  0  0  0
 82 83  1  0  0  0
 82 84  1  0  0  0
 82164  1  0  0  0
 82165  1  0  0  0
 83 88  1  0  0  0
 83166  1  0  0  0
 83167  1  0  0  0
 84 89  1  0  0  0
 84168  1  0  0  0
 84169  1  0  0  0
 85 86  1  0  0  0
 85170  1  0  0  0
 86171  1  0  0  0
 88172  1  0  0  0
 89173  1  0  0  0
M  ISO  4   1 100  68 101  85 101  89 100
M  END
> <chiral flag>
0

> <version>
0

> <s_m_source_file>
/data/baiqing/PycharmProjects/Reinvent-master-3.2/result/LINK_invent/BTK/process_docking_weight1_custom_sum_contain_oxygen_bond_distance_aromatic_linkinvent_7_9_3/rearranged_h_0139.sdf

> <i_m_source_file_index>
28

> <r_mmod_Potential_Energy-OPLS-2005>
-10.4376630783081

> <r_mmod_Stretch_Energy-OPLS-2005>
77.0929718017578

> <r_mmod_Bend_Energy-OPLS-2005>
193.3974609375

> <r_mmod_Torsional_Energy-OPLS-2005>
257.447143554688

> <r_mmod_Improper_Torsional_Energy-OPLS-2005>
11.0485687255859

> <r_mmod_Van_der_Waal_Energy-OPLS-2005>
148.83625793457

> <r_mmod_Electrostatic_Energy-OPLS-2005>
-510.815490722656

> <r_mmod_Solvation_Energy-OPLS-2005>
-225.080749511719

> <b_mmod_Minimization_Converged-OPLS-2005>
0

> <r_mmod_RMS_Derivative-OPLS-2005>
3.20645928382874

$$$$
28
                    3D
 Structure written by MMmdl.
161170  0  0  1  0            999 V2000
  -30.7226  -14.4945   20.5614 C   0  0  0  0  0  0
  -30.4162  -12.3226   19.4238 C   0  0  0  0  0  0
  -29.4901  -12.4998   18.2053 C   0  0  0  0  0  0
  -28.0132  -12.3596   18.6210 C   0  0  0  0  0  0
  -27.6572  -13.2137   19.8680 C   0  0  2  0  0  0
  -28.7016  -13.0306   20.9915 C   0  0  0  0  0  0
  -25.2568  -13.8166   20.5670 C   0  0  0  0  0  0
  -24.1829  -13.0447   20.9176 C   0  0  0  0  0  0
  -24.6390  -11.6910   20.8733 C   0  0  0  0  0  0
  -23.9061  -10.4295   21.0405 C   0  0  0  0  0  0
  -24.3619   -9.4209   21.9181 C   0  0  0  0  0  0
  -23.6294   -8.2245   22.0753 C   0  0  0  0  0  0
  -22.4278   -8.0284   21.3541 C   0  0  0  0  0  0
  -21.9910   -9.0257   20.4644 C   0  0  0  0  0  0
  -22.7236  -10.2136   20.3053 C   0  0  0  0  0  0
  -21.6851   -6.0743   22.5278 C   0  0  0  0  0  0
  -21.4013   -6.5642   23.8217 C   0  0  0  0  0  0
  -21.3655   -5.6795   24.9172 C   0  0  0  0  0  0
  -21.6042   -4.3059   24.7225 C   0  0  0  0  0  0
  -21.8819   -3.8154   23.4343 C   0  0  0  0  0  0
  -21.9193   -4.6968   22.3403 C   0  0  0  0  0  0
  -22.7847  -13.5237   21.1848 C   0  0  0  0  0  0
  -22.1661   -4.2156   21.0980 F   0  0  0  0  0  0
  -21.5628   -3.4543   25.7736 F   0  0  0  0  0  0
  -30.0282  -13.3294   20.4270 N   0  0  0  0  0  0
  -26.3012  -12.9351   20.3339 N   0  0  0  0  0  0
  -25.9323  -11.6506   20.5774 N   0  0  0  0  0  0
  -22.0497  -12.8233   22.0404 N   0  0  0  0  0  0
  -25.4294  -15.1890   20.4049 N   0  0  0  0  0  0
  -31.8539  -14.6455   20.0964 O   0  0  0  0  0  0
  -21.6635   -6.8882   21.4242 O   0  0  0  0  0  0
  -22.3531  -14.5551   20.6704 O   0  0  0  0  0  0
  -24.6129  -31.8673   23.2047 C   0  0  0  0  0  0
  -25.9011  -32.4823   23.8369 C   0  0  1  0  0  0
  -27.2506  -27.4300   20.1029 C   0  0  0  0  0  0
  -25.5870  -33.8617   24.2301 N   0  0  0  0  0  0
  -23.4022  -30.4878   21.5447 C   0  0  2  0  0  0
  -24.8519  -28.9452   20.1205 C   0  0  0  0  0  0
  -22.7406  -29.4642   22.4964 C   0  0  0  0  0  0
  -18.0264  -28.1402   22.8482 C   0  0  0  0  0  0
  -24.1477  -36.7312   23.2645 C   0  0  0  0  0  0
  -25.9298  -30.8344   21.3543 C   0  0  0  0  0  0
  -26.0088  -29.4626   20.7119 C   0  0  0  0  0  0
  -27.2069  -28.7131   20.6961 C   0  0  0  0  0  0
  -26.0711  -26.9234   19.5093 C   0  0  0  0  0  0
  -24.8785  -27.6748   19.5168 C   0  0  0  0  0  0
  -23.6121  -29.8106   20.1628 C   0  0  0  0  0  0
  -25.4103  -36.3108   24.0343 C   0  0  1  0  0  0
  -20.5864  -28.3664   23.1327 C   0  0  2  0  0  0
  -20.6749  -26.9398   22.5429 C   0  0  0  0  0  0
  -19.5730  -26.6402   21.5221 C   0  0  0  0  0  0
  -18.1909  -26.7941   22.1629 C   0  0  0  0  0  0
  -19.1524  -28.8839   23.2895 C   0  0  0  0  0  0
  -18.9462  -30.1448   23.8907 C   0  0  0  0  0  0
  -17.6466  -30.6602   24.0563 C   0  0  0  0  0  0
  -25.9036  -34.9481   23.5121 C   0  0  0  0  0  0
  -16.5349  -29.9118   23.6335 C   0  0  0  0  0  0
  -16.7254  -28.6544   23.0335 C   0  0  0  0  0  0
  -26.4431  -31.6599   25.0701 C   0  0  0  0  0  0
  -25.3683  -31.3729   26.1458 C   0  0  0  0  0  0
  -27.0244  -30.3048   24.6052 C   0  0  0  0  0  0
  -27.6017  -32.4306   25.7462 C   0  0  0  0  0  0
  -27.5565  -37.1804   24.8468 C   0  0  0  0  0  0
  -21.4130  -29.3018   22.3713 N   0  0  0  0  0  0
  -26.4279  -37.3803   23.9421 N   0  0  0  0  0  0
  -24.6664  -31.0784   22.0938 N   0  0  0  0  0  0
  -23.4183  -28.8188   23.3003 O   0  0  0  0  0  0
  -28.4633  -26.7642   20.0838 O   0  0  0  0  0  0
  -26.5613  -34.8937   22.4694 O   0  0  0  0  0  0
  -23.5328  -32.1415   23.7458 O   0  0  0  0  0  0
  -30.4764  -22.8302   22.1847 C   0  0  0  0  0  0
  -28.7379  -22.3217   20.5860 C   0  0  0  0  0  0
  -30.9245  -21.4909   22.1154 C   0  0  0  0  0  0
  -29.1838  -20.9746   20.5197 C   0  0  0  0  0  0
  -29.3671  -23.2810   21.4224 C   0  0  0  0  0  0
  -30.2799  -20.5361   21.3003 C   0  0  0  0  0  0
  -28.5962  -25.2508   23.6366 C   0  0  0  0  0  0
  -27.6330  -24.8348   22.5230 C   0  0  0  0  0  0
  -29.5290  -25.7177   22.5219 C   0  0  0  0  0  0
  -28.8189  -24.7430   21.5331 C   0  0  0  0  0  0
  -28.5540  -25.3244   20.1139 C   0  0  0  0  0  0
  -30.6875  -16.8418   21.4744 C   0  0  0  0  0  0
  -30.0371  -18.1150   20.8517 C   0  0  0  0  0  0
  -30.0779  -15.5327   21.1344 N   0  0  0  0  0  0
  -30.7882  -19.2445   21.3315 O   0  0  0  0  0  0
  -31.4605  -12.4092   19.1204 H   0  0  0  0  0  0
  -30.3121  -11.3194   19.8408 H   0  0  0  0  0  0
  -29.7317  -11.7638   17.4368 H   0  0  0  0  0  0
  -29.6548  -13.4792   17.7540 H   0  0  0  0  0  0
  -27.8282  -11.3053   18.8288 H   0  0  0  0  0  0
  -27.3603  -12.6211   17.7870 H   0  0  0  0  0  0
  -27.6916  -14.2574   19.5535 H   0  0  0  0  0  0
  -28.6823  -12.0054   21.3655 H   0  0  0  0  0  0
  -28.4635  -13.6616   21.8491 H   0  0  0  0  0  0
  -25.2773   -9.5684   22.4744 H   0  0  0  0  0  0
  -24.0008   -7.4636   22.7468 H   0  0  0  0  0  0
  -21.0844   -8.8771   19.8950 H   0  0  0  0  0  0
  -22.3698  -10.9671   19.6157 H   0  0  0  0  0  0
  -21.2003   -7.6154   23.9718 H   0  0  0  0  0  0
  -21.1474   -6.0526   25.9075 H   0  0  0  0  0  0
  -22.0603   -2.7618   23.2841 H   0  0  0  0  0  0
  -22.4122  -11.9901   22.4802 H   0  0  0  0  0  0
  -21.1112  -13.1237   22.2616 H   0  0  0  0  0  0
  -24.6618  -15.8454   20.4975 H   0  0  0  0  0  0
  -26.2862  -15.6232   20.0857 H   0  0  0  0  0  0
  -26.7072  -32.5556   23.1131 H   0  0  0  0  0  0
  -24.9949  -33.9767   25.0396 H   0  0  0  0  0  0
  -22.6911  -31.3023   21.3993 H   0  0  0  0  0  0
  -23.3736  -35.9643   23.3330 H   0  0  0  0  0  0
  -24.3548  -36.8916   22.2051 H   0  0  0  0  0  0
  -23.7238  -37.6525   23.6650 H   0  0  0  0  0  0
  -26.0332  -31.5930   20.5767 H   0  0  0  0  0  0
  -26.8223  -30.8999   21.9652 H   0  0  0  0  0  0
  -28.1048  -29.1181   21.1404 H   0  0  0  0  0  0
  -26.0596  -25.9663   19.0113 H   0  0  0  0  0  0
  -23.9901  -27.2706   19.0502 H   0  0  0  0  0  0
  -23.7157  -30.5803   19.3992 H   0  0  0  0  0  0
  -22.7391  -29.2230   19.8701 H   0  0  0  0  0  0
  -25.1274  -36.1955   25.0831 H   0  0  0  0  0  0
  -20.9942  -28.3224   24.1446 H   0  0  0  0  0  0
  -20.5648  -26.2247   23.3605 H   0  0  0  0  0  0
  -21.6617  -26.7425   22.1217 H   0  0  0  0  0  0
  -19.6884  -25.6322   21.1223 H   0  0  0  0  0  0
  -19.6699  -27.3224   20.6773 H   0  0  0  0  0  0
  -17.4173  -26.6680   21.4043 H   0  0  0  0  0  0
  -18.0309  -26.0115   22.9056 H   0  0  0  0  0  0
  -19.7941  -30.7258   24.2278 H   0  0  0  0  0  0
  -17.5041  -31.6284   24.5162 H   0  0  0  0  0  0
  -15.5356  -30.3030   23.7679 H   0  0  0  0  0  0
  -15.8651  -28.0886   22.7028 H   0  0  0  0  0  0
  -24.5842  -30.7097   25.7785 H   0  0  0  0  0  0
  -24.8893  -32.2896   26.4903 H   0  0  0  0  0  0
  -25.8030  -30.8890   27.0211 H   0  0  0  0  0  0
  -26.2778  -29.6851   24.1074 H   0  0  0  0  0  0
  -27.3993  -29.7242   25.4485 H   0  0  0  0  0  0
  -27.8611  -30.4373   23.9193 H   0  0  0  0  0  0
  -27.2642  -33.3603   26.2046 H   0  0  0  0  0  0
  -28.3816  -32.6859   25.0276 H   0  0  0  0  0  0
  -28.0675  -31.8412   26.5373 H   0  0  0  0  0  0
  -28.2586  -38.0087   24.7499 H   0  0  0  0  0  0
  -28.1043  -36.2626   24.6301 H   0  0  0  0  0  0
  -27.2278  -37.1466   25.8864 H   0  0  0  0  0  0
  -20.9284  -29.8758   21.6950 H   0  0  0  0  0  0
  -26.0173  -38.2873   24.1448 H   0  0  0  0  0  0
  -30.9995  -23.4914   22.8590 H   0  0  0  0  0  0
  -27.8877  -22.6120   19.9866 H   0  0  0  0  0  0
  -31.7712  -21.1878   22.7177 H   0  0  0  0  0  0
  -28.6752  -20.2870   19.8566 H   0  0  0  0  0  0
  -28.9929  -24.4089   24.2056 H   0  0  0  0  0  0
  -28.2239  -26.0422   24.2900 H   0  0  0  0  0  0
  -26.9339  -25.6367   22.2792 H   0  0  0  0  0  0
  -27.0994  -23.8999   22.6971 H   0  0  0  0  0  0
  -30.5955  -25.5731   22.6894 H   0  0  0  0  0  0
  -29.3421  -26.7725   22.3125 H   0  0  0  0  0  0
  -27.6968  -24.8400   19.6557 H   0  0  0  0  0  0
  -29.3983  -25.0795   19.4676 H   0  0  0  0  0  0
  -30.6541  -16.9366   22.5592 H   0  0  0  0  0  0
  -31.7491  -16.8473   21.2225 H   0  0  0  0  0  0
  -28.9899  -18.1941   21.1451 H   0  0  0  0  0  0
  -30.0826  -18.0764   19.7621 H   0  0  0  0  0  0
  -29.1357  -15.3615   21.4533 H   0  0  0  0  0  0
  1 25  1  0  0  0
  1 30  2  0  0  0
  1 84  1  0  0  0
  2  3  1  0  0  0
  2 25  1  0  0  0
  2 86  1  0  0  0
  2 87  1  0  0  0
  3  4  1  0  0  0
  3 88  1  0  0  0
  3 89  1  0  0  0
  4  5  1  0  0  0
  4 90  1  0  0  0
  4 91  1  0  0  0
  5  6  1  0  0  0
  5 26  1  0  0  0
  5 92  1  0  0  0
  6 25  1  0  0  0
  6 93  1  0  0  0
  6 94  1  0  0  0
  7  8  2  0  0  0
  7 26  1  0  0  0
  7 29  1  0  0  0
  8  9  1  0  0  0
  8 22  1  0  0  0
  9 10  1  0  0  0
  9 27  2  0  0  0
 10 11  2  0  0  0
 10 15  1  0  0  0
 11 12  1  0  0  0
 11 95  1  0  0  0
 12 13  2  0  0  0
 12 96  1  0  0  0
 13 14  1  0  0  0
 13 31  1  0  0  0
 14 15  2  0  0  0
 14 97  1  0  0  0
 15 98  1  0  0  0
 16 17  2  0  0  0
 16 21  1  0  0  0
 16 31  1  0  0  0
 17 18  1  0  0  0
 17 99  1  0  0  0
 18 19  2  0  0  0
 18100  1  0  0  0
 19 20  1  0  0  0
 19 24  1  0  0  0
 20 21  2  0  0  0
 20101  1  0  0  0
 21 23  1  0  0  0
 22 28  1  0  0  0
 22 32  2  0  0  0
 26 27  1  0  0  0
 28102  1  0  0  0
 28103  1  0  0  0
 29104  1  0  0  0
 29105  1  0  0  0
 33 34  1  0  0  0
 33 66  1  0  0  0
 33 70  2  0  0  0
 34 36  1  0  0  0
 34 59  1  0  0  0
 34106  1  0  0  0
 35 44  2  0  0  0
 35 45  1  0  0  0
 35 68  1  0  0  0
 36 56  1  0  0  0
 36107  1  0  0  0
 37 39  1  0  0  0
 37 47  1  0  0  0
 37 66  1  0  0  0
 37108  1  0  0  0
 38 43  2  0  0  0
 38 46  1  0  0  0
 38 47  1  0  0  0
 39 64  1  0  0  0
 39 67  2  0  0  0
 40 52  1  0  0  0
 40 53  2  0  0  0
 40 58  1  0  0  0
 41109  1  0  0  0
 41110  1  0  0  0
 41111  1  0  0  0
 41 48  1  0  0  0
 42 43  1  0  0  0
 42 66  1  0  0  0
 42112  1  0  0  0
 42113  1  0  0  0
 43 44  1  0  0  0
 44114  1  0  0  0
 45 46  2  0  0  0
 45115  1  0  0  0
 46116  1  0  0  0
 47117  1  0  0  0
 47118  1  0  0  0
 48 56  1  0  0  0
 48 65  1  0  0  0
 48119  1  0  0  0
 49 50  1  0  0  0
 49 53  1  0  0  0
 49 64  1  0  0  0
 49120  1  0  0  0
 50 51  1  0  0  0
 50121  1  0  0  0
 50122  1  0  0  0
 51 52  1  0  0  0
 51123  1  0  0  0
 51124  1  0  0  0
 52125  1  0  0  0
 52126  1  0  0  0
 53 54  1  0  0  0
 54 55  2  0  0  0
 54127  1  0  0  0
 55 57  1  0  0  0
 55128  1  0  0  0
 56 69  2  0  0  0
 57 58  2  0  0  0
 57129  1  0  0  0
 58130  1  0  0  0
 59 60  1  0  0  0
 59 61  1  0  0  0
 59 62  1  0  0  0
 60131  1  0  0  0
 60132  1  0  0  0
 60133  1  0  0  0
 61134  1  0  0  0
 61135  1  0  0  0
 61136  1  0  0  0
 62137  1  0  0  0
 62138  1  0  0  0
 62139  1  0  0  0
 63 65  1  0  0  0
 63140  1  0  0  0
 63141  1  0  0  0
 63142  1  0  0  0
 64143  1  0  0  0
 65144  1  0  0  0
 68 81  1  0  0  0
 71 73  2  0  0  0
 71 75  1  0  0  0
 71145  1  0  0  0
 72 74  1  0  0  0
 72 75  2  0  0  0
 72146  1  0  0  0
 73 76  1  0  0  0
 73147  1  0  0  0
 74 76  2  0  0  0
 74148  1  0  0  0
 75 80  1  0  0  0
 76 85  1  0  0  0
 77 78  1  0  0  0
 77 79  1  0  0  0
 77149  1  0  0  0
 77150  1  0  0  0
 78 80  1  0  0  0
 78151  1  0  0  0
 78152  1  0  0  0
 79 80  1  0  0  0
 79153  1  0  0  0
 79154  1  0  0  0
 80 81  1  0  0  0
 81155  1  0  0  0
 81156  1  0  0  0
 82 83  1  0  0  0
 82 84  1  0  0  0
 82157  1  0  0  0
 82158  1  0  0  0
 83 85  1  0  0  0
 83159  1  0  0  0
 83160  1  0  0  0
 84161  1  0  0  0
M  ISO  4   1 100  68 101  81 101  84 100
M  END
> <chiral flag>
0

> <version>
0

> <s_m_source_file>
/data/baiqing/PycharmProjects/Reinvent-master-3.2/result/LINK_invent/BTK/process_docking_weight1_custom_sum_contain_oxygen_bond_distance_aromatic_linkinvent_7_9_3/rearranged_h_0139.sdf

> <i_m_source_file_index>
29

> <r_mmod_Potential_Energy-OPLS-2005>
-14.3679132461548

> <r_mmod_Stretch_Energy-OPLS-2005>
48.0189666748047

> <r_mmod_Bend_Energy-OPLS-2005>
146.063491821289

> <r_mmod_Torsional_Energy-OPLS-2005>
233.365997314453

> <r_mmod_Improper_Torsional_Energy-OPLS-2005>
2.79472661018372

> <r_mmod_Van_der_Waal_Energy-OPLS-2005>
153.452789306641

> <r_mmod_Electrostatic_Energy-OPLS-2005>
-405.874664306641

> <r_mmod_Solvation_Energy-OPLS-2005>
-207.304962158203

> <b_mmod_Minimization_Converged-OPLS-2005>
0

> <r_mmod_RMS_Derivative-OPLS-2005>
2.57983469963074

$$$$
29
                    3D
 Structure written by MMmdl.
159168  0  0  1  0            999 V2000
  -30.6694  -14.4861   20.5847 C   0  0  0  0  0  0
  -30.4313  -12.3110   19.4303 C   0  0  0  0  0  0
  -29.5037  -12.5106   18.2121 C   0  0  0  0  0  0
  -28.0208  -12.3692   18.6166 C   0  0  0  0  0  0
  -27.6621  -13.2019   19.8767 C   0  0  2  0  0  0
  -28.7010  -12.9669   20.9965 C   0  0  0  0  0  0
  -25.2582  -13.8141   20.5641 C   0  0  0  0  0  0
  -24.1839  -13.0410   20.9166 C   0  0  0  0  0  0
  -24.6390  -11.6875   20.8716 C   0  0  0  0  0  0
  -23.9058  -10.4278   21.0389 C   0  0  0  0  0  0
  -24.3614   -9.4209   21.9168 C   0  0  0  0  0  0
  -23.6279   -8.2247   22.0758 C   0  0  0  0  0  0
  -22.4255   -8.0277   21.3552 C   0  0  0  0  0  0
  -21.9896   -9.0252   20.4644 C   0  0  0  0  0  0
  -22.7228  -10.2131   20.3038 C   0  0  0  0  0  0
  -21.6859   -6.0722   22.5274 C   0  0  0  0  0  0
  -21.4023   -6.5634   23.8207 C   0  0  0  0  0  0
  -21.3668   -5.6795   24.9170 C   0  0  0  0  0  0
  -21.6051   -4.3055   24.7226 C   0  0  0  0  0  0
  -21.8814   -3.8131   23.4348 C   0  0  0  0  0  0
  -21.9190   -4.6948   22.3397 C   0  0  0  0  0  0
  -22.7871  -13.5213   21.1839 C   0  0  0  0  0  0
  -22.1660   -4.2131   21.0978 F   0  0  0  0  0  0
  -21.5638   -3.4535   25.7740 F   0  0  0  0  0  0
  -30.0331  -13.2892   20.4525 N   0  0  0  0  0  0
  -26.3019  -12.9303   20.3340 N   0  0  0  0  0  0
  -25.9315  -11.6469   20.5740 N   0  0  0  0  0  0
  -22.0541  -12.8178   22.0408 N   0  0  0  0  0  0
  -25.4279  -15.1858   20.4049 N   0  0  0  0  0  0
  -31.7862  -14.7175   20.1164 O   0  0  0  0  0  0
  -21.6631   -6.8861   21.4232 O   0  0  0  0  0  0
  -22.3538  -14.5520   20.6713 O   0  0  0  0  0  0
  -24.6140  -31.8698   23.2080 C   0  0  0  0  0  0
  -25.9031  -32.4837   23.8401 C   0  0  1  0  0  0
  -27.2390  -27.4387   20.0990 C   0  0  0  0  0  0
  -25.5901  -33.8636   24.2347 N   0  0  0  0  0  0
  -23.4053  -30.4878   21.5495 C   0  0  2  0  0  0
  -24.8577  -28.9578   20.1083 C   0  0  0  0  0  0
  -22.7440  -29.4628   22.4990 C   0  0  0  0  0  0
  -18.0273  -28.1354   22.8464 C   0  0  0  0  0  0
  -24.1496  -36.7339   23.2624 C   0  0  0  0  0  0
  -25.9326  -30.8344   21.3627 C   0  0  0  0  0  0
  -26.0153  -29.4688   20.7109 C   0  0  0  0  0  0
  -27.2135  -28.7167   20.7018 C   0  0  0  0  0  0
  -26.0734  -26.9494   19.4749 C   0  0  0  0  0  0
  -24.8829  -27.6998   19.4812 C   0  0  0  0  0  0
  -23.6160  -29.8192   20.1641 C   0  0  0  0  0  0
  -25.4107  -36.3132   24.0326 C   0  0  1  0  0  0
  -20.5863  -28.3651   23.1311 C   0  0  2  0  0  0
  -20.6768  -26.9390   22.5409 C   0  0  0  0  0  0
  -19.5745  -26.6355   21.5198 C   0  0  0  0  0  0
  -18.1916  -26.7905   22.1604 C   0  0  0  0  0  0
  -19.1522  -28.8820   23.2882 C   0  0  0  0  0  0
  -18.9448  -30.1420   23.8893 C   0  0  0  0  0  0
  -17.6446  -30.6564   24.0521 C   0  0  0  0  0  0
  -25.9033  -34.9493   23.5136 C   0  0  0  0  0  0
  -16.5344  -29.9067   23.6298 C   0  0  0  0  0  0
  -16.7266  -28.6476   23.0323 C   0  0  0  0  0  0
  -26.4445  -31.6600   25.0717 C   0  0  0  0  0  0
  -25.3699  -31.3659   26.1454 C   0  0  0  0  0  0
  -27.0294  -30.3062   24.6053 C   0  0  0  0  0  0
  -27.6037  -32.4314   25.7475 C   0  0  0  0  0  0
  -27.5617  -37.1801   24.8438 C   0  0  0  0  0  0
  -21.4162  -29.3021   22.3733 N   0  0  0  0  0  0
  -26.4297  -37.3823   23.9416 N   0  0  0  0  0  0
  -24.6691  -31.0771   22.1001 N   0  0  0  0  0  0
  -23.4208  -28.8157   23.3025 O   0  0  0  0  0  0
  -28.3725  -26.6556   20.1235 O   0  0  0  0  0  0
  -26.5595  -34.8941   22.4703 O   0  0  0  0  0  0
  -23.5322  -32.1444   23.7467 O   0  0  0  0  0  0
  -30.2997  -20.2918   20.0597 C   0  0  0  0  0  0
  -27.7522  -20.6623   20.8864 C   0  0  0  0  0  0
  -29.4362  -19.1878   20.2844 C   0  0  0  0  0  0
  -28.6128  -21.7685   20.6514 C   0  0  0  0  0  0
  -25.9223  -21.5593   22.5515 C   0  0  0  0  0  0
  -25.7355  -20.0651   22.4668 C   0  0  0  0  0  0
  -26.3129  -20.8226   21.2870 C   0  0  0  0  0  0
  -29.8437  -17.7316   20.0109 C   0  0  0  0  0  0
  -30.1671  -16.8985   21.2823 C   0  0  0  0  0  0
  -28.2441  -25.4823   20.9515 C   0  0  0  0  0  0
  -28.8646  -24.1938   20.3544 C   0  0  0  0  0  0
  -29.8930  -21.5804   20.2359 N   0  0  0  0  0  0
  -28.1578  -19.3810   20.6931 N   0  0  0  0  0  0
  -29.9157  -15.4518   21.1421 N   0  0  0  0  0  0
  -28.1461  -23.0563   20.8570 O   0  0  0  0  0  0
  -31.4777  -12.4177   19.1395 H   0  0  0  0  0  0
  -30.3330  -11.2994   19.8288 H   0  0  0  0  0  0
  -29.7510  -11.7922   17.4304 H   0  0  0  0  0  0
  -29.6670  -13.4991   17.7819 H   0  0  0  0  0  0
  -27.8275  -11.3119   18.8061 H   0  0  0  0  0  0
  -27.3748  -12.6522   17.7857 H   0  0  0  0  0  0
  -27.7083  -14.2512   19.5854 H   0  0  0  0  0  0
  -28.6789  -11.9249   21.3195 H   0  0  0  0  0  0
  -28.4515  -13.5460   21.8874 H   0  0  0  0  0  0
  -25.2780   -9.5685   22.4719 H   0  0  0  0  0  0
  -24.0003   -7.4644   22.7486 H   0  0  0  0  0  0
  -21.0830   -8.8760   19.8944 H   0  0  0  0  0  0
  -22.3690  -10.9655   19.6126 H   0  0  0  0  0  0
  -21.2028   -7.6145   23.9700 H   0  0  0  0  0  0
  -21.1506   -6.0528   25.9078 H   0  0  0  0  0  0
  -22.0585   -2.7584   23.2853 H   0  0  0  0  0  0
  -22.4174  -11.9815   22.4728 H   0  0  0  0  0  0
  -21.1162  -13.1186   22.2640 H   0  0  0  0  0  0
  -24.6595  -15.8395   20.5172 H   0  0  0  0  0  0
  -26.2803  -15.6304   20.0869 H   0  0  0  0  0  0
  -26.7113  -32.5570   23.1185 H   0  0  0  0  0  0
  -25.0055  -33.9792   25.0507 H   0  0  0  0  0  0
  -22.6886  -31.2998   21.4086 H   0  0  0  0  0  0
  -23.3779  -35.9652   23.3219 H   0  0  0  0  0  0
  -24.3593  -36.9044   22.2056 H   0  0  0  0  0  0
  -23.7205  -37.6500   23.6696 H   0  0  0  0  0  0
  -26.0370  -31.5974   20.5896 H   0  0  0  0  0  0
  -26.8240  -30.8985   21.9748 H   0  0  0  0  0  0
  -28.1079  -29.1027   21.1715 H   0  0  0  0  0  0
  -26.0861  -25.9856   18.9850 H   0  0  0  0  0  0
  -23.9978  -27.3053   19.0008 H   0  0  0  0  0  0
  -23.7166  -30.5917   19.3996 H   0  0  0  0  0  0
  -22.7423  -29.2330   19.8767 H   0  0  0  0  0  0
  -25.1257  -36.1997   25.0813 H   0  0  0  0  0  0
  -20.9923  -28.3227   24.1441 H   0  0  0  0  0  0
  -20.5657  -26.2268   23.3585 H   0  0  0  0  0  0
  -21.6643  -26.7435   22.1208 H   0  0  0  0  0  0
  -19.6887  -25.6255   21.1239 H   0  0  0  0  0  0
  -19.6668  -27.3143   20.6699 H   0  0  0  0  0  0
  -17.4184  -26.6633   21.3997 H   0  0  0  0  0  0
  -18.0314  -26.0039   22.9002 H   0  0  0  0  0  0
  -19.7916  -30.7215   24.2291 H   0  0  0  0  0  0
  -17.5006  -31.6241   24.5135 H   0  0  0  0  0  0
  -15.5335  -30.2955   23.7614 H   0  0  0  0  0  0
  -15.8668  -28.0793   22.7045 H   0  0  0  0  0  0
  -24.5913  -30.6965   25.7763 H   0  0  0  0  0  0
  -24.8827  -32.2793   26.4882 H   0  0  0  0  0  0
  -25.8061  -30.8835   27.0219 H   0  0  0  0  0  0
  -26.2848  -29.6803   24.1123 H   0  0  0  0  0  0
  -27.4123  -29.7277   25.4467 H   0  0  0  0  0  0
  -27.8651  -30.4406   23.9180 H   0  0  0  0  0  0
  -27.2699  -33.3641   26.2032 H   0  0  0  0  0  0
  -28.3858  -32.6826   25.0300 H   0  0  0  0  0  0
  -28.0699  -31.8442   26.5398 H   0  0  0  0  0  0
  -28.2535  -38.0207   24.7671 H   0  0  0  0  0  0
  -28.1231  -36.2747   24.6057 H   0  0  0  0  0  0
  -27.2349  -37.1189   25.8839 H   0  0  0  0  0  0
  -20.9333  -29.8831   21.7026 H   0  0  0  0  0  0
  -26.0189  -38.2888   24.1497 H   0  0  0  0  0  0
  -31.3128  -20.1457   19.7157 H   0  0  0  0  0  0
  -26.7177  -21.9300   23.1968 H   0  0  0  0  0  0
  -25.0252  -22.1748   22.5146 H   0  0  0  0  0  0
  -24.7196  -19.6872   22.3651 H   0  0  0  0  0  0
  -26.4103  -19.4410   23.0509 H   0  0  0  0  0  0
  -25.6824  -20.9732   20.4111 H   0  0  0  0  0  0
  -30.6994  -17.7186   19.3347 H   0  0  0  0  0  0
  -29.0257  -17.2659   19.4599 H   0  0  0  0  0  0
  -29.5077  -17.2303   22.0856 H   0  0  0  0  0  0
  -31.1826  -17.0902   21.6278 H   0  0  0  0  0  0
  -28.7022  -25.6901   21.9192 H   0  0  0  0  0  0
  -27.1951  -25.2749   21.1760 H   0  0  0  0  0  0
  -29.9297  -24.1564   20.5916 H   0  0  0  0  0  0
  -28.7656  -24.2047   19.2691 H   0  0  0  0  0  0
  -29.0231  -15.1335   21.4875 H   0  0  0  0  0  0
  1 25  1  0  0  0
  1 30  2  0  0  0
  1 84  1  0  0  0
  2  3  1  0  0  0
  2 25  1  0  0  0
  2 86  1  0  0  0
  2 87  1  0  0  0
  3  4  1  0  0  0
  3 88  1  0  0  0
  3 89  1  0  0  0
  4  5  1  0  0  0
  4 90  1  0  0  0
  4 91  1  0  0  0
  5  6  1  0  0  0
  5 26  1  0  0  0
  5 92  1  0  0  0
  6 25  1  0  0  0
  6 93  1  0  0  0
  6 94  1  0  0  0
  7  8  2  0  0  0
  7 26  1  0  0  0
  7 29  1  0  0  0
  8  9  1  0  0  0
  8 22  1  0  0  0
  9 10  1  0  0  0
  9 27  2  0  0  0
 10 11  2  0  0  0
 10 15  1  0  0  0
 11 12  1  0  0  0
 11 95  1  0  0  0
 12 13  2  0  0  0
 12 96  1  0  0  0
 13 14  1  0  0  0
 13 31  1  0  0  0
 14 15  2  0  0  0
 14 97  1  0  0  0
 15 98  1  0  0  0
 16 17  2  0  0  0
 16 21  1  0  0  0
 16 31  1  0  0  0
 17 18  1  0  0  0
 17 99  1  0  0  0
 18 19  2  0  0  0
 18100  1  0  0  0
 19 20  1  0  0  0
 19 24  1  0  0  0
 20 21  2  0  0  0
 20101  1  0  0  0
 21 23  1  0  0  0
 22 28  1  0  0  0
 22 32  2  0  0  0
 26 27  1  0  0  0
 28102  1  0  0  0
 28103  1  0  0  0
 29104  1  0  0  0
 29105  1  0  0  0
 33 34  1  0  0  0
 33 66  1  0  0  0
 33 70  2  0  0  0
 34 36  1  0  0  0
 34 59  1  0  0  0
 34106  1  0  0  0
 35 44  2  0  0  0
 35 45  1  0  0  0
 35 68  1  0  0  0
 36 56  1  0  0  0
 36107  1  0  0  0
 37 39  1  0  0  0
 37 47  1  0  0  0
 37 66  1  0  0  0
 37108  1  0  0  0
 38 43  2  0  0  0
 38 46  1  0  0  0
 38 47  1  0  0  0
 39 64  1  0  0  0
 39 67  2  0  0  0
 40 52  1  0  0  0
 40 53  2  0  0  0
 40 58  1  0  0  0
 41109  1  0  0  0
 41110  1  0  0  0
 41111  1  0  0  0
 41 48  1  0  0  0
 42 43  1  0  0  0
 42 66  1  0  0  0
 42112  1  0  0  0
 42113  1  0  0  0
 43 44  1  0  0  0
 44114  1  0  0  0
 45 46  2  0  0  0
 45115  1  0  0  0
 46116  1  0  0  0
 47117  1  0  0  0
 47118  1  0  0  0
 48 56  1  0  0  0
 48 65  1  0  0  0
 48119  1  0  0  0
 49 50  1  0  0  0
 49 53  1  0  0  0
 49 64  1  0  0  0
 49120  1  0  0  0
 50 51  1  0  0  0
 50121  1  0  0  0
 50122  1  0  0  0
 51 52  1  0  0  0
 51123  1  0  0  0
 51124  1  0  0  0
 52125  1  0  0  0
 52126  1  0  0  0
 53 54  1  0  0  0
 54 55  2  0  0  0
 54127  1  0  0  0
 55 57  1  0  0  0
 55128  1  0  0  0
 56 69  2  0  0  0
 57 58  2  0  0  0
 57129  1  0  0  0
 58130  1  0  0  0
 59 60  1  0  0  0
 59 61  1  0  0  0
 59 62  1  0  0  0
 60131  1  0  0  0
 60132  1  0  0  0
 60133  1  0  0  0
 61134  1  0  0  0
 61135  1  0  0  0
 61136  1  0  0  0
 62137  1  0  0  0
 62138  1  0  0  0
 62139  1  0  0  0
 63 65  1  0  0  0
 63140  1  0  0  0
 63141  1  0  0  0
 63142  1  0  0  0
 64143  1  0  0  0
 65144  1  0  0  0
 68 80  1  0  0  0
 71 73  2  0  0  0
 71 82  1  0  0  0
 71145  1  0  0  0
 72 74  1  0  0  0
 72 83  2  0  0  0
 72 77  1  0  0  0
 73 78  1  0  0  0
 73 83  1  0  0  0
 74 82  2  0  0  0
 74 85  1  0  0  0
 75 76  1  0  0  0
 75 77  1  0  0  0
 75146  1  0  0  0
 75147  1  0  0  0
 76 77  1  0  0  0
 76148  1  0  0  0
 76149  1  0  0  0
 77150  1  0  0  0
 78 79  1  0  0  0
 78151  1  0  0  0
 78152  1  0  0  0
 79 84  1  0  0  0
 79153  1  0  0  0
 79154  1  0  0  0
 80 81  1  0  0  0
 80155  1  0  0  0
 80156  1  0  0  0
 81 85  1  0  0  0
 81157  1  0  0  0
 81158  1  0  0  0
 84159  1  0  0  0
M  ISO  4   1 100  68 101  80 101  84 100
M  END
> <chiral flag>
0

> <version>
0

> <s_m_source_file>
/data/baiqing/PycharmProjects/Reinvent-master-3.2/result/LINK_invent/BTK/process_docking_weight1_custom_sum_contain_oxygen_bond_distance_aromatic_linkinvent_7_9_3/rearranged_h_0139.sdf

> <i_m_source_file_index>
30

> <r_mmod_Potential_Energy-OPLS-2005>
10.3252668380737

> <r_mmod_Stretch_Energy-OPLS-2005>
41.430290222168

> <r_mmod_Bend_Energy-OPLS-2005>
105.539306640625

> <r_mmod_Torsional_Energy-OPLS-2005>
230.684112548828

> <r_mmod_Improper_Torsional_Energy-OPLS-2005>
3.55637669563293

> <r_mmod_Van_der_Waal_Energy-OPLS-2005>
150.766250610352

> <r_mmod_Electrostatic_Energy-OPLS-2005>
-323.004058837891

> <r_mmod_Solvation_Energy-OPLS-2005>
-212.817352294922

> <b_mmod_Minimization_Converged-OPLS-2005>
0

> <r_mmod_RMS_Derivative-OPLS-2005>
3.03364443778992

$$$$
30
                    3D
 Structure written by MMmdl.
162170  0  0  1  0            999 V2000
  -30.7454  -14.4343   20.6353 C   0  0  0  0  0  0
  -30.4171  -12.3127   19.4111 C   0  0  0  0  0  0
  -29.4880  -12.5167   18.1992 C   0  0  0  0  0  0
  -28.0119  -12.3721   18.6156 C   0  0  0  0  0  0
  -27.6614  -13.2092   19.8744 C   0  0  2  0  0  0
  -28.7024  -12.9873   20.9940 C   0  0  0  0  0  0
  -25.2584  -13.8167   20.5681 C   0  0  0  0  0  0
  -24.1836  -13.0440   20.9173 C   0  0  0  0  0  0
  -24.6395  -11.6908   20.8729 C   0  0  0  0  0  0
  -23.9061  -10.4293   21.0400 C   0  0  0  0  0  0
  -24.3615   -9.4209   21.9179 C   0  0  0  0  0  0
  -23.6292   -8.2244   22.0749 C   0  0  0  0  0  0
  -22.4273   -8.0282   21.3541 C   0  0  0  0  0  0
  -21.9908   -9.0254   20.4642 C   0  0  0  0  0  0
  -22.7234  -10.2133   20.3049 C   0  0  0  0  0  0
  -21.6852   -6.0736   22.5278 C   0  0  0  0  0  0
  -21.4013   -6.5638   23.8213 C   0  0  0  0  0  0
  -21.3660   -5.6790   24.9172 C   0  0  0  0  0  0
  -21.6044   -4.3054   24.7223 C   0  0  0  0  0  0
  -21.8821   -3.8146   23.4344 C   0  0  0  0  0  0
  -21.9193   -4.6965   22.3400 C   0  0  0  0  0  0
  -22.7860  -13.5237   21.1840 C   0  0  0  0  0  0
  -22.1662   -4.2150   21.0978 F   0  0  0  0  0  0
  -21.5628   -3.4537   25.7735 F   0  0  0  0  0  0
  -30.0358  -13.2888   20.4449 N   0  0  0  0  0  0
  -26.3023  -12.9343   20.3364 N   0  0  0  0  0  0
  -25.9322  -11.6498   20.5760 N   0  0  0  0  0  0
  -22.0498  -12.8228   22.0394 N   0  0  0  0  0  0
  -25.4315  -15.1886   20.4106 N   0  0  0  0  0  0
  -31.8253  -14.6505   20.0789 O   0  0  0  0  0  0
  -21.6637   -6.8879   21.4241 O   0  0  0  0  0  0
  -22.3544  -14.5546   20.6692 O   0  0  0  0  0  0
  -24.6158  -31.8683   23.2114 C   0  0  0  0  0  0
  -25.9051  -32.4823   23.8398 C   0  0  1  0  0  0
  -27.2274  -27.4163   20.0891 C   0  0  0  0  0  0
  -25.5910  -33.8621   24.2331 N   0  0  0  0  0  0
  -23.4025  -30.4949   21.5529 C   0  0  2  0  0  0
  -24.8454  -28.9613   20.1161 C   0  0  0  0  0  0
  -22.7409  -29.4666   22.4990 C   0  0  0  0  0  0
  -18.0272  -28.1379   22.8499 C   0  0  0  0  0  0
  -24.1485  -36.7307   23.2638 C   0  0  0  0  0  0
  -25.9349  -30.8266   21.3690 C   0  0  0  0  0  0
  -26.0074  -29.4600   20.7152 C   0  0  0  0  0  0
  -27.1975  -28.6944   20.7008 C   0  0  0  0  0  0
  -26.0437  -26.9488   19.4662 C   0  0  0  0  0  0
  -24.8592  -27.7053   19.4912 C   0  0  0  0  0  0
  -23.6105  -29.8318   20.1663 C   0  0  0  0  0  0
  -25.4109  -36.3112   24.0338 C   0  0  1  0  0  0
  -20.5864  -28.3663   23.1322 C   0  0  2  0  0  0
  -20.6762  -26.9402   22.5416 C   0  0  0  0  0  0
  -19.5738  -26.6391   21.5213 C   0  0  0  0  0  0
  -18.1919  -26.7926   22.1627 C   0  0  0  0  0  0
  -19.1522  -28.8838   23.2910 C   0  0  0  0  0  0
  -18.9450  -30.1447   23.8915 C   0  0  0  0  0  0
  -17.6453  -30.6588   24.0571 C   0  0  0  0  0  0
  -25.9037  -34.9476   23.5130 C   0  0  0  0  0  0
  -16.5343  -29.9093   23.6331 C   0  0  0  0  0  0
  -16.7261  -28.6508   23.0355 C   0  0  0  0  0  0
  -26.4474  -31.6601   25.0726 C   0  0  0  0  0  0
  -25.3742  -31.3706   26.1475 C   0  0  0  0  0  0
  -27.0306  -30.3043   24.6108 C   0  0  0  0  0  0
  -27.6053  -32.4318   25.7487 C   0  0  0  0  0  0
  -27.5579  -37.1813   24.8469 C   0  0  0  0  0  0
  -21.4135  -29.3034   22.3727 N   0  0  0  0  0  0
  -26.4291  -37.3798   23.9411 N   0  0  0  0  0  0
  -24.6694  -31.0779   22.1022 N   0  0  0  0  0  0
  -23.4183  -28.8198   23.3023 O   0  0  0  0  0  0
  -28.4144  -26.7004   20.1008 O   0  0  0  0  0  0
  -26.5599  -34.8927   22.4691 O   0  0  0  0  0  0
  -23.5348  -32.1439   23.7503 O   0  0  0  0  0  0
  -28.4659  -20.9198   22.3906 C   0  0  0  0  0  0
  -29.7549  -20.8308   20.2637 C   0  0  0  0  0  0
  -28.6851  -22.4474   22.4465 C   0  0  0  0  0  0
  -29.9343  -22.3718   20.3314 C   0  0  0  0  0  0
  -29.6194  -20.2006   21.6660 C   0  0  2  0  0  0
  -29.4358  -18.6537   21.6696 C   0  0  0  0  0  0
  -30.6987  -17.8504   21.2688 C   0  0  0  0  0  0
  -30.9072  -16.5083   22.0216 C   0  0  0  0  0  0
  -28.9731  -24.5397   21.1482 C   0  0  0  0  0  0
  -28.4172  -25.2681   19.9024 C   0  0  0  0  0  0
  -30.2023  -15.3428   21.4660 N   0  0  0  0  0  0
  -28.8415  -23.0460   21.0923 N   0  3  2  0  0  0
  -31.4608  -12.4090   19.1069 H   0  0  0  0  0  0
  -30.3173  -11.2993   19.8037 H   0  0  0  0  0  0
  -29.7277  -11.7964   17.4156 H   0  0  0  0  0  0
  -29.6547  -13.5051   17.7682 H   0  0  0  0  0  0
  -27.8249  -11.3154   18.8104 H   0  0  0  0  0  0
  -27.3588  -12.6476   17.7869 H   0  0  0  0  0  0
  -27.7080  -14.2584   19.5819 H   0  0  0  0  0  0
  -28.6771  -11.9505   21.3331 H   0  0  0  0  0  0
  -28.4541  -13.5836   21.8720 H   0  0  0  0  0  0
  -25.2762   -9.5685   22.4750 H   0  0  0  0  0  0
  -24.0003   -7.4634   22.7465 H   0  0  0  0  0  0
  -21.0840   -8.8774   19.8946 H   0  0  0  0  0  0
  -22.3698  -10.9671   19.6155 H   0  0  0  0  0  0
  -21.2006   -7.6145   23.9716 H   0  0  0  0  0  0
  -21.1479   -6.0518   25.9075 H   0  0  0  0  0  0
  -22.0600   -2.7610   23.2841 H   0  0  0  0  0  0
  -22.4113  -11.9894   22.4792 H   0  0  0  0  0  0
  -21.1113  -13.1250   22.2588 H   0  0  0  0  0  0
  -24.6700  -15.8488   20.5245 H   0  0  0  0  0  0
  -26.2929  -15.6261   20.1077 H   0  0  0  0  0  0
  -26.7121  -32.5529   23.1159 H   0  0  0  0  0  0
  -25.0070  -33.9781   25.0483 H   0  0  0  0  0  0
  -22.6916  -31.3129   21.4170 H   0  0  0  0  0  0
  -23.3747  -35.9641   23.3315 H   0  0  0  0  0  0
  -24.3579  -36.8903   22.2050 H   0  0  0  0  0  0
  -23.7233  -37.6515   23.6641 H   0  0  0  0  0  0
  -26.0539  -31.5921   20.6007 H   0  0  0  0  0  0
  -26.8212  -30.8762   21.9899 H   0  0  0  0  0  0
  -28.0942  -29.0791   21.1671 H   0  0  0  0  0  0
  -25.9963  -26.0169   18.9261 H   0  0  0  0  0  0
  -23.9686  -27.3233   19.0108 H   0  0  0  0  0  0
  -23.7228  -30.6088   19.4094 H   0  0  0  0  0  0
  -22.7326  -29.2561   19.8672 H   0  0  0  0  0  0
  -25.1286  -36.1976   25.0830 H   0  0  0  0  0  0
  -20.9963  -28.3224   24.1440 H   0  0  0  0  0  0
  -20.5672  -26.2266   23.3597 H   0  0  0  0  0  0
  -21.6634  -26.7447   22.1207 H   0  0  0  0  0  0
  -19.6897  -25.6308   21.1230 H   0  0  0  0  0  0
  -19.6682  -27.3212   20.6753 H   0  0  0  0  0  0
  -17.4190  -26.6682   21.4027 H   0  0  0  0  0  0
  -18.0321  -26.0059   22.9014 H   0  0  0  0  0  0
  -19.7923  -30.7267   24.2283 H   0  0  0  0  0  0
  -17.5007  -31.6268   24.5174 H   0  0  0  0  0  0
  -15.5347  -30.3007   23.7643 H   0  0  0  0  0  0
  -15.8655  -28.0839   22.7061 H   0  0  0  0  0  0
  -24.5912  -30.7055   25.7812 H   0  0  0  0  0  0
  -24.8934  -32.2859   26.4936 H   0  0  0  0  0  0
  -25.8096  -30.8865   27.0224 H   0  0  0  0  0  0
  -26.2848  -29.6807   24.1163 H   0  0  0  0  0  0
  -27.4075  -29.7280   25.4568 H   0  0  0  0  0  0
  -27.8689  -30.4364   23.9262 H   0  0  0  0  0  0
  -27.2673  -33.3605   26.2098 H   0  0  0  0  0  0
  -28.3844  -32.6897   25.0301 H   0  0  0  0  0  0
  -28.0742  -31.8419   26.5372 H   0  0  0  0  0  0
  -28.2614  -38.0096   24.7516 H   0  0  0  0  0  0
  -28.1057  -36.2630   24.6298 H   0  0  0  0  0  0
  -27.2298  -37.1470   25.8873 H   0  0  0  0  0  0
  -20.9283  -29.8759   21.6960 H   0  0  0  0  0  0
  -26.0179  -38.2875   24.1413 H   0  0  0  0  0  0
  -27.5172  -20.6991   21.8983 H   0  0  0  0  0  0
  -28.3733  -20.5409   23.4092 H   0  0  0  0  0  0
  -30.6088  -20.3954   19.7429 H   0  0  0  0  0  0
  -28.8779  -20.5894   19.6611 H   0  0  0  0  0  0
  -29.5678  -22.6730   23.0474 H   0  0  0  0  0  0
  -27.8374  -22.9066   22.9572 H   0  0  0  0  0  0
  -29.9838  -22.7739   19.3191 H   0  0  0  0  0  0
  -30.8921  -22.6026   20.8006 H   0  0  0  0  0  0
  -30.5313  -20.4215   22.2244 H   0  0  0  0  0  0
  -28.5938  -18.3615   21.0411 H   0  0  0  0  0  0
  -29.1556  -18.3605   22.6821 H   0  0  0  0  0  0
  -31.5699  -18.4652   21.4987 H   0  0  0  0  0  0
  -30.7362  -17.7038   20.1885 H   0  0  0  0  0  0
  -30.6238  -16.6168   23.0693 H   0  0  0  0  0  0
  -31.9774  -16.2913   22.0489 H   0  0  0  0  0  0
  -28.4100  -24.9128   22.0046 H   0  0  0  0  0  0
  -30.0106  -24.8248   21.3265 H   0  0  0  0  0  0
  -27.4424  -24.8380   19.6952 H   0  0  0  0  0  0
  -29.0348  -25.0478   19.0313 H   0  0  0  0  0  0
  -29.3004  -15.1151   21.8579 H   0  0  0  0  0  0
  -27.9777  -22.8468   20.6076 H   0  0  0  0  0  0
  1 25  1  0  0  0
  1 30  2  0  0  0
  1 81  1  0  0  0
  2  3  1  0  0  0
  2 25  1  0  0  0
  2 83  1  0  0  0
  2 84  1  0  0  0
  3  4  1  0  0  0
  3 85  1  0  0  0
  3 86  1  0  0  0
  4  5  1  0  0  0
  4 87  1  0  0  0
  4 88  1  0  0  0
  5  6  1  0  0  0
  5 26  1  0  0  0
  5 89  1  0  0  0
  6 25  1  0  0  0
  6 90  1  0  0  0
  6 91  1  0  0  0
  7  8  2  0  0  0
  7 26  1  0  0  0
  7 29  1  0  0  0
  8  9  1  0  0  0
  8 22  1  0  0  0
  9 10  1  0  0  0
  9 27  2  0  0  0
 10 11  2  0  0  0
 10 15  1  0  0  0
 11 12  1  0  0  0
 11 92  1  0  0  0
 12 13  2  0  0  0
 12 93  1  0  0  0
 13 14  1  0  0  0
 13 31  1  0  0  0
 14 15  2  0  0  0
 14 94  1  0  0  0
 15 95  1  0  0  0
 16 17  2  0  0  0
 16 21  1  0  0  0
 16 31  1  0  0  0
 17 18  1  0  0  0
 17 96  1  0  0  0
 18 19  2  0  0  0
 18 97  1  0  0  0
 19 20  1  0  0  0
 19 24  1  0  0  0
 20 21  2  0  0  0
 20 98  1  0  0  0
 21 23  1  0  0  0
 22 28  1  0  0  0
 22 32  2  0  0  0
 26 27  1  0  0  0
 28 99  1  0  0  0
 28100  1  0  0  0
 29101  1  0  0  0
 29102  1  0  0  0
 33 34  1  0  0  0
 33 66  1  0  0  0
 33 70  2  0  0  0
 34 36  1  0  0  0
 34 59  1  0  0  0
 34103  1  0  0  0
 35 44  2  0  0  0
 35 45  1  0  0  0
 35 68  1  0  0  0
 36 56  1  0  0  0
 36104  1  0  0  0
 37 39  1  0  0  0
 37 47  1  0  0  0
 37 66  1  0  0  0
 37105  1  0  0  0
 38 43  2  0  0  0
 38 46  1  0  0  0
 38 47  1  0  0  0
 39 64  1  0  0  0
 39 67  2  0  0  0
 40 52  1  0  0  0
 40 53  2  0  0  0
 40 58  1  0  0  0
 41106  1  0  0  0
 41107  1  0  0  0
 41108  1  0  0  0
 41 48  1  0  0  0
 42 43  1  0  0  0
 42 66  1  0  0  0
 42109  1  0  0  0
 42110  1  0  0  0
 43 44  1  0  0  0
 44111  1  0  0  0
 45 46  2  0  0  0
 45112  1  0  0  0
 46113  1  0  0  0
 47114  1  0  0  0
 47115  1  0  0  0
 48 56  1  0  0  0
 48 65  1  0  0  0
 48116  1  0  0  0
 49 50  1  0  0  0
 49 53  1  0  0  0
 49 64  1  0  0  0
 49117  1  0  0  0
 50 51  1  0  0  0
 50118  1  0  0  0
 50119  1  0  0  0
 51 52  1  0  0  0
 51120  1  0  0  0
 51121  1  0  0  0
 52122  1  0  0  0
 52123  1  0  0  0
 53 54  1  0  0  0
 54 55  2  0  0  0
 54124  1  0  0  0
 55 57  1  0  0  0
 55125  1  0  0  0
 56 69  2  0  0  0
 57 58  2  0  0  0
 57126  1  0  0  0
 58127  1  0  0  0
 59 60  1  0  0  0
 59 61  1  0  0  0
 59 62  1  0  0  0
 60128  1  0  0  0
 60129  1  0  0  0
 60130  1  0  0  0
 61131  1  0  0  0
 61132  1  0  0  0
 61133  1  0  0  0
 62134  1  0  0  0
 62135  1  0  0  0
 62136  1  0  0  0
 63 65  1  0  0  0
 63137  1  0  0  0
 63138  1  0  0  0
 63139  1  0  0  0
 64140  1  0  0  0
 65141  1  0  0  0
 68 80  1  0  0  0
 71 73  1  0  0  0
 71 75  1  0  0  0
 71142  1  0  0  0
 71143  1  0  0  0
 72 74  1  0  0  0
 72 75  1  0  0  0
 72144  1  0  0  0
 72145  1  0  0  0
 73 82  1  0  0  0
 73146  1  0  0  0
 73147  1  0  0  0
 74 82  1  0  0  0
 74148  1  0  0  0
 74149  1  0  0  0
 75 76  1  0  0  0
 75150  1  0  0  0
 76 77  1  0  0  0
 76151  1  0  0  0
 76152  1  0  0  0
 77 78  1  0  0  0
 77153  1  0  0  0
 77154  1  0  0  0
 78 81  1  0  0  0
 78155  1  0  0  0
 78156  1  0  0  0
 79 80  1  0  0  0
 79157  1  0  0  0
 79158  1  0  0  0
 79 82  1  0  0  0
 80159  1  0  0  0
 80160  1  0  0  0
 81161  1  0  0  0
 82162  1  0  0  0
M  CHG  1  82   1
M  ISO  4   1 100  68 101  80 101  81 100
M  END
> <chiral flag>
0

> <version>
0

> <s_m_source_file>
/data/baiqing/PycharmProjects/Reinvent-master-3.2/result/LINK_invent/BTK/process_docking_weight1_custom_sum_contain_oxygen_bond_distance_aromatic_linkinvent_7_9_3/rearranged_h_0139.sdf

> <i_m_source_file_index>
31

> <r_mmod_Potential_Energy-OPLS-2005>
-109.406791687012

> <r_mmod_Stretch_Energy-OPLS-2005>
39.3456535339355

> <r_mmod_Bend_Energy-OPLS-2005>
108.23274230957

> <r_mmod_Torsional_Energy-OPLS-2005>
242.395843505859

> <r_mmod_Improper_Torsional_Energy-OPLS-2005>
1.91621148586273

> <r_mmod_Van_der_Waal_Energy-OPLS-2005>
142.442794799805

> <r_mmod_Electrostatic_Energy-OPLS-2005>
-230.884811401367

> <r_mmod_Solvation_Energy-OPLS-2005>
-424.283264160156

> <b_mmod_Minimization_Converged-OPLS-2005>
0

> <r_mmod_RMS_Derivative-OPLS-2005>
0.693249762058258

$$$$
31
                    3D
 Structure written by MMmdl.
169177  0  0  1  0            999 V2000
  -30.6640  -14.5609   20.4485 C   0  0  0  0  0  0
  -30.4233  -12.3248   19.4605 C   0  0  0  0  0  0
  -29.4969  -12.4637   18.2375 C   0  0  0  0  0  0
  -28.0209  -12.3118   18.6550 C   0  0  0  0  0  0
  -27.6414  -13.2087   19.8548 C   0  0  2  0  0  0
  -28.6808  -13.1011   20.9873 C   0  0  0  0  0  0
  -25.2379  -13.7951   20.5481 C   0  0  0  0  0  0
  -24.1733  -13.0421   20.9354 C   0  0  0  0  0  0
  -24.6328  -11.6896   20.8975 C   0  0  0  0  0  0
  -23.9019  -10.4329   21.0517 C   0  0  0  0  0  0
  -24.3596   -9.4240   21.9232 C   0  0  0  0  0  0
  -23.6281   -8.2277   22.0734 C   0  0  0  0  0  0
  -22.4261   -8.0343   21.3525 C   0  0  0  0  0  0
  -21.9946   -9.0334   20.4585 C   0  0  0  0  0  0
  -22.7266  -10.2218   20.3047 C   0  0  0  0  0  0
  -21.6878   -6.0730   22.5317 C   0  0  0  0  0  0
  -21.3967   -6.5577   23.8258 C   0  0  0  0  0  0
  -21.3696   -5.6733   24.9219 C   0  0  0  0  0  0
  -21.6069   -4.3003   24.7268 C   0  0  0  0  0  0
  -21.8795   -3.8101   23.4380 C   0  0  0  0  0  0
  -21.9165   -4.6930   22.3432 C   0  0  0  0  0  0
  -22.7767  -13.5311   21.1990 C   0  0  0  0  0  0
  -22.1594   -4.2078   21.1019 F   0  0  0  0  0  0
  -21.5740   -3.4498   25.7802 F   0  0  0  0  0  0
  -30.0034  -13.3749   20.4106 N   0  0  0  0  0  0
  -26.2896  -12.9238   20.3260 N   0  0  0  0  0  0
  -25.9237  -11.6458   20.5858 N   0  0  0  0  0  0
  -22.0289  -12.8306   22.0381 N   0  0  0  0  0  0
  -25.3844  -15.1446   20.3032 N   0  0  0  0  0  0
  -31.8752  -14.6378   20.2448 O   0  0  0  0  0  0
  -21.6656   -6.8924   21.4279 O   0  0  0  0  0  0
  -22.3609  -14.5744   20.6934 O   0  0  0  0  0  0
  -24.6122  -31.8608   23.1989 C   0  0  0  0  0  0
  -25.9038  -32.4743   23.8304 C   0  0  1  0  0  0
  -27.1953  -27.3597   20.0844 C   0  0  0  0  0  0
  -25.5840  -33.8546   24.2258 N   0  0  0  0  0  0
  -23.4002  -30.4831   21.5289 C   0  0  2  0  0  0
  -24.8402  -28.9346   20.1036 C   0  0  0  0  0  0
  -22.7378  -29.4684   22.4865 C   0  0  0  0  0  0
  -18.0362  -28.1397   22.8229 C   0  0  0  0  0  0
  -24.1515  -36.7292   23.2650 C   0  0  0  0  0  0
  -25.9362  -30.7857   21.3789 C   0  0  0  0  0  0
  -25.9970  -29.4148   20.7266 C   0  0  0  0  0  0
  -27.1738  -28.6244   20.7303 C   0  0  0  0  0  0
  -26.0315  -26.9424   19.4169 C   0  0  0  0  0  0
  -24.8529  -27.7005   19.4450 C   0  0  0  0  0  0
  -23.6167  -29.8063   20.1459 C   0  0  0  0  0  0
  -25.4114  -36.3021   24.0356 C   0  0  1  0  0  0
  -20.5872  -28.3726   23.1167 C   0  0  2  0  0  0
  -20.6968  -26.9336   22.5597 C   0  0  0  0  0  0
  -19.6098  -26.6028   21.5230 C   0  0  0  0  0  0
  -18.2232  -26.7934   22.1452 C   0  0  0  0  0  0
  -19.1519  -28.8931   23.2645 C   0  0  0  0  0  0
  -18.9283  -30.1502   23.8869 C   0  0  0  0  0  0
  -17.6290  -30.6542   24.0601 C   0  0  0  0  0  0
  -25.9010  -34.9382   23.5109 C   0  0  0  0  0  0
  -16.5227  -29.8879   23.6265 C   0  0  0  0  0  0
  -16.7329  -28.6483   23.0082 C   0  0  0  0  0  0
  -26.4469  -31.6552   25.0692 C   0  0  0  0  0  0
  -25.3717  -31.3786   26.1448 C   0  0  0  0  0  0
  -27.0370  -30.2943   24.6289 C   0  0  0  0  0  0
  -27.5954  -32.4299   25.7512 C   0  0  0  0  0  0
  -27.5558  -37.1769   24.8428 C   0  0  0  0  0  0
  -21.4114  -29.2972   22.3490 N   0  0  0  0  0  0
  -26.4272  -37.3707   23.9397 N   0  0  0  0  0  0
  -24.6648  -31.0697   22.0878 N   0  0  0  0  0  0
  -23.4132  -28.8614   23.3231 O   0  0  0  0  0  0
  -28.3263  -26.5685   20.1614 O   0  0  0  0  0  0
  -26.5587  -34.8834   22.4690 O   0  0  0  0  0  0
  -23.5285  -32.1398   23.7359 O   0  0  0  0  0  0
  -27.4226  -17.7873   22.9076 C   0  0  0  0  0  0
  -26.9260  -17.3194   21.6792 C   0  0  0  0  0  0
  -29.6760  -17.1766   22.2406 C   0  0  0  0  0  0
  -28.8034  -18.0143   23.0009 C   0  0  0  0  0  0
  -29.1329  -16.4955   21.1105 C   0  0  0  0  0  0
  -27.8699  -17.0299   20.6788 C   0  0  0  0  0  0
  -28.3943  -20.5131   23.1802 C   0  0  0  0  0  0
  -30.7250  -19.6573   23.5180 C   0  0  0  0  0  0
  -27.9003  -20.1452   18.8438 C   0  0  0  0  0  0
  -27.1824  -21.5010   19.2495 C   0  0  0  0  0  0
  -27.4453  -24.0323   19.7009 C   0  0  0  0  0  0
  -27.1194  -18.9539   19.4406 C   0  0  0  0  0  0
  -28.4750  -25.2284   19.5913 C   0  0  0  0  0  0
  -29.2430  -19.3132   23.6974 C   0  0  0  0  0  0
  -29.9555  -15.7027   20.2257 N   0  0  0  0  0  0
  -28.0822  -22.6825   19.4585 N   0  3  0  0  0  0
  -27.7201  -17.6109   19.4105 O   0  0  0  0  0  0
  -31.4571  -12.4350   19.1227 H   0  0  0  0  0  0
  -30.3583  -11.3227   19.8887 H   0  0  0  0  0  0
  -29.7409  -11.7343   17.4612 H   0  0  0  0  0  0
  -29.6586  -13.4430   17.7902 H   0  0  0  0  0  0
  -27.8494  -11.2703   18.9244 H   0  0  0  0  0  0
  -27.3725  -12.5207   17.8042 H   0  0  0  0  0  0
  -27.6588  -14.2346   19.4946 H   0  0  0  0  0  0
  -28.6366  -12.1037   21.4300 H   0  0  0  0  0  0
  -28.4665  -13.8273   21.7761 H   0  0  0  0  0  0
  -25.2779   -9.5756   22.4752 H   0  0  0  0  0  0
  -24.0052   -7.4624   22.7384 H   0  0  0  0  0  0
  -21.0959   -8.8934   19.8738 H   0  0  0  0  0  0
  -22.3870  -10.9820   19.6110 H   0  0  0  0  0  0
  -21.1838   -7.6046   23.9776 H   0  0  0  0  0  0
  -21.1578   -6.0408   25.9141 H   0  0  0  0  0  0
  -22.0516   -2.7536   23.2952 H   0  0  0  0  0  0
  -22.4126  -12.0062   22.4720 H   0  0  0  0  0  0
  -21.0863  -13.1196   22.2665 H   0  0  0  0  0  0
  -24.5337  -15.6212   20.0281 H   0  0  0  0  0  0
  -26.1532  -15.3625   19.6842 H   0  0  0  0  0  0
  -26.7116  -32.5415   23.1030 H   0  0  0  0  0  0
  -24.9992  -33.9740   25.0394 H   0  0  0  0  0  0
  -22.6771  -31.2876   21.3727 H   0  0  0  0  0  0
  -23.3721  -35.9652   23.3257 H   0  0  0  0  0  0
  -24.3607  -36.8973   22.2052 H   0  0  0  0  0  0
  -23.7305  -37.6527   23.6694 H   0  0  0  0  0  0
  -26.0942  -31.5353   20.6030 H   0  0  0  0  0  0
  -26.8119  -30.8166   22.0154 H   0  0  0  0  0  0
  -28.0682  -28.9715   21.2386 H   0  0  0  0  0  0
  -25.9886  -26.0391   18.8559 H   0  0  0  0  0  0
  -23.9772  -27.3451   18.9295 H   0  0  0  0  0  0
  -23.7615  -30.5637   19.3765 H   0  0  0  0  0  0
  -22.7413  -29.2188   19.8494 H   0  0  0  0  0  0
  -25.1289  -36.1854   25.0842 H   0  0  0  0  0  0
  -21.0033  -28.3731   24.1243 H   0  0  0  0  0  0
  -20.5444  -26.2560   23.3963 H   0  0  0  0  0  0
  -21.6939  -26.6984   22.1935 H   0  0  0  0  0  0
  -19.7194  -25.5728   21.1770 H   0  0  0  0  0  0
  -19.7213  -27.2414   20.6393 H   0  0  0  0  0  0
  -17.4835  -26.6963   21.3451 H   0  0  0  0  0  0
  -18.0385  -25.9947   22.8662 H   0  0  0  0  0  0
  -19.7905  -30.6999   24.2430 H   0  0  0  0  0  0
  -17.4726  -31.6224   24.5207 H   0  0  0  0  0  0
  -15.5103  -30.2510   23.7687 H   0  0  0  0  0  0
  -15.8992  -28.0617   22.6521 H   0  0  0  0  0  0
  -24.5809  -30.7229   25.7860 H   0  0  0  0  0  0
  -24.9000  -32.2997   26.4863 H   0  0  0  0  0  0
  -25.8056  -30.8991   27.0212 H   0  0  0  0  0  0
  -26.2975  -29.6569   24.1445 H   0  0  0  0  0  0
  -27.4138  -29.7386   25.4881 H   0  0  0  0  0  0
  -27.8810  -30.4173   23.9486 H   0  0  0  0  0  0
  -27.2516  -33.3513   26.2220 H   0  0  0  0  0  0
  -28.3795  -32.7028   25.0442 H   0  0  0  0  0  0
  -28.0624  -31.8361   26.5391 H   0  0  0  0  0  0
  -28.2503  -38.0119   24.7446 H   0  0  0  0  0  0
  -28.1156  -36.2639   24.6293 H   0  0  0  0  0  0
  -27.2266  -37.1391   25.8828 H   0  0  0  0  0  0
  -20.9153  -29.8614   21.6681 H   0  0  0  0  0  0
  -26.0181  -38.2791   24.1419 H   0  0  0  0  0  0
  -26.7189  -18.2767   23.5566 H   0  0  0  0  0  0
  -25.9035  -17.5802   21.4614 H   0  0  0  0  0  0
  -30.7358  -17.1643   22.4208 H   0  0  0  0  0  0
  -28.4588  -20.6101   22.0936 H   0  0  0  0  0  0
  -28.7052  -21.4516   23.6509 H   0  0  0  0  0  0
  -27.3390  -20.3880   23.4234 H   0  0  0  0  0  0
  -30.9069  -20.6566   23.9309 H   0  0  0  0  0  0
  -31.0298  -19.7049   22.4756 H   0  0  0  0  0  0
  -31.4068  -18.9802   24.0312 H   0  0  0  0  0  0
  -28.8991  -20.0789   19.2583 H   0  0  0  0  0  0
  -27.9725  -20.0317   17.7572 H   0  0  0  0  0  0
  -26.5464  -21.3770   20.1386 H   0  0  0  0  0  0
  -26.4946  -21.7591   18.4392 H   0  0  0  0  0  0
  -26.6639  -24.1280   18.9531 H   0  0  0  0  0  0
  -26.9571  -24.0598   20.6786 H   0  0  0  0  0  0
  -26.0646  -18.9797   19.1358 H   0  0  0  0  0  0
  -27.1317  -19.3073   20.4636 H   0  0  0  0  0  0
  -28.8631  -25.3080   18.5770 H   0  0  0  0  0  0
  -29.3148  -24.8756   20.1893 H   0  0  0  0  0  0
  -29.0130  -19.2436   24.7577 H   0  0  0  0  0  0
  -30.5702  -16.3006   19.7011 H   0  0  0  0  0  0
  -28.6391  -22.7527   18.6275 H   0  0  0  0  0  0
  -28.7164  -22.4888   20.2144 H   0  0  0  0  0  0
  1 25  1  0  0  0
  1 30  2  0  0  0
  1 85  1  0  0  0
  2  3  1  0  0  0
  2 25  1  0  0  0
  2 88  1  0  0  0
  2 89  1  0  0  0
  3  4  1  0  0  0
  3 90  1  0  0  0
  3 91  1  0  0  0
  4  5  1  0  0  0
  4 92  1  0  0  0
  4 93  1  0  0  0
  5  6  1  0  0  0
  5 26  1  0  0  0
  5 94  1  0  0  0
  6 25  1  0  0  0
  6 95  1  0  0  0
  6 96  1  0  0  0
  7  8  2  0  0  0
  7 26  1  0  0  0
  7 29  1  0  0  0
  8  9  1  0  0  0
  8 22  1  0  0  0
  9 10  1  0  0  0
  9 27  2  0  0  0
 10 11  2  0  0  0
 10 15  1  0  0  0
 11 12  1  0  0  0
 11 97  1  0  0  0
 12 13  2  0  0  0
 12 98  1  0  0  0
 13 14  1  0  0  0
 13 31  1  0  0  0
 14 15  2  0  0  0
 14 99  1  0  0  0
 15100  1  0  0  0
 16 17  2  0  0  0
 16 21  1  0  0  0
 16 31  1  0  0  0
 17 18  1  0  0  0
 17101  1  0  0  0
 18 19  2  0  0  0
 18102  1  0  0  0
 19 20  1  0  0  0
 19 24  1  0  0  0
 20 21  2  0  0  0
 20103  1  0  0  0
 21 23  1  0  0  0
 22 28  1  0  0  0
 22 32  2  0  0  0
 26 27  1  0  0  0
 28104  1  0  0  0
 28105  1  0  0  0
 29106  1  0  0  0
 29107  1  0  0  0
 33 34  1  0  0  0
 33 66  1  0  0  0
 33 70  2  0  0  0
 34 36  1  0  0  0
 34 59  1  0  0  0
 34108  1  0  0  0
 35 44  2  0  0  0
 35 45  1  0  0  0
 35 68  1  0  0  0
 36 56  1  0  0  0
 36109  1  0  0  0
 37 39  1  0  0  0
 37 47  1  0  0  0
 37 66  1  0  0  0
 37110  1  0  0  0
 38 43  2  0  0  0
 38 46  1  0  0  0
 38 47  1  0  0  0
 39 64  1  0  0  0
 39 67  2  0  0  0
 40 52  1  0  0  0
 40 53  2  0  0  0
 40 58  1  0  0  0
 41111  1  0  0  0
 41112  1  0  0  0
 41113  1  0  0  0
 41 48  1  0  0  0
 42 43  1  0  0  0
 42 66  1  0  0  0
 42114  1  0  0  0
 42115  1  0  0  0
 43 44  1  0  0  0
 44116  1  0  0  0
 45 46  2  0  0  0
 45117  1  0  0  0
 46118  1  0  0  0
 47119  1  0  0  0
 47120  1  0  0  0
 48 56  1  0  0  0
 48 65  1  0  0  0
 48121  1  0  0  0
 49 50  1  0  0  0
 49 53  1  0  0  0
 49 64  1  0  0  0
 49122  1  0  0  0
 50 51  1  0  0  0
 50123  1  0  0  0
 50124  1  0  0  0
 51 52  1  0  0  0
 51125  1  0  0  0
 51126  1  0  0  0
 52127  1  0  0  0
 52128  1  0  0  0
 53 54  1  0  0  0
 54 55  2  0  0  0
 54129  1  0  0  0
 55 57  1  0  0  0
 55130  1  0  0  0
 56 69  2  0  0  0
 57 58  2  0  0  0
 57131  1  0  0  0
 58132  1  0  0  0
 59 60  1  0  0  0
 59 61  1  0  0  0
 59 62  1  0  0  0
 60133  1  0  0  0
 60134  1  0  0  0
 60135  1  0  0  0
 61136  1  0  0  0
 61137  1  0  0  0
 61138  1  0  0  0
 62139  1  0  0  0
 62140  1  0  0  0
 62141  1  0  0  0
 63 65  1  0  0  0
 63142  1  0  0  0
 63143  1  0  0  0
 63144  1  0  0  0
 64145  1  0  0  0
 65146  1  0  0  0
 68 83  1  0  0  0
 71 72  2  0  0  0
 71 74  1  0  0  0
 71147  1  0  0  0
 72 76  1  0  0  0
 72148  1  0  0  0
 73 74  2  0  0  0
 73 75  1  0  0  0
 73149  1  0  0  0
 74 84  1  0  0  0
 75 76  2  0  0  0
 75 85  1  0  0  0
 76 87  1  0  0  0
 77150  1  0  0  0
 77151  1  0  0  0
 77152  1  0  0  0
 77 84  1  0  0  0
 78 84  1  0  0  0
 78153  1  0  0  0
 78154  1  0  0  0
 78155  1  0  0  0
 79 80  1  0  0  0
 79 82  1  0  0  0
 79156  1  0  0  0
 79157  1  0  0  0
 80 86  1  0  0  0
 80158  1  0  0  0
 80159  1  0  0  0
 81 83  1  0  0  0
 81 86  1  0  0  0
 81160  1  0  0  0
 81161  1  0  0  0
 82 87  1  0  0  0
 82162  1  0  0  0
 82163  1  0  0  0
 83164  1  0  0  0
 83165  1  0  0  0
 84166  1  0  0  0
 85167  1  0  0  0
 86168  1  0  0  0
 86169  1  0  0  0
M  CHG  1  86   1
M  ISO  4   1 100  68 101  83 101  85 100
M  END
> <chiral flag>
0

> <version>
0

> <s_m_source_file>
/data/baiqing/PycharmProjects/Reinvent-master-3.2/result/LINK_invent/BTK/process_docking_weight1_custom_sum_contain_oxygen_bond_distance_aromatic_linkinvent_7_9_3/rearranged_h_0139.sdf

> <i_m_source_file_index>
32

> <r_mmod_Potential_Energy-OPLS-2005>
198.079025268555

> <r_mmod_Stretch_Energy-OPLS-2005>
67.818115234375

> <r_mmod_Bend_Energy-OPLS-2005>
200.298400878906

> <r_mmod_Torsional_Energy-OPLS-2005>
452.282257080078

> <r_mmod_Improper_Torsional_Energy-OPLS-2005>
37.2046775817871

> <r_mmod_Van_der_Waal_Energy-OPLS-2005>
166.437561035156

> <r_mmod_Electrostatic_Energy-OPLS-2005>
-317.986633300781

> <r_mmod_Solvation_Energy-OPLS-2005>
-454.41357421875

> <b_mmod_Minimization_Converged-OPLS-2005>
0

> <r_mmod_RMS_Derivative-OPLS-2005>
19.8387603759766

$$$$
32
                    3D
 Structure written by MMmdl.
163172  0  0  1  0            999 V2000
  -30.6637  -14.8001   20.4662 C   0  0  0  0  0  0
  -30.4084  -12.5151   19.4560 C   0  0  0  0  0  0
  -29.4861  -12.5456   18.2219 C   0  0  0  0  0  0
  -28.0184  -12.3477   18.6428 C   0  0  0  0  0  0
  -27.6263  -13.2451   19.8458 C   0  0  2  0  0  0
  -28.6826  -13.2099   20.9724 C   0  0  0  0  0  0
  -25.2401  -13.8232   20.5746 C   0  0  0  0  0  0
  -24.1723  -13.0429   20.9263 C   0  0  0  0  0  0
  -24.6362  -11.6934   20.8771 C   0  0  0  0  0  0
  -23.9065  -10.4300   21.0406 C   0  0  0  0  0  0
  -24.3625   -9.4217   21.9182 C   0  0  0  0  0  0
  -23.6312   -8.2234   22.0742 C   0  0  0  0  0  0
  -22.4292   -8.0275   21.3535 C   0  0  0  0  0  0
  -21.9925   -9.0245   20.4640 C   0  0  0  0  0  0
  -22.7240  -10.2133   20.3050 C   0  0  0  0  0  0
  -21.6850   -6.0741   22.5293 C   0  0  0  0  0  0
  -21.4021   -6.5647   23.8237 C   0  0  0  0  0  0
  -21.3672   -5.6796   24.9193 C   0  0  0  0  0  0
  -21.6033   -4.3057   24.7231 C   0  0  0  0  0  0
  -21.8812   -3.8146   23.4352 C   0  0  0  0  0  0
  -21.9191   -4.6970   22.3411 C   0  0  0  0  0  0
  -22.7749  -13.5181   21.1918 C   0  0  0  0  0  0
  -22.1665   -4.2156   21.0986 F   0  0  0  0  0  0
  -21.5633   -3.4535   25.7740 F   0  0  0  0  0  0
  -29.9558  -13.6106   20.3602 N   0  0  0  0  0  0
  -26.2857  -12.9475   20.3327 N   0  0  0  0  0  0
  -25.9294  -11.6604   20.5781 N   0  0  0  0  0  0
  -22.0397  -12.8169   22.0489 N   0  0  0  0  0  0
  -25.3942  -15.1976   20.4161 N   0  0  0  0  0  0
  -31.8709  -14.7375   20.2120 O   0  0  0  0  0  0
  -21.6645   -6.8877   21.4250 O   0  0  0  0  0  0
  -22.3407  -14.5472   20.6774 O   0  0  0  0  0  0
  -24.6371  -31.8513   23.1924 C   0  0  0  0  0  0
  -25.9173  -32.4733   23.8308 C   0  0  1  0  0  0
  -27.2156  -27.2251   20.1376 C   0  0  0  0  0  0
  -25.5950  -33.8540   24.2228 N   0  0  0  0  0  0
  -23.4367  -30.4704   21.5372 C   0  0  2  0  0  0
  -24.8816  -28.9054   20.1122 C   0  0  0  0  0  0
  -22.7554  -29.4590   22.4918 C   0  0  0  0  0  0
  -18.0329  -28.1379   22.8502 C   0  0  0  0  0  0
  -24.1463  -36.7245   23.2645 C   0  0  0  0  0  0
  -25.9846  -30.7493   21.3795 C   0  0  0  0  0  0
  -26.0544  -29.3677   20.7243 C   0  0  0  0  0  0
  -27.2277  -28.5424   20.7180 C   0  0  0  0  0  0
  -26.0244  -26.8393   19.4893 C   0  0  0  0  0  0
  -24.8733  -27.6520   19.4794 C   0  0  0  0  0  0
  -23.6559  -29.7975   20.1564 C   0  0  0  0  0  0
  -25.4098  -36.3048   24.0328 C   0  0  1  0  0  0
  -20.5923  -28.3738   23.1320 C   0  0  2  0  0  0
  -20.6817  -26.9451   22.5470 C   0  0  0  0  0  0
  -19.5834  -26.6479   21.5215 C   0  0  0  0  0  0
  -18.2018  -26.7920   22.1652 C   0  0  0  0  0  0
  -19.1560  -28.8884   23.2901 C   0  0  0  0  0  0
  -18.9434  -30.1491   23.8891 C   0  0  0  0  0  0
  -17.6410  -30.6581   24.0539 C   0  0  0  0  0  0
  -25.9054  -34.9427   23.5072 C   0  0  0  0  0  0
  -16.5329  -29.9046   23.6290 C   0  0  0  0  0  0
  -16.7302  -28.6468   23.0329 C   0  0  0  0  0  0
  -26.4500  -31.6585   25.0727 C   0  0  0  0  0  0
  -25.3696  -31.3763   26.1423 C   0  0  0  0  0  0
  -27.0360  -30.2998   24.6248 C   0  0  0  0  0  0
  -27.6057  -32.4325   25.7501 C   0  0  0  0  0  0
  -27.5553  -37.1778   24.8476 C   0  0  0  0  0  0
  -21.4244  -29.3098   22.3716 N   0  0  0  0  0  0
  -26.4260  -37.3760   23.9425 N   0  0  0  0  0  0
  -24.7056  -31.0442   22.0912 N   0  0  0  0  0  0
  -23.4248  -28.8117   23.3013 O   0  0  0  0  0  0
  -28.2977  -26.3106   20.1559 O   0  0  0  0  0  0
  -26.5632  -34.8913   22.4648 O   0  0  0  0  0  0
  -23.5505  -32.1367   23.7180 O   0  0  0  0  0  0
  -25.9670  -19.9647   19.7452 C   0  0  0  0  0  0
  -25.9855  -21.4722   19.7411 C   0  0  0  0  0  0
  -28.2269  -17.9818   20.7334 C   0  0  0  0  0  0
  -30.3440  -18.7020   19.9008 C   0  0  0  0  0  0
  -28.8151  -16.5595   21.1602 C   0  0  0  0  0  0
  -30.9646  -17.3098   20.3617 C   0  0  0  0  0  0
  -26.9953  -20.7064   20.5681 C   0  0  0  0  0  0
  -29.1525  -19.2612   20.7316 C   0  0  0  0  0  0
  -28.7538  -23.5689   19.9141 C   0  0  0  0  0  0
  -29.0573  -22.1507   20.6954 C   0  0  0  0  0  0
  -28.0729  -24.8811   20.6149 C   0  0  0  0  0  0
  -28.4816  -20.6936   20.2262 C   0  0  2  0  0  0
  -30.0790  -16.0962   20.5185 N   0  0  0  0  0  0
  -31.4446  -12.6241   19.1343 H   0  0  0  0  0  0
  -30.3601  -11.5465   19.9542 H   0  0  0  0  0  0
  -29.7803  -11.7877   17.4962 H   0  0  0  0  0  0
  -29.5927  -13.5058   17.7153 H   0  0  0  0  0  0
  -27.8832  -11.2966   18.9008 H   0  0  0  0  0  0
  -27.3568  -12.5408   17.7986 H   0  0  0  0  0  0
  -27.6051  -14.2598   19.4479 H   0  0  0  0  0  0
  -28.7549  -12.2084   21.3994 H   0  0  0  0  0  0
  -28.4132  -13.8633   21.8022 H   0  0  0  0  0  0
  -25.2751   -9.5706   22.4781 H   0  0  0  0  0  0
  -24.0026   -7.4623   22.7458 H   0  0  0  0  0  0
  -21.0856   -8.8754   19.8957 H   0  0  0  0  0  0
  -22.3678  -10.9672   19.6175 H   0  0  0  0  0  0
  -21.2031   -7.6154   23.9746 H   0  0  0  0  0  0
  -21.1507   -6.0522   25.9101 H   0  0  0  0  0  0
  -22.0579   -2.7602   23.2854 H   0  0  0  0  0  0
  -22.4065  -11.9878   22.4927 H   0  0  0  0  0  0
  -21.1023  -13.1209   22.2724 H   0  0  0  0  0  0
  -24.6135  -15.8316   20.5484 H   0  0  0  0  0  0
  -26.2317  -15.6590   20.0860 H   0  0  0  0  0  0
  -26.7252  -32.5346   23.1062 H   0  0  0  0  0  0
  -25.0113  -33.9672   25.0384 H   0  0  0  0  0  0
  -22.7355  -31.2930   21.3853 H   0  0  0  0  0  0
  -23.3740  -35.9561   23.3316 H   0  0  0  0  0  0
  -24.3548  -36.8863   22.2056 H   0  0  0  0  0  0
  -23.7189  -37.6437   23.6665 H   0  0  0  0  0  0
  -26.1299  -31.5027   20.6053 H   0  0  0  0  0  0
  -26.8614  -30.7990   22.0132 H   0  0  0  0  0  0
  -28.1296  -28.8888   21.2033 H   0  0  0  0  0  0
  -25.9745  -25.8804   18.9932 H   0  0  0  0  0  0
  -23.9803  -27.3002   18.9811 H   0  0  0  0  0  0
  -23.7864  -30.5681   19.3960 H   0  0  0  0  0  0
  -22.7733  -29.2308   19.8527 H   0  0  0  0  0  0
  -25.1280  -36.1884   25.0821 H   0  0  0  0  0  0
  -21.0016  -28.3327   24.1443 H   0  0  0  0  0  0
  -20.5621  -26.2363   23.3681 H   0  0  0  0  0  0
  -21.6715  -26.7436   22.1345 H   0  0  0  0  0  0
  -19.7053  -25.6452   21.1115 H   0  0  0  0  0  0
  -19.6738  -27.3420   20.6846 H   0  0  0  0  0  0
  -17.4270  -26.6627   21.4087 H   0  0  0  0  0  0
  -18.0491  -26.0065   22.9067 H   0  0  0  0  0  0
  -19.7885  -30.7361   24.2243 H   0  0  0  0  0  0
  -17.4915  -31.6262   24.5131 H   0  0  0  0  0  0
  -15.5315  -30.2912   23.7570 H   0  0  0  0  0  0
  -15.8734  -28.0756   22.7004 H   0  0  0  0  0  0
  -24.5879  -30.7112   25.7733 H   0  0  0  0  0  0
  -24.8870  -32.2939   26.4786 H   0  0  0  0  0  0
  -25.7970  -30.8968   27.0234 H   0  0  0  0  0  0
  -26.2964  -29.6744   24.1219 H   0  0  0  0  0  0
  -27.3994  -29.7262   25.4789 H   0  0  0  0  0  0
  -27.8866  -30.4287   23.9546 H   0  0  0  0  0  0
  -27.2678  -33.3646   26.2039 H   0  0  0  0  0  0
  -28.3877  -32.6846   25.0328 H   0  0  0  0  0  0
  -28.0706  -31.8467   26.5439 H   0  0  0  0  0  0
  -28.2581  -38.0062   24.7521 H   0  0  0  0  0  0
  -28.1035  -36.2600   24.6304 H   0  0  0  0  0  0
  -27.2285  -37.1430   25.8883 H   0  0  0  0  0  0
  -20.9432  -29.8899   21.6983 H   0  0  0  0  0  0
  -26.0133  -38.2830   24.1443 H   0  0  0  0  0  0
  -26.3047  -19.4556   18.8441 H   0  0  0  0  0  0
  -25.1727  -19.4637   20.2958 H   0  0  0  0  0  0
  -25.1767  -21.9787   20.2648 H   0  0  0  0  0  0
  -26.3162  -21.9491   18.8203 H   0  0  0  0  0  0
  -27.3735  -18.1753   21.3827 H   0  0  0  0  0  0
  -27.8125  -17.8671   19.7310 H   0  0  0  0  0  0
  -30.0319  -18.6162   18.8587 H   0  0  0  0  0  0
  -31.1386  -19.4493   19.8923 H   0  0  0  0  0  0
  -28.0276  -15.8390   20.9755 H   0  0  0  0  0  0
  -28.9765  -16.5528   22.2395 H   0  0  0  0  0  0
  -31.4716  -17.4591   21.3164 H   0  0  0  0  0  0
  -31.7554  -17.0886   19.6437 H   0  0  0  0  0  0
  -26.8116  -20.7099   21.6421 H   0  0  0  0  0  0
  -29.4937  -19.4185   21.7555 H   0  0  0  0  0  0
  -28.2122  -23.3480   18.9948 H   0  0  0  0  0  0
  -29.7264  -23.9073   19.5561 H   0  0  0  0  0  0
  -28.8116  -22.2918   21.7484 H   0  0  0  0  0  0
  -30.1434  -22.0475   20.6992 H   0  0  0  0  0  0
  -28.3934  -24.8810   21.6564 H   0  0  0  0  0  0
  -27.0033  -24.6815   20.6714 H   0  0  0  0  0  0
  -28.5498  -20.6778   19.1383 H   0  0  0  0  0  0
  1 25  1  0  0  0
  1 30  2  0  0  0
  1 83  1  0  0  0
  2  3  1  0  0  0
  2 25  1  0  0  0
  2 84  1  0  0  0
  2 85  1  0  0  0
  3  4  1  0  0  0
  3 86  1  0  0  0
  3 87  1  0  0  0
  4  5  1  0  0  0
  4 88  1  0  0  0
  4 89  1  0  0  0
  5  6  1  0  0  0
  5 26  1  0  0  0
  5 90  1  0  0  0
  6 25  1  0  0  0
  6 91  1  0  0  0
  6 92  1  0  0  0
  7  8  2  0  0  0
  7 26  1  0  0  0
  7 29  1  0  0  0
  8  9  1  0  0  0
  8 22  1  0  0  0
  9 10  1  0  0  0
  9 27  2  0  0  0
 10 11  2  0  0  0
 10 15  1  0  0  0
 11 12  1  0  0  0
 11 93  1  0  0  0
 12 13  2  0  0  0
 12 94  1  0  0  0
 13 14  1  0  0  0
 13 31  1  0  0  0
 14 15  2  0  0  0
 14 95  1  0  0  0
 15 96  1  0  0  0
 16 17  2  0  0  0
 16 21  1  0  0  0
 16 31  1  0  0  0
 17 18  1  0  0  0
 17 97  1  0  0  0
 18 19  2  0  0  0
 18 98  1  0  0  0
 19 20  1  0  0  0
 19 24  1  0  0  0
 20 21  2  0  0  0
 20 99  1  0  0  0
 21 23  1  0  0  0
 22 28  1  0  0  0
 22 32  2  0  0  0
 26 27  1  0  0  0
 28100  1  0  0  0
 28101  1  0  0  0
 29102  1  0  0  0
 29103  1  0  0  0
 33 34  1  0  0  0
 33 66  1  0  0  0
 33 70  2  0  0  0
 34 36  1  0  0  0
 34 59  1  0  0  0
 34104  1  0  0  0
 35 44  2  0  0  0
 35 45  1  0  0  0
 35 68  1  0  0  0
 36 56  1  0  0  0
 36105  1  0  0  0
 37 39  1  0  0  0
 37 47  1  0  0  0
 37 66  1  0  0  0
 37106  1  0  0  0
 38 43  2  0  0  0
 38 46  1  0  0  0
 38 47  1  0  0  0
 39 64  1  0  0  0
 39 67  2  0  0  0
 40 52  1  0  0  0
 40 53  2  0  0  0
 40 58  1  0  0  0
 41107  1  0  0  0
 41108  1  0  0  0
 41109  1  0  0  0
 41 48  1  0  0  0
 42 43  1  0  0  0
 42 66  1  0  0  0
 42110  1  0  0  0
 42111  1  0  0  0
 43 44  1  0  0  0
 44112  1  0  0  0
 45 46  2  0  0  0
 45113  1  0  0  0
 46114  1  0  0  0
 47115  1  0  0  0
 47116  1  0  0  0
 48 56  1  0  0  0
 48 65  1  0  0  0
 48117  1  0  0  0
 49 50  1  0  0  0
 49 53  1  0  0  0
 49 64  1  0  0  0
 49118  1  0  0  0
 50 51  1  0  0  0
 50119  1  0  0  0
 50120  1  0  0  0
 51 52  1  0  0  0
 51121  1  0  0  0
 51122  1  0  0  0
 52123  1  0  0  0
 52124  1  0  0  0
 53 54  1  0  0  0
 54 55  2  0  0  0
 54125  1  0  0  0
 55 57  1  0  0  0
 55126  1  0  0  0
 56 69  2  0  0  0
 57 58  2  0  0  0
 57127  1  0  0  0
 58128  1  0  0  0
 59 60  1  0  0  0
 59 61  1  0  0  0
 59 62  1  0  0  0
 60129  1  0  0  0
 60130  1  0  0  0
 60131  1  0  0  0
 61132  1  0  0  0
 61133  1  0  0  0
 61134  1  0  0  0
 62135  1  0  0  0
 62136  1  0  0  0
 62137  1  0  0  0
 63 65  1  0  0  0
 63138  1  0  0  0
 63139  1  0  0  0
 63140  1  0  0  0
 64141  1  0  0  0
 65142  1  0  0  0
 68 81  1  0  0  0
 71 72  1  0  0  0
 71143  1  0  0  0
 71144  1  0  0  0
 71 77  1  0  0  0
 72 77  1  0  0  0
 72145  1  0  0  0
 72146  1  0  0  0
 73 75  1  0  0  0
 73147  1  0  0  0
 73148  1  0  0  0
 73 78  1  0  0  0
 74 76  1  0  0  0
 74 78  1  0  0  0
 74149  1  0  0  0
 74150  1  0  0  0
 75 83  1  0  0  0
 75151  1  0  0  0
 75152  1  0  0  0
 76 83  1  0  0  0
 76153  1  0  0  0
 76154  1  0  0  0
 77 82  1  0  0  0
 77155  1  0  0  0
 78 82  1  0  0  0
 78156  1  0  0  0
 79 80  1  0  0  0
 79 81  1  0  0  0
 79157  1  0  0  0
 79158  1  0  0  0
 80159  1  0  0  0
 80160  1  0  0  0
 80 82  1  0  0  0
 81161  1  0  0  0
 81162  1  0  0  0
 82163  1  0  0  0
M  ISO  4   1 100  68 101  81 101  83 100
M  END
> <chiral flag>
0

> <version>
0

> <s_m_source_file>
/data/baiqing/PycharmProjects/Reinvent-master-3.2/result/LINK_invent/BTK/process_docking_weight1_custom_sum_contain_oxygen_bond_distance_aromatic_linkinvent_7_9_3/rearranged_h_0139.sdf

> <i_m_source_file_index>
33

> <r_mmod_Potential_Energy-OPLS-2005>
569.943115234375

> <r_mmod_Stretch_Energy-OPLS-2005>
161.051803588867

> <r_mmod_Bend_Energy-OPLS-2005>
244.342864990234

> <r_mmod_Torsional_Energy-OPLS-2005>
383.058776855469

> <r_mmod_Improper_Torsional_Energy-OPLS-2005>
9.46806240081787

> <r_mmod_Van_der_Waal_Energy-OPLS-2005>
124.269683837891

> <r_mmod_Electrostatic_Energy-OPLS-2005>
-275.880676269531

> <r_mmod_Solvation_Energy-OPLS-2005>
-187.350723266602

> <b_mmod_Minimization_Converged-OPLS-2005>
0

> <r_mmod_RMS_Derivative-OPLS-2005>
3.10057187080383

$$$$
33
                    3D
 Structure written by MMmdl.
165174  0  0  1  0            999 V2000
  -30.7566  -14.3742   20.7162 C   0  0  0  0  0  0
  -30.4246  -12.3135   19.3850 C   0  0  0  0  0  0
  -29.4822  -12.5312   18.1874 C   0  0  0  0  0  0
  -28.0070  -12.3845   18.6093 C   0  0  0  0  0  0
  -27.6667  -13.2016   19.8824 C   0  0  2  0  0  0
  -28.7055  -12.9296   20.9906 C   0  0  0  0  0  0
  -25.2609  -13.8160   20.5670 C   0  0  0  0  0  0
  -24.1852  -13.0435   20.9170 C   0  0  0  0  0  0
  -24.6395  -11.6902   20.8732 C   0  0  0  0  0  0
  -23.9058  -10.4284   21.0409 C   0  0  0  0  0  0
  -24.3610   -9.4205   21.9185 C   0  0  0  0  0  0
  -23.6283   -8.2243   22.0753 C   0  0  0  0  0  0
  -22.4269   -8.0287   21.3533 C   0  0  0  0  0  0
  -21.9903   -9.0264   20.4644 C   0  0  0  0  0  0
  -22.7234  -10.2142   20.3053 C   0  0  0  0  0  0
  -21.6844   -6.0741   22.5279 C   0  0  0  0  0  0
  -21.4005   -6.5636   23.8209 C   0  0  0  0  0  0
  -21.3656   -5.6779   24.9174 C   0  0  0  0  0  0
  -21.6053   -4.3050   24.7215 C   0  0  0  0  0  0
  -21.8821   -3.8144   23.4328 C   0  0  0  0  0  0
  -21.9182   -4.6963   22.3395 C   0  0  0  0  0  0
  -22.7880  -13.5239   21.1836 C   0  0  0  0  0  0
  -22.1658   -4.2161   21.0966 F   0  0  0  0  0  0
  -21.5631   -3.4525   25.7721 F   0  0  0  0  0  0
  -30.0420  -13.2483   20.4555 N   0  0  0  0  0  0
  -26.3049  -12.9312   20.3391 N   0  0  0  0  0  0
  -25.9317  -11.6472   20.5773 N   0  0  0  0  0  0
  -22.0519  -12.8231   22.0407 N   0  0  0  0  0  0
  -25.4350  -15.1866   20.4071 N   0  0  0  0  0  0
  -31.7843  -14.6833   20.1068 O   0  0  0  0  0  0
  -21.6627   -6.8891   21.4241 O   0  0  0  0  0  0
  -22.3554  -14.5538   20.6691 O   0  0  0  0  0  0
  -24.6138  -31.8666   23.2121 C   0  0  0  0  0  0
  -25.9023  -32.4808   23.8441 C   0  0  1  0  0  0
  -27.2409  -27.4605   20.0804 C   0  0  0  0  0  0
  -25.5843  -33.8604   24.2346 N   0  0  0  0  0  0
  -23.4014  -30.4935   21.5516 C   0  0  2  0  0  0
  -24.8465  -28.9615   20.1186 C   0  0  0  0  0  0
  -22.7386  -29.4702   22.5003 C   0  0  0  0  0  0
  -18.0270  -28.1414   22.8498 C   0  0  0  0  0  0
  -24.1471  -36.7371   23.2644 C   0  0  0  0  0  0
  -25.9276  -30.8375   21.3642 C   0  0  0  0  0  0
  -26.0027  -29.4720   20.7187 C   0  0  0  0  0  0
  -27.1993  -28.7233   20.7062 C   0  0  0  0  0  0
  -26.0666  -26.9698   19.4584 C   0  0  0  0  0  0
  -24.8698  -27.7055   19.4924 C   0  0  0  0  0  0
  -23.6074  -29.8224   20.1696 C   0  0  0  0  0  0
  -25.4078  -36.3107   24.0341 C   0  0  1  0  0  0
  -20.5854  -28.3727   23.1328 C   0  0  2  0  0  0
  -20.6792  -26.9471   22.5425 C   0  0  0  0  0  0
  -19.5756  -26.6419   21.5249 C   0  0  0  0  0  0
  -18.1918  -26.7962   22.1636 C   0  0  0  0  0  0
  -19.1511  -28.8885   23.2910 C   0  0  0  0  0  0
  -18.9436  -30.1487   23.8934 C   0  0  0  0  0  0
  -17.6440  -30.6611   24.0601 C   0  0  0  0  0  0
  -25.9009  -34.9459   23.5156 C   0  0  0  0  0  0
  -16.5340  -29.9120   23.6350 C   0  0  0  0  0  0
  -16.7263  -28.6548   23.0360 C   0  0  0  0  0  0
  -26.4457  -31.6591   25.0785 C   0  0  0  0  0  0
  -25.3724  -31.3649   26.1536 C   0  0  0  0  0  0
  -27.0346  -30.3033   24.6193 C   0  0  0  0  0  0
  -27.6018  -32.4336   25.7539 C   0  0  0  0  0  0
  -27.5562  -37.1817   24.8449 C   0  0  0  0  0  0
  -21.4117  -29.3067   22.3709 N   0  0  0  0  0  0
  -26.4273  -37.3785   23.9412 N   0  0  0  0  0  0
  -24.6660  -31.0806   22.1006 N   0  0  0  0  0  0
  -23.4149  -28.8232   23.3044 O   0  0  0  0  0  0
  -28.4335  -26.7696   20.1087 O   0  0  0  0  0  0
  -26.5576  -34.8905   22.4720 O   0  0  0  0  0  0
  -23.5335  -32.1425   23.7520 O   0  0  0  0  0  0
  -30.6969  -20.2224   21.0357 C   0  0  0  0  0  0
  -28.3616  -20.0411   21.5970 C   0  0  0  0  0  0
  -29.1853  -22.0998   20.5035 C   0  0  0  0  0  0
  -30.4869  -21.5182   20.5206 C   0  0  0  0  0  0
  -28.1237  -21.3423   21.0961 C   0  0  0  0  0  0
  -29.6339  -19.4477   21.5434 C   0  0  0  0  0  0
  -27.7578  -24.3715   20.0983 C   0  0  0  0  0  0
  -28.9281  -23.4319   19.7450 C   0  0  1  0  0  0
  -28.5157  -25.5172   19.4392 C   0  0  2  0  0  0
  -29.7896  -24.7342   19.7925 C   0  0  2  0  0  0
  -31.7090  -22.2225   19.9644 C   0  0  0  0  0  0
  -26.6911  -21.8445   21.2093 C   0  0  0  0  0  0
  -31.0601  -16.1189   22.4863 C   0  0  0  0  0  0
  -31.0428  -17.5171   21.8448 C   0  0  0  0  0  0
  -30.3103  -15.0960   21.7530 N   0  0  0  0  0  0
  -30.8576  -24.9091   18.8806 O   0  0  0  0  0  0
  -29.7656  -18.1421   21.9823 O   0  0  0  0  0  0
  -31.4635  -12.4388   19.0741 H   0  0  0  0  0  0
  -30.3495  -11.2871   19.7470 H   0  0  0  0  0  0
  -29.7129  -11.8215   17.3914 H   0  0  0  0  0  0
  -29.6455  -13.5249   17.7678 H   0  0  0  0  0  0
  -27.8152  -11.3257   18.7870 H   0  0  0  0  0  0
  -27.3506  -12.6767   17.7893 H   0  0  0  0  0  0
  -27.7292  -14.2584   19.6189 H   0  0  0  0  0  0
  -28.6809  -11.8753   21.2747 H   0  0  0  0  0  0
  -28.4477  -13.4745   21.8977 H   0  0  0  0  0  0
  -25.2760   -9.5676   22.4762 H   0  0  0  0  0  0
  -23.9993   -7.4628   22.7462 H   0  0  0  0  0  0
  -21.0839   -8.8776   19.8948 H   0  0  0  0  0  0
  -22.3694  -10.9678   19.6162 H   0  0  0  0  0  0
  -21.2000   -7.6140   23.9722 H   0  0  0  0  0  0
  -21.1480   -6.0502   25.9074 H   0  0  0  0  0  0
  -22.0602   -2.7602   23.2813 H   0  0  0  0  0  0
  -22.4148  -11.9898   22.4789 H   0  0  0  0  0  0
  -21.1140  -13.1256   22.2622 H   0  0  0  0  0  0
  -24.6731  -15.8479   20.5150 H   0  0  0  0  0  0
  -26.2977  -15.6228   20.1044 H   0  0  0  0  0  0
  -26.7108  -32.5537   23.1232 H   0  0  0  0  0  0
  -24.9911  -33.9761   25.0438 H   0  0  0  0  0  0
  -22.6897  -31.3079   21.4067 H   0  0  0  0  0  0
  -23.3687  -35.9753   23.3300 H   0  0  0  0  0  0
  -24.3555  -36.9023   22.2059 H   0  0  0  0  0  0
  -23.7291  -37.6593   23.6695 H   0  0  0  0  0  0
  -26.0333  -31.5951   20.5875 H   0  0  0  0  0  0
  -26.8193  -30.8981   21.9777 H   0  0  0  0  0  0
  -28.0921  -29.1105   21.1758 H   0  0  0  0  0  0
  -26.0489  -26.0302   18.9301 H   0  0  0  0  0  0
  -23.9821  -27.3073   19.0215 H   0  0  0  0  0  0
  -23.7110  -30.5922   19.4047 H   0  0  0  0  0  0
  -22.7343  -29.2334   19.8837 H   0  0  0  0  0  0
  -25.1245  -36.1976   25.0837 H   0  0  0  0  0  0
  -20.9946  -28.3351   24.1459 H   0  0  0  0  0  0
  -20.5805  -26.2334   23.3608 H   0  0  0  0  0  0
  -21.6639  -26.7583   22.1150 H   0  0  0  0  0  0
  -19.6951  -25.6335   21.1274 H   0  0  0  0  0  0
  -19.6725  -27.3228   20.6779 H   0  0  0  0  0  0
  -17.4208  -26.6738   21.4014 H   0  0  0  0  0  0
  -18.0308  -26.0104   22.9034 H   0  0  0  0  0  0
  -19.7920  -30.7284   24.2320 H   0  0  0  0  0  0
  -17.5016  -31.6296   24.5198 H   0  0  0  0  0  0
  -15.5353  -30.3044   23.7670 H   0  0  0  0  0  0
  -15.8661  -28.0891   22.7066 H   0  0  0  0  0  0
  -24.5919  -30.6970   25.7882 H   0  0  0  0  0  0
  -24.8879  -32.2766   26.5033 H   0  0  0  0  0  0
  -25.8095  -30.8803   27.0287 H   0  0  0  0  0  0
  -26.2925  -29.6681   24.1341 H   0  0  0  0  0  0
  -27.4208  -29.7373   25.4692 H   0  0  0  0  0  0
  -27.8700  -30.4358   23.9316 H   0  0  0  0  0  0
  -27.2634  -33.3647   26.2113 H   0  0  0  0  0  0
  -28.3820  -32.6887   25.0352 H   0  0  0  0  0  0
  -28.0707  -31.8477   26.5467 H   0  0  0  0  0  0
  -28.2551  -38.0131   24.7493 H   0  0  0  0  0  0
  -28.1085  -36.2669   24.6274 H   0  0  0  0  0  0
  -27.2285  -37.1454   25.8847 H   0  0  0  0  0  0
  -20.9279  -29.8752   21.6899 H   0  0  0  0  0  0
  -26.0168  -38.2874   24.1387 H   0  0  0  0  0  0
  -31.7014  -19.8275   21.0083 H   0  0  0  0  0  0
  -27.5416  -19.4656   22.0071 H   0  0  0  0  0  0
  -27.6373  -24.5374   21.1704 H   0  0  0  0  0  0
  -26.8125  -24.1278   19.6164 H   0  0  0  0  0  0
  -28.8210  -23.1370   18.6982 H   0  0  0  0  0  0
  -28.3461  -25.5830   18.3611 H   0  0  0  0  0  0
  -30.1241  -24.9568   20.8081 H   0  0  0  0  0  0
  -32.5939  -21.5859   19.9949 H   0  0  0  0  0  0
  -31.9383  -23.1127   20.5502 H   0  0  0  0  0  0
  -31.5575  -22.4936   18.9217 H   0  0  0  0  0  0
  -26.0232  -21.0802   21.6059 H   0  0  0  0  0  0
  -26.2856  -22.1347   20.2415 H   0  0  0  0  0  0
  -26.6344  -22.6830   21.9029 H   0  0  0  0  0  0
  -30.6634  -16.1853   23.5003 H   0  0  0  0  0  0
  -32.0945  -15.7875   22.5928 H   0  0  0  0  0  0
  -31.3465  -17.4700   20.7972 H   0  0  0  0  0  0
  -31.7827  -18.1163   22.3785 H   0  0  0  0  0  0
  -29.4474  -14.7818   22.1741 H   0  0  0  0  0  0
  -30.4909  -24.8091   18.0082 H   0  0  0  0  0  0
  1 25  1  0  0  0
  1 30  2  0  0  0
  1 85  1  0  0  0
  2  3  1  0  0  0
  2 25  1  0  0  0
  2 88  1  0  0  0
  2 89  1  0  0  0
  3  4  1  0  0  0
  3 90  1  0  0  0
  3 91  1  0  0  0
  4  5  1  0  0  0
  4 92  1  0  0  0
  4 93  1  0  0  0
  5  6  1  0  0  0
  5 26  1  0  0  0
  5 94  1  0  0  0
  6 25  1  0  0  0
  6 95  1  0  0  0
  6 96  1  0  0  0
  7  8  2  0  0  0
  7 26  1  0  0  0
  7 29  1  0  0  0
  8  9  1  0  0  0
  8 22  1  0  0  0
  9 10  1  0  0  0
  9 27  2  0  0  0
 10 11  2  0  0  0
 10 15  1  0  0  0
 11 12  1  0  0  0
 11 97  1  0  0  0
 12 13  2  0  0  0
 12 98  1  0  0  0
 13 14  1  0  0  0
 13 31  1  0  0  0
 14 15  2  0  0  0
 14 99  1  0  0  0
 15100  1  0  0  0
 16 17  2  0  0  0
 16 21  1  0  0  0
 16 31  1  0  0  0
 17 18  1  0  0  0
 17101  1  0  0  0
 18 19  2  0  0  0
 18102  1  0  0  0
 19 20  1  0  0  0
 19 24  1  0  0  0
 20 21  2  0  0  0
 20103  1  0  0  0
 21 23  1  0  0  0
 22 28  1  0  0  0
 22 32  2  0  0  0
 26 27  1  0  0  0
 28104  1  0  0  0
 28105  1  0  0  0
 29106  1  0  0  0
 29107  1  0  0  0
 33 34  1  0  0  0
 33 66  1  0  0  0
 33 70  2  0  0  0
 34 36  1  0  0  0
 34 59  1  0  0  0
 34108  1  0  0  0
 35 44  2  0  0  0
 35 45  1  0  0  0
 35 68  1  0  0  0
 36 56  1  0  0  0
 36109  1  0  0  0
 37 39  1  0  0  0
 37 47  1  0  0  0
 37 66  1  0  0  0
 37110  1  0  0  0
 38 43  2  0  0  0
 38 46  1  0  0  0
 38 47  1  0  0  0
 39 64  1  0  0  0
 39 67  2  0  0  0
 40 52  1  0  0  0
 40 53  2  0  0  0
 40 58  1  0  0  0
 41111  1  0  0  0
 41112  1  0  0  0
 41113  1  0  0  0
 41 48  1  0  0  0
 42 43  1  0  0  0
 42 66  1  0  0  0
 42114  1  0  0  0
 42115  1  0  0  0
 43 44  1  0  0  0
 44116  1  0  0  0
 45 46  2  0  0  0
 45117  1  0  0  0
 46118  1  0  0  0
 47119  1  0  0  0
 47120  1  0  0  0
 48 56  1  0  0  0
 48 65  1  0  0  0
 48121  1  0  0  0
 49 50  1  0  0  0
 49 53  1  0  0  0
 49 64  1  0  0  0
 49122  1  0  0  0
 50 51  1  0  0  0
 50123  1  0  0  0
 50124  1  0  0  0
 51 52  1  0  0  0
 51125  1  0  0  0
 51126  1  0  0  0
 52127  1  0  0  0
 52128  1  0  0  0
 53 54  1  0  0  0
 54 55  2  0  0  0
 54129  1  0  0  0
 55 57  1  0  0  0
 55130  1  0  0  0
 56 69  2  0  0  0
 57 58  2  0  0  0
 57131  1  0  0  0
 58132  1  0  0  0
 59 60  1  0  0  0
 59 61  1  0  0  0
 59 62  1  0  0  0
 60133  1  0  0  0
 60134  1  0  0  0
 60135  1  0  0  0
 61136  1  0  0  0
 61137  1  0  0  0
 61138  1  0  0  0
 62139  1  0  0  0
 62140  1  0  0  0
 62141  1  0  0  0
 63 65  1  0  0  0
 63142  1  0  0  0
 63143  1  0  0  0
 63144  1  0  0  0
 64145  1  0  0  0
 65146  1  0  0  0
 68 79  1  0  0  0
 71 74  2  0  0  0
 71 76  1  0  0  0
 71147  1  0  0  0
 72 75  1  0  0  0
 72 76  2  0  0  0
 72148  1  0  0  0
 73 74  1  0  0  0
 73 75  2  0  0  0
 73 78  1  0  0  0
 74 81  1  0  0  0
 75 82  1  0  0  0
 76 87  1  0  0  0
 77 78  1  0  0  0
 77 79  1  0  0  0
 77149  1  0  0  0
 77150  1  0  0  0
 78 80  1  0  0  0
 78151  1  0  0  0
 79 80  1  0  0  0
 79152  1  0  0  0
 80 86  1  0  0  0
 80153  1  0  0  0
 81154  1  0  0  0
 81155  1  0  0  0
 81156  1  0  0  0
 82157  1  0  0  0
 82158  1  0  0  0
 82159  1  0  0  0
 83 84  1  0  0  0
 83 85  1  0  0  0
 83160  1  0  0  0
 83161  1  0  0  0
 84 87  1  0  0  0
 84162  1  0  0  0
 84163  1  0  0  0
 85164  1  0  0  0
 86165  1  0  0  0
M  ISO  4   1 100  68 101  79 101  85 100
M  END
> <chiral flag>
0

> <version>
0

> <s_m_source_file>
/data/baiqing/PycharmProjects/Reinvent-master-3.2/result/LINK_invent/BTK/process_docking_weight1_custom_sum_contain_oxygen_bond_distance_aromatic_linkinvent_7_9_3/rearranged_h_0139.sdf

> <i_m_source_file_index>
34

> <r_mmod_Potential_Energy-OPLS-2005>
-105.672462463379

> <r_mmod_Stretch_Energy-OPLS-2005>
39.3284225463867

> <r_mmod_Bend_Energy-OPLS-2005>
129.83544921875

> <r_mmod_Torsional_Energy-OPLS-2005>
183.795043945312

> <r_mmod_Improper_Torsional_Energy-OPLS-2005>
2.78734016418457

> <r_mmod_Van_der_Waal_Energy-OPLS-2005>
179.739608764648

> <r_mmod_Electrostatic_Energy-OPLS-2005>
-421.409698486328

> <r_mmod_Solvation_Energy-OPLS-2005>
-228.806442260742

> <b_mmod_Minimization_Converged-OPLS-2005>
0

> <r_mmod_RMS_Derivative-OPLS-2005>
3.33220219612122

$$$$
34
                    3D
 Structure written by MMmdl.
170178  0  0  1  0            999 V2000
  -30.7991  -14.4384   20.6963 C   0  0  0  0  0  0
  -30.4361  -12.3405   19.4229 C   0  0  0  0  0  0
  -29.5044  -12.5489   18.2088 C   0  0  0  0  0  0
  -28.0164  -12.4017   18.6020 C   0  0  0  0  0  0
  -27.6681  -13.2041   19.8842 C   0  0  2  0  0  0
  -28.7093  -12.9209   20.9891 C   0  0  0  0  0  0
  -25.2512  -13.8041   20.5524 C   0  0  0  0  0  0
  -24.1829  -13.0378   20.9149 C   0  0  0  0  0  0
  -24.6384  -11.6827   20.8747 C   0  0  0  0  0  0
  -23.9073  -10.4254   21.0419 C   0  0  0  0  0  0
  -24.3606   -9.4133   21.9148 C   0  0  0  0  0  0
  -23.6267   -8.2180   22.0716 C   0  0  0  0  0  0
  -22.4259   -8.0250   21.3526 C   0  0  0  0  0  0
  -21.9911   -9.0208   20.4635 C   0  0  0  0  0  0
  -22.7249  -10.2106   20.3028 C   0  0  0  0  0  0
  -21.6870   -6.0699   22.5257 C   0  0  0  0  0  0
  -21.4009   -6.5624   23.8177 C   0  0  0  0  0  0
  -21.3631   -5.6794   24.9168 C   0  0  0  0  0  0
  -21.6065   -4.3044   24.7242 C   0  0  0  0  0  0
  -21.8826   -3.8130   23.4345 C   0  0  0  0  0  0
  -21.9187   -4.6940   22.3405 C   0  0  0  0  0  0
  -22.7830  -13.5171   21.1891 C   0  0  0  0  0  0
  -22.1674   -4.2136   21.0988 F   0  0  0  0  0  0
  -21.5638   -3.4541   25.7731 F   0  0  0  0  0  0
  -30.0518  -13.2994   20.4810 N   0  0  0  0  0  0
  -26.3032  -12.9282   20.3375 N   0  0  0  0  0  0
  -25.9338  -11.6477   20.5771 N   0  0  0  0  0  0
  -22.0610  -12.8092   22.0479 N   0  0  0  0  0  0
  -25.4076  -15.1732   20.3581 N   0  0  0  0  0  0
  -31.8599  -14.6320   20.1017 O   0  0  0  0  0  0
  -21.6627   -6.8854   21.4212 O   0  0  0  0  0  0
  -22.3497  -14.5452   20.6740 O   0  0  0  0  0  0
  -24.6140  -31.8653   23.2148 C   0  0  0  0  0  0
  -25.9036  -32.4828   23.8458 C   0  0  1  0  0  0
  -27.2308  -27.4350   20.0623 C   0  0  0  0  0  0
  -25.5862  -33.8629   24.2378 N   0  0  0  0  0  0
  -23.4011  -30.4924   21.5553 C   0  0  2  0  0  0
  -24.8471  -28.9635   20.1139 C   0  0  0  0  0  0
  -22.7405  -29.4593   22.4981 C   0  0  0  0  0  0
  -18.0221  -28.1374   22.8607 C   0  0  0  0  0  0
  -24.1482  -36.7392   23.2639 C   0  0  0  0  0  0
  -25.9260  -30.8366   21.3573 C   0  0  0  0  0  0
  -26.0025  -29.4630   20.7207 C   0  0  0  0  0  0
  -27.1968  -28.6997   20.7062 C   0  0  0  0  0  0
  -26.0351  -26.9378   19.4919 C   0  0  0  0  0  0
  -24.8528  -27.7034   19.5010 C   0  0  0  0  0  0
  -23.6124  -29.8375   20.1625 C   0  0  0  0  0  0
  -25.4089  -36.3148   24.0339 C   0  0  1  0  0  0
  -20.5851  -28.3504   23.1294 C   0  0  2  0  0  0
  -20.6641  -26.9291   22.5246 C   0  0  0  0  0  0
  -19.5445  -26.6353   21.5177 C   0  0  0  0  0  0
  -18.1757  -26.7880   22.1859 C   0  0  0  0  0  0
  -19.1517  -28.8761   23.2971 C   0  0  0  0  0  0
  -18.9514  -30.1285   23.9076 C   0  0  0  0  0  0
  -17.6595  -30.6515   24.0799 C   0  0  0  0  0  0
  -25.8976  -34.9490   23.5141 C   0  0  0  0  0  0
  -16.5408  -29.9193   23.6468 C   0  0  0  0  0  0
  -16.7213  -28.6596   23.0427 C   0  0  0  0  0  0
  -26.4472  -31.6582   25.0751 C   0  0  0  0  0  0
  -25.3782  -31.3666   26.1537 C   0  0  0  0  0  0
  -27.0237  -30.3050   24.5982 C   0  0  0  0  0  0
  -27.6033  -32.4294   25.7527 C   0  0  0  0  0  0
  -27.5568  -37.1844   24.8448 C   0  0  0  0  0  0
  -21.4125  -29.2944   22.3745 N   0  0  0  0  0  0
  -26.4301  -37.3826   23.9373 N   0  0  0  0  0  0
  -24.6662  -31.0805   22.1023 N   0  0  0  0  0  0
  -23.4204  -28.8138   23.3024 O   0  0  0  0  0  0
  -28.4297  -26.7433   20.0177 O   0  0  0  0  0  0
  -26.5571  -34.8939   22.4707 O   0  0  0  0  0  0
  -23.5334  -32.1401   23.7512 O   0  0  0  0  0  0
  -28.5362  -22.0226   21.4995 C   0  0  0  0  0  0
  -28.3102  -20.7195   21.9893 C   0  0  0  0  0  0
  -26.2032  -22.1502   20.8374 C   0  0  0  0  0  0
  -25.9499  -20.8512   21.3320 C   0  0  0  0  0  0
  -27.4805  -22.7347   20.8914 C   0  0  0  0  0  0
  -27.0383  -20.1228   21.8837 C   0  0  0  0  0  0
  -22.4560  -19.6134   22.7228 C   0  0  0  0  0  0
  -24.3639  -19.2137   20.1733 C   0  0  0  0  0  0
  -23.9876  -19.7908   22.6224 C   0  0  0  0  0  0
  -28.8363  -17.2479   22.4116 C   0  0  0  0  0  0
  -29.0761  -15.7984   21.9322 C   0  0  0  0  0  0
  -27.6297  -17.8428   21.6368 C   0  0  0  0  0  0
  -28.6306  -25.7105   19.0304 C   0  0  0  0  0  0
  -28.8103  -24.3184   19.6694 C   0  0  0  0  0  0
  -24.5095  -20.2993   21.2548 C   0  0  1  0  0  0
  -30.4403  -15.3257   21.6560 N   0  0  0  0  0  0
  -27.6138  -24.0045   20.3828 O   0  0  0  0  0  0
  -26.8842  -18.8384   22.3502 O   0  0  0  0  0  0
  -31.4797  -12.4462   19.1201 H   0  0  0  0  0  0
  -30.3514  -11.3293   19.8061 H   0  0  0  0  0  0
  -29.7475  -11.8273   17.4314 H   0  0  0  0  0  0
  -29.6771  -13.5392   17.7868 H   0  0  0  0  0  0
  -27.8080  -11.3456   18.7523 H   0  0  0  0  0  0
  -27.3820  -12.7338   17.7769 H   0  0  0  0  0  0
  -27.7141  -14.2552   19.6071 H   0  0  0  0  0  0
  -28.7184  -11.8550   21.1982 H   0  0  0  0  0  0
  -28.4266  -13.3544   21.9404 H   0  0  0  0  0  0
  -25.2794   -9.5625   22.4710 H   0  0  0  0  0  0
  -24.0018   -7.4582   22.7415 H   0  0  0  0  0  0
  -21.0844   -8.8713   19.8941 H   0  0  0  0  0  0
  -22.3686  -10.9615   19.6129 H   0  0  0  0  0  0
  -21.1972   -7.6139   23.9683 H   0  0  0  0  0  0
  -21.1480   -6.0527   25.9066 H   0  0  0  0  0  0
  -22.0630   -2.7593   23.2860 H   0  0  0  0  0  0
  -22.4318  -11.9779   22.4788 H   0  0  0  0  0  0
  -21.1156  -13.1020   22.2785 H   0  0  0  0  0  0
  -24.5920  -15.7748   20.3266 H   0  0  0  0  0  0
  -26.2011  -15.5691   19.8734 H   0  0  0  0  0  0
  -26.7087  -32.5577   23.1214 H   0  0  0  0  0  0
  -25.0008  -33.9844   25.0522 H   0  0  0  0  0  0
  -22.6891  -31.3092   21.4227 H   0  0  0  0  0  0
  -23.3687  -35.9770   23.3297 H   0  0  0  0  0  0
  -24.3583  -36.9015   22.2048 H   0  0  0  0  0  0
  -23.7283  -37.6623   23.6650 H   0  0  0  0  0  0
  -25.9922  -31.5793   20.5627 H   0  0  0  0  0  0
  -26.8344  -30.9323   21.9375 H   0  0  0  0  0  0
  -28.0914  -29.0758   21.1803 H   0  0  0  0  0  0
  -25.9772  -25.9617   19.0310 H   0  0  0  0  0  0
  -23.9583  -27.3112   19.0388 H   0  0  0  0  0  0
  -23.7383  -30.6208   19.4162 H   0  0  0  0  0  0
  -22.7363  -29.2691   19.8512 H   0  0  0  0  0  0
  -25.1241  -36.2035   25.0843 H   0  0  0  0  0  0
  -21.0010  -28.2914   24.1374 H   0  0  0  0  0  0
  -20.5594  -26.2065   23.3376 H   0  0  0  0  0  0
  -21.6423  -26.7280   22.0905 H   0  0  0  0  0  0
  -19.6192  -27.3276   20.6751 H   0  0  0  0  0  0
  -19.6455  -25.6293   21.1079 H   0  0  0  0  0  0
  -17.3789  -26.6446   21.4501 H   0  0  0  0  0  0
  -18.0385  -26.0081   22.9411 H   0  0  0  0  0  0
  -19.8055  -30.6973   24.2637 H   0  0  0  0  0  0
  -17.5234  -31.6123   24.5594 H   0  0  0  0  0  0
  -15.5464  -30.3153   23.7852 H   0  0  0  0  0  0
  -15.8588  -28.1002   22.7141 H   0  0  0  0  0  0
  -24.5935  -30.7011   25.7935 H   0  0  0  0  0  0
  -24.9016  -32.2805   26.5077 H   0  0  0  0  0  0
  -25.8224  -30.8812   27.0239 H   0  0  0  0  0  0
  -26.2713  -29.6879   24.1060 H   0  0  0  0  0  0
  -27.4074  -29.7212   25.4363 H   0  0  0  0  0  0
  -27.8529  -30.4424   23.9039 H   0  0  0  0  0  0
  -27.2602  -33.3535   26.2204 H   0  0  0  0  0  0
  -28.3810  -32.6943   25.0351 H   0  0  0  0  0  0
  -28.0718  -31.8353   26.5378 H   0  0  0  0  0  0
  -28.2586  -38.0156   24.7454 H   0  0  0  0  0  0
  -28.1072  -36.2655   24.6287 H   0  0  0  0  0  0
  -27.2292  -37.1530   25.8877 H   0  0  0  0  0  0
  -20.9244  -29.8745   21.7027 H   0  0  0  0  0  0
  -26.0169  -38.2906   24.1370 H   0  0  0  0  0  0
  -29.5168  -22.4579   21.6267 H   0  0  0  0  0  0
  -29.1078  -20.1814   22.4825 H   0  0  0  0  0  0
  -25.4090  -22.7366   20.3989 H   0  0  0  0  0  0
  -22.2011  -19.1787   23.6900 H   0  0  0  0  0  0
  -22.0653  -18.9339   21.9620 H   0  0  0  0  0  0
  -21.9255  -20.5613   22.6386 H   0  0  0  0  0  0
  -24.5835  -19.6023   19.1783 H   0  0  0  0  0  0
  -23.3435  -18.8234   20.1434 H   0  0  0  0  0  0
  -25.0249  -18.3723   20.3727 H   0  0  0  0  0  0
  -24.4557  -18.8384   22.8520 H   0  0  0  0  0  0
  -24.2876  -20.4900   23.4034 H   0  0  0  0  0  0
  -29.7123  -17.8879   22.3665 H   0  0  0  0  0  0
  -28.5439  -17.1559   23.4588 H   0  0  0  0  0  0
  -28.6066  -15.1788   22.7006 H   0  0  0  0  0  0
  -28.4960  -15.6278   21.0253 H   0  0  0  0  0  0
  -26.8979  -17.0624   21.4356 H   0  0  0  0  0  0
  -27.9671  -18.1958   20.6521 H   0  0  0  0  0  0
  -29.5381  -25.9680   18.4760 H   0  0  0  0  0  0
  -27.8593  -25.6684   18.2635 H   0  0  0  0  0  0
  -28.9471  -23.5893   18.8652 H   0  0  0  0  0  0
  -29.7077  -24.2957   20.2911 H   0  0  0  0  0  0
  -23.8709  -21.1330   20.9496 H   0  0  0  0  0  0
  -31.1996  -15.9463   21.8901 H   0  0  0  0  0  0
  1 25  1  0  0  0
  1 30  2  0  0  0
  1 86  1  0  0  0
  2  3  1  0  0  0
  2 25  1  0  0  0
  2 89  1  0  0  0
  2 90  1  0  0  0
  3  4  1  0  0  0
  3 91  1  0  0  0
  3 92  1  0  0  0
  4  5  1  0  0  0
  4 93  1  0  0  0
  4 94  1  0  0  0
  5  6  1  0  0  0
  5 26  1  0  0  0
  5 95  1  0  0  0
  6 25  1  0  0  0
  6 96  1  0  0  0
  6 97  1  0  0  0
  7  8  2  0  0  0
  7 26  1  0  0  0
  7 29  1  0  0  0
  8  9  1  0  0  0
  8 22  1  0  0  0
  9 10  1  0  0  0
  9 27  2  0  0  0
 10 11  2  0  0  0
 10 15  1  0  0  0
 11 12  1  0  0  0
 11 98  1  0  0  0
 12 13  2  0  0  0
 12 99  1  0  0  0
 13 14  1  0  0  0
 13 31  1  0  0  0
 14 15  2  0  0  0
 14100  1  0  0  0
 15101  1  0  0  0
 16 17  2  0  0  0
 16 21  1  0  0  0
 16 31  1  0  0  0
 17 18  1  0  0  0
 17102  1  0  0  0
 18 19  2  0  0  0
 18103  1  0  0  0
 19 20  1  0  0  0
 19 24  1  0  0  0
 20 21  2  0  0  0
 20104  1  0  0  0
 21 23  1  0  0  0
 22 28  1  0  0  0
 22 32  2  0  0  0
 26 27  1  0  0  0
 28105  1  0  0  0
 28106  1  0  0  0
 29107  1  0  0  0
 29108  1  0  0  0
 33 34  1  0  0  0
 33 66  1  0  0  0
 33 70  2  0  0  0
 34 36  1  0  0  0
 34 59  1  0  0  0
 34109  1  0  0  0
 35 44  2  0  0  0
 35 45  1  0  0  0
 35 68  1  0  0  0
 36 56  1  0  0  0
 36110  1  0  0  0
 37 39  1  0  0  0
 37 47  1  0  0  0
 37 66  1  0  0  0
 37111  1  0  0  0
 38 43  2  0  0  0
 38 46  1  0  0  0
 38 47  1  0  0  0
 39 64  1  0  0  0
 39 67  2  0  0  0
 40 52  1  0  0  0
 40 53  2  0  0  0
 40 58  1  0  0  0
 41112  1  0  0  0
 41113  1  0  0  0
 41114  1  0  0  0
 41 48  1  0  0  0
 42 43  1  0  0  0
 42 66  1  0  0  0
 42115  1  0  0  0
 42116  1  0  0  0
 43 44  1  0  0  0
 44117  1  0  0  0
 45 46  2  0  0  0
 45118  1  0  0  0
 46119  1  0  0  0
 47120  1  0  0  0
 47121  1  0  0  0
 48 56  1  0  0  0
 48 65  1  0  0  0
 48122  1  0  0  0
 49 50  1  0  0  0
 49 53  1  0  0  0
 49 64  1  0  0  0
 49123  1  0  0  0
 50 51  1  0  0  0
 50124  1  0  0  0
 50125  1  0  0  0
 51 52  1  0  0  0
 51126  1  0  0  0
 51127  1  0  0  0
 52128  1  0  0  0
 52129  1  0  0  0
 53 54  1  0  0  0
 54 55  2  0  0  0
 54130  1  0  0  0
 55 57  1  0  0  0
 55131  1  0  0  0
 56 69  2  0  0  0
 57 58  2  0  0  0
 57132  1  0  0  0
 58133  1  0  0  0
 59 60  1  0  0  0
 59 61  1  0  0  0
 59 62  1  0  0  0
 60134  1  0  0  0
 60135  1  0  0  0
 60136  1  0  0  0
 61137  1  0  0  0
 61138  1  0  0  0
 61139  1  0  0  0
 62140  1  0  0  0
 62141  1  0  0  0
 62142  1  0  0  0
 63 65  1  0  0  0
 63143  1  0  0  0
 63144  1  0  0  0
 63145  1  0  0  0
 64146  1  0  0  0
 65147  1  0  0  0
 68 83  1  0  0  0
 71 72  2  0  0  0
 71 75  1  0  0  0
 71148  1  0  0  0
 72 76  1  0  0  0
 72149  1  0  0  0
 73 74  1  0  0  0
 73 75  2  0  0  0
 73150  1  0  0  0
 74 76  2  0  0  0
 74 85  1  0  0  0
 75 87  1  0  0  0
 76 88  1  0  0  0
 77 79  1  0  0  0
 77151  1  0  0  0
 77152  1  0  0  0
 77153  1  0  0  0
 78154  1  0  0  0
 78155  1  0  0  0
 78156  1  0  0  0
 78 85  1  0  0  0
 79 85  1  0  0  0
 79157  1  0  0  0
 79158  1  0  0  0
 80 81  1  0  0  0
 80 82  1  0  0  0
 80159  1  0  0  0
 80160  1  0  0  0
 81 86  1  0  0  0
 81161  1  0  0  0
 81162  1  0  0  0
 82 88  1  0  0  0
 82163  1  0  0  0
 82164  1  0  0  0
 83 84  1  0  0  0
 83165  1  0  0  0
 83166  1  0  0  0
 84 87  1  0  0  0
 84167  1  0  0  0
 84168  1  0  0  0
 85169  1  0  0  0
 86170  1  0  0  0
M  ISO  4   1 100  68 101  83 101  86 100
M  END
> <chiral flag>
0

> <version>
0

> <s_m_source_file>
/data/baiqing/PycharmProjects/Reinvent-master-3.2/result/LINK_invent/BTK/process_docking_weight1_custom_sum_contain_oxygen_bond_distance_aromatic_linkinvent_7_9_3/rearranged_h_0139.sdf

> <i_m_source_file_index>
35

> <r_mmod_Potential_Energy-OPLS-2005>
70.129508972168

> <r_mmod_Stretch_Energy-OPLS-2005>
46.3822479248047

> <r_mmod_Bend_Energy-OPLS-2005>
143.607864379883

> <r_mmod_Torsional_Energy-OPLS-2005>
298.099090576172

> <r_mmod_Improper_Torsional_Energy-OPLS-2005>
5.71472263336182

> <r_mmod_Van_der_Waal_Energy-OPLS-2005>
161.717514038086

> <r_mmod_Electrostatic_Energy-OPLS-2005>
-387.803863525391

> <r_mmod_Solvation_Energy-OPLS-2005>
-210.194671630859

> <b_mmod_Minimization_Converged-OPLS-2005>
0

> <r_mmod_RMS_Derivative-OPLS-2005>
16.9464588165283

$$$$
35
                    3D
 Structure written by MMmdl.
169178  0  0  1  0            999 V2000
  -30.5105  -14.9769   20.4420 C   0  0  0  0  0  0
  -30.4344  -12.6105   19.5177 C   0  0  0  0  0  0
  -29.5251  -12.5503   18.2669 C   0  0  0  0  0  0
  -28.0570  -12.3352   18.6772 C   0  0  0  0  0  0
  -27.6296  -13.2569   19.8490 C   0  0  2  0  0  0
  -28.6633  -13.2848   20.9948 C   0  0  0  0  0  0
  -25.2463  -13.8229   20.5763 C   0  0  0  0  0  0
  -24.1784  -13.0445   20.9247 C   0  0  0  0  0  0
  -24.6418  -11.6932   20.8776 C   0  0  0  0  0  0
  -23.9112  -10.4305   21.0422 C   0  0  0  0  0  0
  -24.3651   -9.4213   21.9202 C   0  0  0  0  0  0
  -23.6314   -8.2252   22.0761 C   0  0  0  0  0  0
  -22.4298   -8.0302   21.3548 C   0  0  0  0  0  0
  -21.9944   -9.0283   20.4657 C   0  0  0  0  0  0
  -22.7283  -10.2154   20.3067 C   0  0  0  0  0  0
  -21.6852   -6.0764   22.5279 C   0  0  0  0  0  0
  -21.4016   -6.5659   23.8217 C   0  0  0  0  0  0
  -21.3660   -5.6801   24.9168 C   0  0  0  0  0  0
  -21.6033   -4.3070   24.7211 C   0  0  0  0  0  0
  -21.8822   -3.8173   23.4335 C   0  0  0  0  0  0
  -21.9195   -4.6991   22.3396 C   0  0  0  0  0  0
  -22.7810  -13.5213   21.1909 C   0  0  0  0  0  0
  -22.1669   -4.2184   21.0970 F   0  0  0  0  0  0
  -21.5622   -3.4545   25.7725 F   0  0  0  0  0  0
  -29.9395  -13.7038   20.4091 N   0  0  0  0  0  0
  -26.2890  -12.9473   20.3275 N   0  0  0  0  0  0
  -25.9344  -11.6605   20.5740 N   0  0  0  0  0  0
  -22.0456  -12.8182   22.0444 N   0  0  0  0  0  0
  -25.4123  -15.1962   20.4259 N   0  0  0  0  0  0
  -31.6965  -15.0597   20.1026 O   0  0  0  0  0  0
  -21.6646   -6.8913   21.4247 O   0  0  0  0  0  0
  -22.3508  -14.5532   20.6775 O   0  0  0  0  0  0
  -24.6438  -31.8401   23.1857 C   0  0  0  0  0  0
  -25.9189  -32.4663   23.8265 C   0  0  1  0  0  0
  -27.2177  -27.1056   20.1849 C   0  0  0  0  0  0
  -25.5909  -33.8477   24.2163 N   0  0  0  0  0  0
  -23.4513  -30.4589   21.5299 C   0  0  2  0  0  0
  -24.9029  -28.8759   20.1143 C   0  0  0  0  0  0
  -22.7575  -29.4553   22.4836 C   0  0  0  0  0  0
  -18.0318  -28.1412   22.8470 C   0  0  0  0  0  0
  -24.1509  -36.7279   23.2642 C   0  0  0  0  0  0
  -26.0064  -30.7120   21.3827 C   0  0  0  0  0  0
  -26.0815  -29.3163   20.7330 C   0  0  0  0  0  0
  -27.2415  -28.4516   20.7422 C   0  0  0  0  0  0
  -26.0140  -26.7666   19.5286 C   0  0  0  0  0  0
  -24.8850  -27.6173   19.4934 C   0  0  0  0  0  0
  -23.6785  -29.7801   20.1525 C   0  0  0  0  0  0
  -25.4137  -36.3012   24.0296 C   0  0  1  0  0  0
  -20.5934  -28.3748   23.1227 C   0  0  2  0  0  0
  -20.6827  -26.9451   22.5423 C   0  0  0  0  0  0
  -19.5805  -26.6397   21.5242 C   0  0  0  0  0  0
  -18.1964  -26.7953   22.1621 C   0  0  0  0  0  0
  -19.1572  -28.8889   23.2842 C   0  0  0  0  0  0
  -18.9503  -30.1475   23.8881 C   0  0  0  0  0  0
  -17.6504  -30.6616   24.0559 C   0  0  0  0  0  0
  -25.9081  -34.9378   23.5052 C   0  0  0  0  0  0
  -16.5384  -29.9114   23.6350 C   0  0  0  0  0  0
  -16.7308  -28.6532   23.0363 C   0  0  0  0  0  0
  -26.4508  -31.6551   25.0727 C   0  0  0  0  0  0
  -25.3697  -31.3719   26.1433 C   0  0  0  0  0  0
  -27.0364  -30.2917   24.6346 C   0  0  0  0  0  0
  -27.6039  -32.4327   25.7511 C   0  0  0  0  0  0
  -27.5593  -37.1779   24.8449 C   0  0  0  0  0  0
  -21.4266  -29.3057   22.3561 N   0  0  0  0  0  0
  -26.4294  -37.3727   23.9395 N   0  0  0  0  0  0
  -24.7211  -31.0262   22.0882 N   0  0  0  0  0  0
  -23.4192  -28.8110   23.3018 O   0  0  0  0  0  0
  -28.2799  -26.1239   20.2004 O   0  0  0  0  0  0
  -26.5725  -34.8867   22.4669 O   0  0  0  0  0  0
  -23.5560  -32.1282   23.7067 O   0  0  0  0  0  0
  -31.5628  -19.9974   18.2687 C   0  0  0  0  0  0
  -31.1067  -21.3953   17.9451 C   0  0  0  0  0  0
  -28.0224  -19.4957   21.1720 C   0  0  0  0  0  0
  -27.8357  -21.0700   21.3476 C   0  0  0  0  0  0
  -30.9799  -20.8732   19.3622 C   0  0  0  0  0  0
  -29.6098  -20.5619   19.9425 C   0  0  1  0  0  0
  -29.5142  -19.1556   20.8312 C   0  0  2  0  0  0
  -29.8648  -18.5424   23.3608 C   0  0  0  0  0  0
  -31.8870  -18.8913   21.9207 C   0  0  0  0  0  0
  -29.8370  -17.6395   20.0952 C   0  0  0  0  0  0
  -28.6850  -23.1984   19.9390 C   0  0  0  0  0  0
  -28.1106  -24.6272   20.6638 C   0  0  0  0  0  0
  -30.4090  -19.2861   22.1226 C   0  0  0  0  0  0
  -29.7162  -16.1498   20.6422 N   0  0  0  0  0  0
  -28.9525  -21.7823   20.6598 N   0  3  1  0  0  0
  -31.4699  -12.7672   19.2151 H   0  0  0  0  0  0
  -30.4203  -11.6559   20.0455 H   0  0  0  0  0  0
  -29.8467  -11.7494   17.6001 H   0  0  0  0  0  0
  -29.6161  -13.4763   17.6966 H   0  0  0  0  0  0
  -27.9489  -11.2910   18.9717 H   0  0  0  0  0  0
  -27.3954  -12.4793   17.8207 H   0  0  0  0  0  0
  -27.5926  -14.2624   19.4288 H   0  0  0  0  0  0
  -28.7499  -12.3121   21.4787 H   0  0  0  0  0  0
  -28.3527  -13.9885   21.7684 H   0  0  0  0  0  0
  -25.2784   -9.5685   22.4801 H   0  0  0  0  0  0
  -24.0014   -7.4643   22.7485 H   0  0  0  0  0  0
  -21.0874   -8.8848   19.8965 H   0  0  0  0  0  0
  -22.3766  -10.9722   19.6206 H   0  0  0  0  0  0
  -21.2016   -7.6169   23.9732 H   0  0  0  0  0  0
  -21.1468   -6.0527   25.9071 H   0  0  0  0  0  0
  -22.0596   -2.7640   23.2817 H   0  0  0  0  0  0
  -22.4061  -11.9798   22.4773 H   0  0  0  0  0  0
  -21.1095  -13.1236   22.2698 H   0  0  0  0  0  0
  -24.6444  -15.8447   20.5566 H   0  0  0  0  0  0
  -26.2557  -15.6452   20.0957 H   0  0  0  0  0  0
  -26.7265  -32.5272   23.1002 H   0  0  0  0  0  0
  -24.9908  -33.9591   25.0196 H   0  0  0  0  0  0
  -22.7555  -31.2844   21.3670 H   0  0  0  0  0  0
  -23.3750  -35.9634   23.3270 H   0  0  0  0  0  0
  -24.3608  -36.8988   22.2074 H   0  0  0  0  0  0
  -23.7301  -37.6465   23.6750 H   0  0  0  0  0  0
  -26.1577  -31.4622   20.6057 H   0  0  0  0  0  0
  -26.8750  -30.7704   22.0261 H   0  0  0  0  0  0
  -28.1447  -28.7900   21.2324 H   0  0  0  0  0  0
  -25.9326  -25.7995   19.0523 H   0  0  0  0  0  0
  -23.9875  -27.2771   18.9937 H   0  0  0  0  0  0
  -23.8066  -30.5490   19.3885 H   0  0  0  0  0  0
  -22.7936  -29.2171   19.8502 H   0  0  0  0  0  0
  -25.1313  -36.1858   25.0786 H   0  0  0  0  0  0
  -21.0014  -28.3402   24.1353 H   0  0  0  0  0  0
  -20.5801  -26.2359   23.3650 H   0  0  0  0  0  0
  -21.6686  -26.7540   22.1169 H   0  0  0  0  0  0
  -19.7009  -25.6310   21.1280 H   0  0  0  0  0  0
  -19.6759  -27.3190   20.6752 H   0  0  0  0  0  0
  -17.4261  -26.6699   21.4004 H   0  0  0  0  0  0
  -18.0349  -26.0100   22.9018 H   0  0  0  0  0  0
  -19.7985  -30.7270   24.2261 H   0  0  0  0  0  0
  -17.5081  -31.6294   24.5162 H   0  0  0  0  0  0
  -15.5392  -30.3005   23.7706 H   0  0  0  0  0  0
  -15.8701  -28.0844   22.7089 H   0  0  0  0  0  0
  -24.5940  -30.6973   25.7781 H   0  0  0  0  0  0
  -24.8774  -32.2858   26.4767 H   0  0  0  0  0  0
  -25.7978  -30.9012   27.0286 H   0  0  0  0  0  0
  -26.2974  -29.6605   24.1377 H   0  0  0  0  0  0
  -27.3948  -29.7253   25.4962 H   0  0  0  0  0  0
  -27.8907  -30.4076   23.9654 H   0  0  0  0  0  0
  -27.2663  -33.3703   26.1939 H   0  0  0  0  0  0
  -28.3930  -32.6764   25.0377 H   0  0  0  0  0  0
  -28.0609  -31.8546   26.5556 H   0  0  0  0  0  0
  -28.2538  -38.0133   24.7518 H   0  0  0  0  0  0
  -28.1147  -36.2654   24.6241 H   0  0  0  0  0  0
  -27.2301  -37.1381   25.8840 H   0  0  0  0  0  0
  -20.9512  -29.8709   21.6674 H   0  0  0  0  0  0
  -26.0163  -38.2788   24.1401 H   0  0  0  0  0  0
  -32.6329  -19.8064   18.2870 H   0  0  0  0  0  0
  -30.9540  -19.1811   17.8830 H   0  0  0  0  0  0
  -30.2051  -21.4892   17.3415 H   0  0  0  0  0  0
  -31.8777  -22.1352   17.7402 H   0  0  0  0  0  0
  -27.3996  -19.1758   20.3352 H   0  0  0  0  0  0
  -27.6221  -18.9465   22.0231 H   0  0  0  0  0  0
  -27.8563  -21.3353   22.4062 H   0  0  0  0  0  0
  -26.8700  -21.3913   20.9577 H   0  0  0  0  0  0
  -31.6978  -21.2635   20.0805 H   0  0  0  0  0  0
  -28.9768  -20.3901   19.0683 H   0  0  0  0  0  0
  -28.9540  -18.9989   23.7485 H   0  0  0  0  0  0
  -30.5841  -18.5735   24.1802 H   0  0  0  0  0  0
  -29.6553  -17.4953   23.1445 H   0  0  0  0  0  0
  -32.3021  -19.2505   20.9822 H   0  0  0  0  0  0
  -32.0215  -17.8089   21.9424 H   0  0  0  0  0  0
  -32.5129  -19.3045   22.7132 H   0  0  0  0  0  0
  -30.8533  -17.6971   19.7055 H   0  0  0  0  0  0
  -29.2218  -17.6282   19.1939 H   0  0  0  0  0  0
  -29.6445  -23.4718   19.5006 H   0  0  0  0  0  0
  -28.0405  -22.9886   19.0856 H   0  0  0  0  0  0
  -28.5554  -24.6364   21.6594 H   0  0  0  0  0  0
  -27.0514  -24.4709   20.8627 H   0  0  0  0  0  0
  -30.4292  -20.3355   22.4112 H   0  0  0  0  0  0
  -28.7830  -15.9296   20.9613 H   0  0  0  0  0  0
  -29.5959  -22.0039   21.4059 H   0  0  0  0  0  0
  1 25  1  0  0  0
  1 30  2  0  0  0
  1 84  1  0  0  0
  2  3  1  0  0  0
  2 25  1  0  0  0
  2 86  1  0  0  0
  2 87  1  0  0  0
  3  4  1  0  0  0
  3 88  1  0  0  0
  3 89  1  0  0  0
  4  5  1  0  0  0
  4 90  1  0  0  0
  4 91  1  0  0  0
  5  6  1  0  0  0
  5 26  1  0  0  0
  5 92  1  0  0  0
  6 25  1  0  0  0
  6 93  1  0  0  0
  6 94  1  0  0  0
  7  8  2  0  0  0
  7 26  1  0  0  0
  7 29  1  0  0  0
  8  9  1  0  0  0
  8 22  1  0  0  0
  9 10  1  0  0  0
  9 27  2  0  0  0
 10 11  2  0  0  0
 10 15  1  0  0  0
 11 12  1  0  0  0
 11 95  1  0  0  0
 12 13  2  0  0  0
 12 96  1  0  0  0
 13 14  1  0  0  0
 13 31  1  0  0  0
 14 15  2  0  0  0
 14 97  1  0  0  0
 15 98  1  0  0  0
 16 17  2  0  0  0
 16 21  1  0  0  0
 16 31  1  0  0  0
 17 18  1  0  0  0
 17 99  1  0  0  0
 18 19  2  0  0  0
 18100  1  0  0  0
 19 20  1  0  0  0
 19 24  1  0  0  0
 20 21  2  0  0  0
 20101  1  0  0  0
 21 23  1  0  0  0
 22 28  1  0  0  0
 22 32  2  0  0  0
 26 27  1  0  0  0
 28102  1  0  0  0
 28103  1  0  0  0
 29104  1  0  0  0
 29105  1  0  0  0
 33 34  1  0  0  0
 33 66  1  0  0  0
 33 70  2  0  0  0
 34 36  1  0  0  0
 34 59  1  0  0  0
 34106  1  0  0  0
 35 44  2  0  0  0
 35 45  1  0  0  0
 35 68  1  0  0  0
 36 56  1  0  0  0
 36107  1  0  0  0
 37 39  1  0  0  0
 37 47  1  0  0  0
 37 66  1  0  0  0
 37108  1  0  0  0
 38 43  2  0  0  0
 38 46  1  0  0  0
 38 47  1  0  0  0
 39 64  1  0  0  0
 39 67  2  0  0  0
 40 52  1  0  0  0
 40 53  2  0  0  0
 40 58  1  0  0  0
 41109  1  0  0  0
 41110  1  0  0  0
 41111  1  0  0  0
 41 48  1  0  0  0
 42 43  1  0  0  0
 42 66  1  0  0  0
 42112  1  0  0  0
 42113  1  0  0  0
 43 44  1  0  0  0
 44114  1  0  0  0
 45 46  2  0  0  0
 45115  1  0  0  0
 46116  1  0  0  0
 47117  1  0  0  0
 47118  1  0  0  0
 48 56  1  0  0  0
 48 65  1  0  0  0
 48119  1  0  0  0
 49 50  1  0  0  0
 49 53  1  0  0  0
 49 64  1  0  0  0
 49120  1  0  0  0
 50 51  1  0  0  0
 50121  1  0  0  0
 50122  1  0  0  0
 51 52  1  0  0  0
 51123  1  0  0  0
 51124  1  0  0  0
 52125  1  0  0  0
 52126  1  0  0  0
 53 54  1  0  0  0
 54 55  2  0  0  0
 54127  1  0  0  0
 55 57  1  0  0  0
 55128  1  0  0  0
 56 69  2  0  0  0
 57 58  2  0  0  0
 57129  1  0  0  0
 58130  1  0  0  0
 59 60  1  0  0  0
 59 61  1  0  0  0
 59 62  1  0  0  0
 60131  1  0  0  0
 60132  1  0  0  0
 60133  1  0  0  0
 61134  1  0  0  0
 61135  1  0  0  0
 61136  1  0  0  0
 62137  1  0  0  0
 62138  1  0  0  0
 62139  1  0  0  0
 63 65  1  0  0  0
 63140  1  0  0  0
 63141  1  0  0  0
 63142  1  0  0  0
 64143  1  0  0  0
 65144  1  0  0  0
 68 82  1  0  0  0
 71 72  1  0  0  0
 71145  1  0  0  0
 71146  1  0  0  0
 71 75  1  0  0  0
 72 75  1  0  0  0
 72147  1  0  0  0
 72148  1  0  0  0
 73 74  1  0  0  0
 73 77  1  0  0  0
 73149  1  0  0  0
 73150  1  0  0  0
 74 85  1  0  0  0
 74151  1  0  0  0
 74152  1  0  0  0
 75153  1  0  0  0
 75 76  1  0  0  0
 76 77  1  0  0  0
 76 85  1  0  0  0
 76154  1  0  0  0
 77 80  1  0  0  0
 77 83  1  0  0  0
 78155  1  0  0  0
 78156  1  0  0  0
 78157  1  0  0  0
 78 83  1  0  0  0
 79 83  1  0  0  0
 79158  1  0  0  0
 79159  1  0  0  0
 79160  1  0  0  0
 80 84  1  0  0  0
 80161  1  0  0  0
 80162  1  0  0  0
 81 82  1  0  0  0
 81163  1  0  0  0
 81164  1  0  0  0
 81 85  1  0  0  0
 82165  1  0  0  0
 82166  1  0  0  0
 83167  1  0  0  0
 84168  1  0  0  0
 85169  1  0  0  0
M  CHG  1  85   1
M  ISO  4   1 100  68 101  82 101  84 100
M  END
> <chiral flag>
0

> <version>
0

> <s_m_source_file>
/data/baiqing/PycharmProjects/Reinvent-master-3.2/result/LINK_invent/BTK/process_docking_weight1_custom_sum_contain_oxygen_bond_distance_aromatic_linkinvent_7_9_3/rearranged_h_0139.sdf

> <i_m_source_file_index>
36

> <r_mmod_Potential_Energy-OPLS-2005>
681.419860839844

> <r_mmod_Stretch_Energy-OPLS-2005>
296.035308837891

> <r_mmod_Bend_Energy-OPLS-2005>
345.465118408203

> <r_mmod_Torsional_Energy-OPLS-2005>
373.155303955078

> <r_mmod_Improper_Torsional_Energy-OPLS-2005>
5.56548833847046

> <r_mmod_Van_der_Waal_Energy-OPLS-2005>
103.992553710938

> <r_mmod_Electrostatic_Energy-OPLS-2005>
-228.271682739258

> <r_mmod_Solvation_Energy-OPLS-2005>
-427.158233642578

> <b_mmod_Minimization_Converged-OPLS-2005>
0

> <r_mmod_RMS_Derivative-OPLS-2005>
3.66521501541138

$$$$
36
                    3D
 Structure written by MMmdl.
160169  0  0  1  0            999 V2000
  -30.6705  -14.6748   20.4940 C   0  0  0  0  0  0
  -30.4247  -12.4244   19.4546 C   0  0  0  0  0  0
  -29.4979  -12.4973   18.2232 C   0  0  0  0  0  0
  -28.0263  -12.3305   18.6465 C   0  0  0  0  0  0
  -27.6422  -13.2307   19.8517 C   0  0  2  0  0  0
  -28.6914  -13.1555   20.9826 C   0  0  0  0  0  0
  -25.2520  -13.8209   20.5719 C   0  0  0  0  0  0
  -24.1802  -13.0454   20.9209 C   0  0  0  0  0  0
  -24.6389  -11.6927   20.8758 C   0  0  0  0  0  0
  -23.9065  -10.4301   21.0422 C   0  0  0  0  0  0
  -24.3608   -9.4220   21.9199 C   0  0  0  0  0  0
  -23.6285   -8.2253   22.0764 C   0  0  0  0  0  0
  -22.4273   -8.0282   21.3550 C   0  0  0  0  0  0
  -21.9910   -9.0260   20.4653 C   0  0  0  0  0  0
  -22.7236  -10.2144   20.3068 C   0  0  0  0  0  0
  -21.6854   -6.0733   22.5279 C   0  0  0  0  0  0
  -21.4014   -6.5635   23.8208 C   0  0  0  0  0  0
  -21.3654   -5.6789   24.9169 C   0  0  0  0  0  0
  -21.6041   -4.3053   24.7226 C   0  0  0  0  0  0
  -21.8816   -3.8147   23.4343 C   0  0  0  0  0  0
  -21.9188   -4.6962   22.3401 C   0  0  0  0  0  0
  -22.7825  -13.5238   21.1869 C   0  0  0  0  0  0
  -22.1658   -4.2150   21.0982 F   0  0  0  0  0  0
  -21.5623   -3.4539   25.7735 F   0  0  0  0  0  0
  -29.9964  -13.4836   20.3940 N   0  0  0  0  0  0
  -26.2942  -12.9413   20.3314 N   0  0  0  0  0  0
  -25.9319  -11.6558   20.5777 N   0  0  0  0  0  0
  -22.0454  -12.8226   22.0416 N   0  0  0  0  0  0
  -25.4226  -15.1932   20.4146 N   0  0  0  0  0  0
  -31.8586  -14.7448   20.1730 O   0  0  0  0  0  0
  -21.6634   -6.8883   21.4243 O   0  0  0  0  0  0
  -22.3522  -14.5546   20.6716 O   0  0  0  0  0  0
  -24.6286  -31.8591   23.2048 C   0  0  0  0  0  0
  -25.9111  -32.4777   23.8367 C   0  0  1  0  0  0
  -27.2052  -27.2829   20.1094 C   0  0  0  0  0  0
  -25.5902  -33.8580   24.2285 N   0  0  0  0  0  0
  -23.4228  -30.4884   21.5498 C   0  0  2  0  0  0
  -24.8665  -28.9552   20.1044 C   0  0  0  0  0  0
  -22.7492  -29.4629   22.4936 C   0  0  0  0  0  0
  -18.0281  -28.1390   22.8490 C   0  0  0  0  0  0
  -24.1480  -36.7306   23.2642 C   0  0  0  0  0  0
  -25.9707  -30.7765   21.3851 C   0  0  0  0  0  0
  -26.0398  -29.4037   20.7250 C   0  0  0  0  0  0
  -27.2097  -28.5763   20.7288 C   0  0  0  0  0  0
  -26.0121  -26.9292   19.4254 C   0  0  0  0  0  0
  -24.8575  -27.7229   19.4464 C   0  0  0  0  0  0
  -23.6367  -29.8371   20.1613 C   0  0  0  0  0  0
  -25.4107  -36.3094   24.0339 C   0  0  1  0  0  0
  -20.5891  -28.3693   23.1282 C   0  0  2  0  0  0
  -20.6776  -26.9414   22.5403 C   0  0  0  0  0  0
  -19.5748  -26.6383   21.5214 C   0  0  0  0  0  0
  -18.1924  -26.7928   22.1627 C   0  0  0  0  0  0
  -19.1541  -28.8858   23.2880 C   0  0  0  0  0  0
  -18.9469  -30.1461   23.8896 C   0  0  0  0  0  0
  -17.6468  -30.6591   24.0579 C   0  0  0  0  0  0
  -25.9050  -34.9459   23.5127 C   0  0  0  0  0  0
  -16.5362  -29.9098   23.6340 C   0  0  0  0  0  0
  -16.7271  -28.6523   23.0353 C   0  0  0  0  0  0
  -26.4479  -31.6587   25.0741 C   0  0  0  0  0  0
  -25.3702  -31.3699   26.1457 C   0  0  0  0  0  0
  -27.0331  -30.3017   24.6188 C   0  0  0  0  0  0
  -27.6035  -32.4328   25.7506 C   0  0  0  0  0  0
  -27.5578  -37.1801   24.8471 C   0  0  0  0  0  0
  -21.4201  -29.3048   22.3681 N   0  0  0  0  0  0
  -26.4288  -37.3786   23.9425 N   0  0  0  0  0  0
  -24.6933  -31.0577   22.1024 N   0  0  0  0  0  0
  -23.4205  -28.8144   23.3004 O   0  0  0  0  0  0
  -28.2693  -26.3486   20.1991 O   0  0  0  0  0  0
  -26.5643  -34.8924   22.4706 O   0  0  0  0  0  0
  -23.5442  -32.1403   23.7365 O   0  0  0  0  0  0
  -28.6196  -22.4991   19.3197 C   0  0  0  0  0  0
  -29.2253  -23.3542   21.4809 C   0  0  0  0  0  0
  -29.0044  -21.1706   19.6948 C   0  0  0  0  0  0
  -28.6927  -23.6236   20.1974 C   0  0  0  0  0  0
  -29.5251  -20.9119   20.9838 C   0  0  0  0  0  0
  -29.6385  -22.0378   21.8598 C   0  0  0  0  0  0
  -29.9401  -18.5582   20.6166 C   0  0  0  0  0  0
  -29.5151  -18.6598   19.1545 C   0  0  0  0  0  0
  -28.8157  -19.9974   18.7234 C   0  0  1  0  0  0
  -27.0686  -19.0260   17.0891 C   0  0  0  0  0  0
  -27.9354  -24.9486   19.7947 C   0  0  0  0  0  0
  -30.5876  -17.1801   21.0700 C   0  0  0  0  0  0
  -27.3167  -19.7754   18.4082 C   0  0  0  0  0  0
  -29.9149  -19.5935   21.3974 N   0  0  0  0  0  0
  -29.9721  -15.8255   20.7807 N   0  0  0  0  0  0
  -30.2592  -21.8152   23.4582 Cl  0  0  0  0  0  0
  -31.4653  -12.5345   19.1443 H   0  0  0  0  0  0
  -30.3573  -11.4458   19.9317 H   0  0  0  0  0  0
  -29.7676  -11.7244   17.5021 H   0  0  0  0  0  0
  -29.6293  -13.4524   17.7131 H   0  0  0  0  0  0
  -27.8807  -11.2825   18.9113 H   0  0  0  0  0  0
  -27.3631  -12.5227   17.8024 H   0  0  0  0  0  0
  -27.6410  -14.2528   19.4742 H   0  0  0  0  0  0
  -28.7163  -12.1597   21.4271 H   0  0  0  0  0  0
  -28.4384  -13.8443   21.7900 H   0  0  0  0  0  0
  -25.2744   -9.5696   22.4781 H   0  0  0  0  0  0
  -23.9983   -7.4655   22.7493 H   0  0  0  0  0  0
  -21.0839   -8.8787   19.8962 H   0  0  0  0  0  0
  -22.3694  -10.9686   19.6181 H   0  0  0  0  0  0
  -21.2010   -7.6144   23.9720 H   0  0  0  0  0  0
  -21.1471   -6.0513   25.9074 H   0  0  0  0  0  0
  -22.0593   -2.7608   23.2844 H   0  0  0  0  0  0
  -22.4043  -11.9869   22.4789 H   0  0  0  0  0  0
  -21.1080  -13.1277   22.2632 H   0  0  0  0  0  0
  -24.6564  -15.8478   20.5265 H   0  0  0  0  0  0
  -26.2725  -15.6337   20.0878 H   0  0  0  0  0  0
  -26.7169  -32.5418   23.1103 H   0  0  0  0  0  0
  -24.9981  -33.9718   25.0380 H   0  0  0  0  0  0
  -22.7176  -31.3108   21.4113 H   0  0  0  0  0  0
  -23.3744  -35.9629   23.3294 H   0  0  0  0  0  0
  -24.3568  -36.8946   22.2056 H   0  0  0  0  0  0
  -23.7225  -37.6501   23.6676 H   0  0  0  0  0  0
  -26.1049  -31.5353   20.6129 H   0  0  0  0  0  0
  -26.8513  -30.8268   22.0134 H   0  0  0  0  0  0
  -28.0976  -28.9054   21.2503 H   0  0  0  0  0  0
  -25.9112  -26.0114   18.8681 H   0  0  0  0  0  0
  -23.9667  -27.3823   18.9366 H   0  0  0  0  0  0
  -23.7519  -30.6195   19.4102 H   0  0  0  0  0  0
  -22.7547  -29.2696   19.8580 H   0  0  0  0  0  0
  -25.1272  -36.1958   25.0831 H   0  0  0  0  0  0
  -20.9976  -28.3256   24.1408 H   0  0  0  0  0  0
  -20.5683  -26.2299   23.3598 H   0  0  0  0  0  0
  -21.6644  -26.7434   22.1197 H   0  0  0  0  0  0
  -19.6922  -25.6296   21.1235 H   0  0  0  0  0  0
  -19.6704  -27.3208   20.6752 H   0  0  0  0  0  0
  -17.4194  -26.6683   21.4029 H   0  0  0  0  0  0
  -18.0336  -26.0058   22.9023 H   0  0  0  0  0  0
  -19.7951  -30.7274   24.2259 H   0  0  0  0  0  0
  -17.5029  -31.6270   24.5186 H   0  0  0  0  0  0
  -15.5371  -30.3004   23.7657 H   0  0  0  0  0  0
  -15.8674  -28.0847   22.7067 H   0  0  0  0  0  0
  -24.5937  -30.6980   25.7785 H   0  0  0  0  0  0
  -24.8809  -32.2836   26.4840 H   0  0  0  0  0  0
  -25.8021  -30.8925   27.0265 H   0  0  0  0  0  0
  -26.2913  -29.6765   24.1208 H   0  0  0  0  0  0
  -27.4044  -29.7274   25.4682 H   0  0  0  0  0  0
  -27.8767  -30.4327   23.9411 H   0  0  0  0  0  0
  -27.2672  -33.3686   26.1997 H   0  0  0  0  0  0
  -28.3878  -32.6801   25.0336 H   0  0  0  0  0  0
  -28.0649  -31.8494   26.5488 H   0  0  0  0  0  0
  -28.2583  -38.0103   24.7520 H   0  0  0  0  0  0
  -28.1089  -36.2638   24.6295 H   0  0  0  0  0  0
  -27.2297  -37.1447   25.8870 H   0  0  0  0  0  0
  -20.9374  -29.8811   21.6930 H   0  0  0  0  0  0
  -26.0179  -38.2871   24.1402 H   0  0  0  0  0  0
  -28.1839  -22.6433   18.3407 H   0  0  0  0  0  0
  -29.2708  -24.1511   22.2092 H   0  0  0  0  0  0
  -28.9153  -17.7890   18.8956 H   0  0  0  0  0  0
  -30.4290  -18.5579   18.5685 H   0  0  0  0  0  0
  -29.2939  -20.3196   17.7970 H   0  0  0  0  0  0
  -25.9995  -18.9077   16.9108 H   0  0  0  0  0  0
  -27.5142  -18.0310   17.0902 H   0  0  0  0  0  0
  -27.4803  -19.5727   16.2396 H   0  0  0  0  0  0
  -26.9448  -24.7143   20.1858 H   0  0  0  0  0  0
  -27.8605  -24.9452   18.7066 H   0  0  0  0  0  0
  -30.7134  -17.2240   22.1524 H   0  0  0  0  0  0
  -31.6060  -17.1914   20.6808 H   0  0  0  0  0  0
  -26.8078  -20.7357   18.3195 H   0  0  0  0  0  0
  -26.8303  -19.2634   19.2398 H   0  0  0  0  0  0
  -28.9805  -15.7350   20.9401 H   0  0  0  0  0  0
  1 25  1  0  0  0
  1 30  2  0  0  0
  1 85  1  0  0  0
  2  3  1  0  0  0
  2 25  1  0  0  0
  2 87  1  0  0  0
  2 88  1  0  0  0
  3  4  1  0  0  0
  3 89  1  0  0  0
  3 90  1  0  0  0
  4  5  1  0  0  0
  4 91  1  0  0  0
  4 92  1  0  0  0
  5  6  1  0  0  0
  5 26  1  0  0  0
  5 93  1  0  0  0
  6 25  1  0  0  0
  6 94  1  0  0  0
  6 95  1  0  0  0
  7  8  2  0  0  0
  7 26  1  0  0  0
  7 29  1  0  0  0
  8  9  1  0  0  0
  8 22  1  0  0  0
  9 10  1  0  0  0
  9 27  2  0  0  0
 10 11  2  0  0  0
 10 15  1  0  0  0
 11 12  1  0  0  0
 11 96  1  0  0  0
 12 13  2  0  0  0
 12 97  1  0  0  0
 13 14  1  0  0  0
 13 31  1  0  0  0
 14 15  2  0  0  0
 14 98  1  0  0  0
 15 99  1  0  0  0
 16 17  2  0  0  0
 16 21  1  0  0  0
 16 31  1  0  0  0
 17 18  1  0  0  0
 17100  1  0  0  0
 18 19  2  0  0  0
 18101  1  0  0  0
 19 20  1  0  0  0
 19 24  1  0  0  0
 20 21  2  0  0  0
 20102  1  0  0  0
 21 23  1  0  0  0
 22 28  1  0  0  0
 22 32  2  0  0  0
 26 27  1  0  0  0
 28103  1  0  0  0
 28104  1  0  0  0
 29105  1  0  0  0
 29106  1  0  0  0
 33 34  1  0  0  0
 33 66  1  0  0  0
 33 70  2  0  0  0
 34 36  1  0  0  0
 34 59  1  0  0  0
 34107  1  0  0  0
 35 44  2  0  0  0
 35 45  1  0  0  0
 35 68  1  0  0  0
 36 56  1  0  0  0
 36108  1  0  0  0
 37 39  1  0  0  0
 37 47  1  0  0  0
 37 66  1  0  0  0
 37109  1  0  0  0
 38 43  2  0  0  0
 38 46  1  0  0  0
 38 47  1  0  0  0
 39 64  1  0  0  0
 39 67  2  0  0  0
 40 52  1  0  0  0
 40 53  2  0  0  0
 40 58  1  0  0  0
 41110  1  0  0  0
 41111  1  0  0  0
 41112  1  0  0  0
 41 48  1  0  0  0
 42 43  1  0  0  0
 42 66  1  0  0  0
 42113  1  0  0  0
 42114  1  0  0  0
 43 44  1  0  0  0
 44115  1  0  0  0
 45 46  2  0  0  0
 45116  1  0  0  0
 46117  1  0  0  0
 47118  1  0  0  0
 47119  1  0  0  0
 48 56  1  0  0  0
 48 65  1  0  0  0
 48120  1  0  0  0
 49 50  1  0  0  0
 49 53  1  0  0  0
 49 64  1  0  0  0
 49121  1  0  0  0
 50 51  1  0  0  0
 50122  1  0  0  0
 50123  1  0  0  0
 51 52  1  0  0  0
 51124  1  0  0  0
 51125  1  0  0  0
 52126  1  0  0  0
 52127  1  0  0  0
 53 54  1  0  0  0
 54 55  2  0  0  0
 54128  1  0  0  0
 55 57  1  0  0  0
 55129  1  0  0  0
 56 69  2  0  0  0
 57 58  2  0  0  0
 57130  1  0  0  0
 58131  1  0  0  0
 59 60  1  0  0  0
 59 61  1  0  0  0
 59 62  1  0  0  0
 60132  1  0  0  0
 60133  1  0  0  0
 60134  1  0  0  0
 61135  1  0  0  0
 61136  1  0  0  0
 61137  1  0  0  0
 62138  1  0  0  0
 62139  1  0  0  0
 62140  1  0  0  0
 63 65  1  0  0  0
 63141  1  0  0  0
 63142  1  0  0  0
 63143  1  0  0  0
 64144  1  0  0  0
 65145  1  0  0  0
 68 81  1  0  0  0
 71 73  2  0  0  0
 71 74  1  0  0  0
 71146  1  0  0  0
 72 74  2  0  0  0
 72 76  1  0  0  0
 72147  1  0  0  0
 73 75  1  0  0  0
 73 79  1  0  0  0
 74 81  1  0  0  0
 75 76  2  0  0  0
 75 84  1  0  0  0
 76 86  1  0  0  0
 77 78  1  0  0  0
 77 82  1  0  0  0
 77 84  2  0  0  0
 78 79  1  0  0  0
 78148  1  0  0  0
 78149  1  0  0  0
 79 83  1  0  0  0
 79150  1  0  0  0
 80 83  1  0  0  0
 80151  1  0  0  0
 80152  1  0  0  0
 80153  1  0  0  0
 81154  1  0  0  0
 81155  1  0  0  0
 82 85  1  0  0  0
 82156  1  0  0  0
 82157  1  0  0  0
 83158  1  0  0  0
 83159  1  0  0  0
 85160  1  0  0  0
M  ISO  4   1 100  68 101  81 101  85 100
M  END
> <chiral flag>
0

> <version>
0

> <s_m_source_file>
/data/baiqing/PycharmProjects/Reinvent-master-3.2/result/LINK_invent/BTK/process_docking_weight1_custom_sum_contain_oxygen_bond_distance_aromatic_linkinvent_7_9_3/rearranged_h_0139.sdf

> <i_m_source_file_index>
37

> <r_mmod_Potential_Energy-OPLS-2005>
72.9303283691406

> <r_mmod_Stretch_Energy-OPLS-2005>
93.5553970336914

> <r_mmod_Bend_Energy-OPLS-2005>
170.116577148438

> <r_mmod_Torsional_Energy-OPLS-2005>
224.938095092773

> <r_mmod_Improper_Torsional_Energy-OPLS-2005>
7.36795282363892

> <r_mmod_Van_der_Waal_Energy-OPLS-2005>
161.462432861328

> <r_mmod_Electrostatic_Energy-OPLS-2005>
-441.767852783203

> <r_mmod_Solvation_Energy-OPLS-2005>
-216.376388549805

> <b_mmod_Minimization_Converged-OPLS-2005>
0

> <r_mmod_RMS_Derivative-OPLS-2005>
1.83828508853912

$$$$
37
                    3D
 Structure written by MMmdl.
168177  0  0  1  0            999 V2000
  -30.5146  -14.9731   20.4167 C   0  0  0  0  0  0
  -30.4473  -12.6089   19.4817 C   0  0  0  0  0  0
  -29.5181  -12.5200   18.2471 C   0  0  0  0  0  0
  -28.0503  -12.3080   18.6683 C   0  0  0  0  0  0
  -27.6250  -13.2420   19.8320 C   0  0  2  0  0  0
  -28.6712  -13.2753   20.9618 C   0  0  0  0  0  0
  -25.2467  -13.8220   20.5703 C   0  0  0  0  0  0
  -24.1756  -13.0395   20.9209 C   0  0  0  0  0  0
  -24.6355  -11.6929   20.8741 C   0  0  0  0  0  0
  -23.9049  -10.4286   21.0425 C   0  0  0  0  0  0
  -24.3623   -9.4182   21.9162 C   0  0  0  0  0  0
  -23.6298   -8.2220   22.0746 C   0  0  0  0  0  0
  -22.4268   -8.0256   21.3547 C   0  0  0  0  0  0
  -21.9921   -9.0235   20.4638 C   0  0  0  0  0  0
  -22.7265  -10.2111   20.3048 C   0  0  0  0  0  0
  -21.6875   -6.0720   22.5272 C   0  0  0  0  0  0
  -21.4012   -6.5635   23.8192 C   0  0  0  0  0  0
  -21.3660   -5.6795   24.9164 C   0  0  0  0  0  0
  -21.6040   -4.3061   24.7229 C   0  0  0  0  0  0
  -21.8827   -3.8151   23.4355 C   0  0  0  0  0  0
  -21.9186   -4.6943   22.3401 C   0  0  0  0  0  0
  -22.7781  -13.5154   21.1882 C   0  0  0  0  0  0
  -22.1664   -4.2130   21.0986 F   0  0  0  0  0  0
  -21.5640   -3.4527   25.7762 F   0  0  0  0  0  0
  -29.9354  -13.7086   20.3494 N   0  0  0  0  0  0
  -26.2884  -12.9398   20.3275 N   0  0  0  0  0  0
  -25.9294  -11.6565   20.5736 N   0  0  0  0  0  0
  -22.0461  -12.8112   22.0486 N   0  0  0  0  0  0
  -25.4040  -15.1904   20.4116 N   0  0  0  0  0  0
  -31.7314  -15.0391   20.2239 O   0  0  0  0  0  0
  -21.6645   -6.8855   21.4247 O   0  0  0  0  0  0
  -22.3456  -14.5468   20.6753 O   0  0  0  0  0  0
  -24.6425  -31.8472   23.1892 C   0  0  0  0  0  0
  -25.9247  -32.4707   23.8257 C   0  0  1  0  0  0
  -27.1847  -27.0983   20.1477 C   0  0  0  0  0  0
  -25.5993  -33.8515   24.2180 N   0  0  0  0  0  0
  -23.4458  -30.4702   21.5363 C   0  0  2  0  0  0
  -24.8892  -28.8961   20.1084 C   0  0  0  0  0  0
  -22.7562  -29.4552   22.4821 C   0  0  0  0  0  0
  -18.0330  -28.1407   22.8469 C   0  0  0  0  0  0
  -24.1486  -36.7241   23.2632 C   0  0  0  0  0  0
  -26.0089  -30.7045   21.3994 C   0  0  0  0  0  0
  -26.0722  -29.3178   20.7280 C   0  0  0  0  0  0
  -27.2196  -28.4360   20.7254 C   0  0  0  0  0  0
  -25.9618  -26.7657   19.5250 C   0  0  0  0  0  0
  -24.8465  -27.6330   19.5000 C   0  0  0  0  0  0
  -23.6672  -29.8055   20.1489 C   0  0  0  0  0  0
  -25.4135  -36.3061   24.0291 C   0  0  1  0  0  0
  -20.5928  -28.3702   23.1242 C   0  0  2  0  0  0
  -20.6788  -26.9412   22.5418 C   0  0  0  0  0  0
  -19.5773  -26.6358   21.5235 C   0  0  0  0  0  0
  -18.1938  -26.7912   22.1603 C   0  0  0  0  0  0
  -19.1578  -28.8897   23.2835 C   0  0  0  0  0  0
  -18.9472  -30.1480   23.8879 C   0  0  0  0  0  0
  -17.6474  -30.6604   24.0518 C   0  0  0  0  0  0
  -25.9095  -34.9427   23.5062 C   0  0  0  0  0  0
  -16.5365  -29.9071   23.6380 C   0  0  0  0  0  0
  -16.7300  -28.6518   23.0389 C   0  0  0  0  0  0
  -26.4567  -31.6616   25.0763 C   0  0  0  0  0  0
  -25.3667  -31.3859   26.1401 C   0  0  0  0  0  0
  -27.0473  -30.2985   24.6465 C   0  0  0  0  0  0
  -27.6066  -32.4432   25.7556 C   0  0  0  0  0  0
  -27.5586  -37.1777   24.8462 C   0  0  0  0  0  0
  -21.4273  -29.3072   22.3659 N   0  0  0  0  0  0
  -26.4298  -37.3731   23.9420 N   0  0  0  0  0  0
  -24.7186  -31.0266   22.0975 N   0  0  0  0  0  0
  -23.4288  -28.8122   23.2927 O   0  0  0  0  0  0
  -28.2348  -26.1100   20.2641 O   0  0  0  0  0  0
  -26.5635  -34.8886   22.4614 O   0  0  0  0  0  0
  -23.5538  -32.1465   23.7099 O   0  0  0  0  0  0
  -29.6139  -19.0799   18.7073 C   0  0  0  0  0  0
  -29.0317  -20.3677   20.6930 C   0  0  0  0  0  0
  -29.3619  -20.2695   17.9925 C   0  0  0  0  0  0
  -29.4582  -19.0501   20.1082 C   0  0  0  0  0  0
  -28.7620  -21.6561   19.9665 C   0  0  0  0  0  0
  -28.9404  -21.4813   18.5658 C   0  0  0  0  0  0
  -29.4985  -20.4102   16.5106 C   0  0  0  0  0  0
  -28.8352  -21.7750   16.2681 C   0  0  2  0  0  0
  -28.8178  -23.3791   22.0144 C   0  0  0  0  0  0
  -29.7687  -21.9157   13.8656 C   0  0  0  0  0  0
  -28.6887  -23.9179   14.9192 C   0  0  0  0  0  0
  -29.9260  -17.6600   20.8900 C   0  0  0  0  0  0
  -28.2454  -24.6186   19.7588 C   0  0  0  0  0  0
  -28.2540  -23.1315   20.5949 C   0  0  1  0  0  0
  -29.5244  -22.6567   15.1979 C   0  0  0  0  0  0
  -28.7504  -22.4480   17.5741 N   0  0  0  0  0  0
  -29.7005  -16.1398   20.5003 N   0  0  0  0  0  0
  -31.4747  -12.7966   19.1578 H   0  0  0  0  0  0
  -30.4593  -11.6592   20.0281 H   0  0  0  0  0  0
  -29.8326  -11.7105   17.5902 H   0  0  0  0  0  0
  -29.5970  -13.4372   17.6569 H   0  0  0  0  0  0
  -27.9417  -11.2654   18.9766 H   0  0  0  0  0  0
  -27.3834  -12.4393   17.8129 H   0  0  0  0  0  0
  -27.5804  -14.2416   19.4023 H   0  0  0  0  0  0
  -28.7719  -12.2925   21.4298 H   0  0  0  0  0  0
  -28.3705  -13.9631   21.7538 H   0  0  0  0  0  0
  -25.2766   -9.5655   22.4725 H   0  0  0  0  0  0
  -24.0013   -7.4618   22.7447 H   0  0  0  0  0  0
  -21.0876   -8.8724   19.8955 H   0  0  0  0  0  0
  -22.3698  -10.9620   19.6154 H   0  0  0  0  0  0
  -21.2002   -7.6131   23.9689 H   0  0  0  0  0  0
  -21.1487   -6.0527   25.9059 H   0  0  0  0  0  0
  -22.0606   -2.7595   23.2869 H   0  0  0  0  0  0
  -22.4169  -11.9793   22.4850 H   0  0  0  0  0  0
  -21.1041  -13.1076   22.2675 H   0  0  0  0  0  0
  -24.6243  -15.8338   20.5177 H   0  0  0  0  0  0
  -26.2293  -15.6383   20.0365 H   0  0  0  0  0  0
  -26.7358  -32.5280   23.0988 H   0  0  0  0  0  0
  -25.0206  -33.9699   25.0365 H   0  0  0  0  0  0
  -22.7504  -31.3012   21.3911 H   0  0  0  0  0  0
  -23.3786  -35.9539   23.3292 H   0  0  0  0  0  0
  -24.3575  -36.8909   22.2056 H   0  0  0  0  0  0
  -23.7244  -37.6409   23.6715 H   0  0  0  0  0  0
  -26.1942  -31.4686   20.6461 H   0  0  0  0  0  0
  -26.8657  -30.7355   22.0601 H   0  0  0  0  0  0
  -28.1185  -28.7447   21.2403 H   0  0  0  0  0  0
  -25.7990  -25.7763   19.1293 H   0  0  0  0  0  0
  -23.9308  -27.2907   19.0380 H   0  0  0  0  0  0
  -23.8164  -30.5963   19.4121 H   0  0  0  0  0  0
  -22.7721  -29.2627   19.8201 H   0  0  0  0  0  0
  -25.1336  -36.1838   25.0778 H   0  0  0  0  0  0
  -21.0041  -28.3263   24.1329 H   0  0  0  0  0  0
  -20.5721  -26.2291   23.3611 H   0  0  0  0  0  0
  -21.6632  -26.7413   22.1172 H   0  0  0  0  0  0
  -19.6889  -25.6274   21.1272 H   0  0  0  0  0  0
  -19.6688  -27.3161   20.6767 H   0  0  0  0  0  0
  -17.4188  -26.6754   21.3982 H   0  0  0  0  0  0
  -18.0267  -26.0081   22.9044 H   0  0  0  0  0  0
  -19.7960  -30.7323   24.2195 H   0  0  0  0  0  0
  -17.5016  -31.6263   24.5128 H   0  0  0  0  0  0
  -15.5361  -30.2914   23.7741 H   0  0  0  0  0  0
  -15.8695  -28.0774   22.7113 H   0  0  0  0  0  0
  -24.5844  -30.7258   25.7670 H   0  0  0  0  0  0
  -24.8828  -32.3048   26.4718 H   0  0  0  0  0  0
  -25.7810  -30.9060   27.0285 H   0  0  0  0  0  0
  -26.3154  -29.6662   24.1453 H   0  0  0  0  0  0
  -27.4018  -29.7381   25.5145 H   0  0  0  0  0  0
  -27.9085  -30.4213   23.9905 H   0  0  0  0  0  0
  -27.2701  -33.3797   26.2016 H   0  0  0  0  0  0
  -28.3922  -32.6934   25.0424 H   0  0  0  0  0  0
  -28.0717  -31.8666   26.5569 H   0  0  0  0  0  0
  -28.2569  -38.0098   24.7548 H   0  0  0  0  0  0
  -28.1125  -36.2637   24.6257 H   0  0  0  0  0  0
  -27.2291  -37.1354   25.8851 H   0  0  0  0  0  0
  -20.9498  -29.8852   21.6887 H   0  0  0  0  0  0
  -26.0162  -38.2805   24.1417 H   0  0  0  0  0  0
  -29.9565  -18.1970   18.1867 H   0  0  0  0  0  0
  -28.9184  -20.3744   21.7670 H   0  0  0  0  0  0
  -28.9992  -19.6025   15.9764 H   0  0  0  0  0  0
  -30.5529  -20.4068   16.2396 H   0  0  0  0  0  0
  -27.8035  -21.5869   15.9584 H   0  0  0  0  0  0
  -28.6549  -22.5294   22.6701 H   0  0  0  0  0  0
  -28.3126  -24.2166   22.4970 H   0  0  0  0  0  0
  -29.8861  -23.5892   21.9912 H   0  0  0  0  0  0
  -30.4750  -21.0927   13.9795 H   0  0  0  0  0  0
  -30.1977  -22.5896   13.1203 H   0  0  0  0  0  0
  -28.8458  -21.5086   13.4470 H   0  0  0  0  0  0
  -28.7171  -24.6063   15.7652 H   0  0  0  0  0  0
  -27.6461  -23.6520   14.7342 H   0  0  0  0  0  0
  -29.0618  -24.4491   14.0432 H   0  0  0  0  0  0
  -29.4895  -17.7421   21.8846 H   0  0  0  0  0  0
  -30.9983  -17.7605   21.0697 H   0  0  0  0  0  0
  -27.5310  -24.5425   18.9350 H   0  0  0  0  0  0
  -29.2014  -24.5947   19.2416 H   0  0  0  0  0  0
  -27.1905  -22.9390   20.7736 H   0  0  0  0  0  0
  -30.4990  -22.9715   15.5759 H   0  0  0  0  0  0
  -28.0149  -23.1351   17.7139 H   0  0  0  0  0  0
  -28.7227  -15.9029   20.4799 H   0  0  0  0  0  0
  1 25  1  0  0  0
  1 30  2  0  0  0
  1 87  1  0  0  0
  2  3  1  0  0  0
  2 25  1  0  0  0
  2 88  1  0  0  0
  2 89  1  0  0  0
  3  4  1  0  0  0
  3 90  1  0  0  0
  3 91  1  0  0  0
  4  5  1  0  0  0
  4 92  1  0  0  0
  4 93  1  0  0  0
  5  6  1  0  0  0
  5 26  1  0  0  0
  5 94  1  0  0  0
  6 25  1  0  0  0
  6 95  1  0  0  0
  6 96  1  0  0  0
  7  8  2  0  0  0
  7 26  1  0  0  0
  7 29  1  0  0  0
  8  9  1  0  0  0
  8 22  1  0  0  0
  9 10  1  0  0  0
  9 27  2  0  0  0
 10 11  2  0  0  0
 10 15  1  0  0  0
 11 12  1  0  0  0
 11 97  1  0  0  0
 12 13  2  0  0  0
 12 98  1  0  0  0
 13 14  1  0  0  0
 13 31  1  0  0  0
 14 15  2  0  0  0
 14 99  1  0  0  0
 15100  1  0  0  0
 16 17  2  0  0  0
 16 21  1  0  0  0
 16 31  1  0  0  0
 17 18  1  0  0  0
 17101  1  0  0  0
 18 19  2  0  0  0
 18102  1  0  0  0
 19 20  1  0  0  0
 19 24  1  0  0  0
 20 21  2  0  0  0
 20103  1  0  0  0
 21 23  1  0  0  0
 22 28  1  0  0  0
 22 32  2  0  0  0
 26 27  1  0  0  0
 28104  1  0  0  0
 28105  1  0  0  0
 29106  1  0  0  0
 29107  1  0  0  0
 33 34  1  0  0  0
 33 66  1  0  0  0
 33 70  2  0  0  0
 34 36  1  0  0  0
 34 59  1  0  0  0
 34108  1  0  0  0
 35 44  2  0  0  0
 35 45  1  0  0  0
 35 68  1  0  0  0
 36 56  1  0  0  0
 36109  1  0  0  0
 37 39  1  0  0  0
 37 47  1  0  0  0
 37 66  1  0  0  0
 37110  1  0  0  0
 38 43  2  0  0  0
 38 46  1  0  0  0
 38 47  1  0  0  0
 39 64  1  0  0  0
 39 67  2  0  0  0
 40 52  1  0  0  0
 40 53  2  0  0  0
 40 58  1  0  0  0
 41111  1  0  0  0
 41112  1  0  0  0
 41113  1  0  0  0
 41 48  1  0  0  0
 42 43  1  0  0  0
 42 66  1  0  0  0
 42114  1  0  0  0
 42115  1  0  0  0
 43 44  1  0  0  0
 44116  1  0  0  0
 45 46  2  0  0  0
 45117  1  0  0  0
 46118  1  0  0  0
 47119  1  0  0  0
 47120  1  0  0  0
 48 56  1  0  0  0
 48 65  1  0  0  0
 48121  1  0  0  0
 49 50  1  0  0  0
 49 53  1  0  0  0
 49 64  1  0  0  0
 49122  1  0  0  0
 50 51  1  0  0  0
 50123  1  0  0  0
 50124  1  0  0  0
 51 52  1  0  0  0
 51125  1  0  0  0
 51126  1  0  0  0
 52127  1  0  0  0
 52128  1  0  0  0
 53 54  1  0  0  0
 54 55  2  0  0  0
 54129  1  0  0  0
 55 57  1  0  0  0
 55130  1  0  0  0
 56 69  2  0  0  0
 57 58  2  0  0  0
 57131  1  0  0  0
 58132  1  0  0  0
 59 60  1  0  0  0
 59 61  1  0  0  0
 59 62  1  0  0  0
 60133  1  0  0  0
 60134  1  0  0  0
 60135  1  0  0  0
 61136  1  0  0  0
 61137  1  0  0  0
 61138  1  0  0  0
 62139  1  0  0  0
 62140  1  0  0  0
 62141  1  0  0  0
 63 65  1  0  0  0
 63142  1  0  0  0
 63143  1  0  0  0
 63144  1  0  0  0
 64145  1  0  0  0
 65146  1  0  0  0
 68 83  1  0  0  0
 71 73  2  0  0  0
 71 74  1  0  0  0
 71147  1  0  0  0
 72 74  2  0  0  0
 72 75  1  0  0  0
 72148  1  0  0  0
 73 76  1  0  0  0
 73 77  1  0  0  0
 74 82  1  0  0  0
 75 76  2  0  0  0
 75 84  1  0  0  0
 76 86  1  0  0  0
 77149  1  0  0  0
 77150  1  0  0  0
 77 78  1  0  0  0
 78 85  1  0  0  0
 78 86  1  0  0  0
 78151  1  0  0  0
 79152  1  0  0  0
 79153  1  0  0  0
 79154  1  0  0  0
 79 84  1  0  0  0
 80155  1  0  0  0
 80156  1  0  0  0
 80157  1  0  0  0
 80 85  1  0  0  0
 81 85  1  0  0  0
 81158  1  0  0  0
 81159  1  0  0  0
 81160  1  0  0  0
 82 87  1  0  0  0
 82161  1  0  0  0
 82162  1  0  0  0
 83 84  1  0  0  0
 83163  1  0  0  0
 83164  1  0  0  0
 84165  1  0  0  0
 85166  1  0  0  0
 86167  1  0  0  0
 87168  1  0  0  0
M  ISO  4   1 100  68 101  83 101  87 100
M  END
> <chiral flag>
0

> <version>
0

> <s_m_source_file>
/data/baiqing/PycharmProjects/Reinvent-master-3.2/result/LINK_invent/BTK/process_docking_weight1_custom_sum_contain_oxygen_bond_distance_aromatic_linkinvent_7_9_3/rearranged_h_0139.sdf

> <i_m_source_file_index>
38

> <r_mmod_Potential_Energy-OPLS-2005>
543.495361328125

> <r_mmod_Stretch_Energy-OPLS-2005>
295.489013671875

> <r_mmod_Bend_Energy-OPLS-2005>
330.401031494141

> <r_mmod_Torsional_Energy-OPLS-2005>
235.892929077148

> <r_mmod_Improper_Torsional_Energy-OPLS-2005>
9.74648761749268

> <r_mmod_Van_der_Waal_Energy-OPLS-2005>
122.647804260254

> <r_mmod_Electrostatic_Energy-OPLS-2005>
-457.915954589844

> <r_mmod_Solvation_Energy-OPLS-2005>
-214.751068115234

> <b_mmod_Minimization_Converged-OPLS-2005>
0

> <r_mmod_RMS_Derivative-OPLS-2005>
10.6011438369751

$$$$
38
                    3D
 Structure written by MMmdl.
153161  0  0  1  0            999 V2000
  -30.4566  -15.2593   20.3483 C   0  0  0  0  0  0
  -30.4421  -12.7977   19.5330 C   0  0  0  0  0  0
  -29.5426  -12.5861   18.2869 C   0  0  0  0  0  0
  -28.0884  -12.3178   18.7060 C   0  0  0  0  0  0
  -27.6196  -13.2774   19.8291 C   0  0  2  0  0  0
  -28.6560  -13.4540   20.9620 C   0  0  0  0  0  0
  -25.2438  -13.8281   20.5728 C   0  0  0  0  0  0
  -24.1773  -13.0468   20.9244 C   0  0  0  0  0  0
  -24.6432  -11.6945   20.8737 C   0  0  0  0  0  0
  -23.9112  -10.4310   21.0375 C   0  0  0  0  0  0
  -24.3645   -9.4228   21.9167 C   0  0  0  0  0  0
  -23.6311   -8.2264   22.0766 C   0  0  0  0  0  0
  -22.4289   -8.0291   21.3558 C   0  0  0  0  0  0
  -21.9929   -9.0278   20.4655 C   0  0  0  0  0  0
  -22.7271  -10.2152   20.3051 C   0  0  0  0  0  0
  -21.6890   -6.0723   22.5275 C   0  0  0  0  0  0
  -21.4020   -6.5623   23.8202 C   0  0  0  0  0  0
  -21.3661   -5.6775   24.9164 C   0  0  0  0  0  0
  -21.6056   -4.3048   24.7212 C   0  0  0  0  0  0
  -21.8823   -3.8132   23.4340 C   0  0  0  0  0  0
  -21.9206   -4.6944   22.3391 C   0  0  0  0  0  0
  -22.7784  -13.5203   21.1868 C   0  0  0  0  0  0
  -22.1682   -4.2121   21.0976 F   0  0  0  0  0  0
  -21.5620   -3.4538   25.7735 F   0  0  0  0  0  0
  -29.8948  -13.9499   20.3429 N   0  0  0  0  0  0
  -26.2868  -12.9551   20.3247 N   0  0  0  0  0  0
  -25.9380  -11.6646   20.5700 N   0  0  0  0  0  0
  -22.0455  -12.8197   22.0438 N   0  0  0  0  0  0
  -25.4121  -15.2015   20.4108 N   0  0  0  0  0  0
  -31.6627  -15.2654   20.0747 O   0  0  0  0  0  0
  -21.6676   -6.8875   21.4243 O   0  0  0  0  0  0
  -22.3450  -14.5488   20.6670 O   0  0  0  0  0  0
  -24.6631  -31.8203   23.1710 C   0  0  0  0  0  0
  -25.9291  -32.4568   23.8198 C   0  0  1  0  0  0
  -27.2320  -26.9411   20.1632 C   0  0  0  0  0  0
  -25.5944  -33.8388   24.2092 N   0  0  0  0  0  0
  -23.4798  -30.4306   21.5180 C   0  0  2  0  0  0
  -24.9343  -28.8168   20.1134 C   0  0  0  0  0  0
  -22.7689  -29.4406   22.4779 C   0  0  0  0  0  0
  -18.0320  -28.1400   22.8455 C   0  0  0  0  0  0
  -24.1497  -36.7220   23.2652 C   0  0  0  0  0  0
  -26.0487  -30.6296   21.3995 C   0  0  0  0  0  0
  -26.1168  -29.2188   20.7452 C   0  0  0  0  0  0
  -27.2584  -28.2997   20.7491 C   0  0  0  0  0  0
  -26.0182  -26.6885   19.4851 C   0  0  0  0  0  0
  -24.9086  -27.5724   19.4641 C   0  0  0  0  0  0
  -23.7210  -29.7454   20.1459 C   0  0  0  0  0  0
  -25.4134  -36.2975   24.0306 C   0  0  1  0  0  0
  -20.5947  -28.3745   23.1175 C   0  0  2  0  0  0
  -20.6805  -26.9424   22.5399 C   0  0  0  0  0  0
  -19.5782  -26.6370   21.5202 C   0  0  0  0  0  0
  -18.1958  -26.7937   22.1603 C   0  0  0  0  0  0
  -19.1586  -28.8896   23.2799 C   0  0  0  0  0  0
  -18.9493  -30.1480   23.8849 C   0  0  0  0  0  0
  -17.6488  -30.6591   24.0548 C   0  0  0  0  0  0
  -25.9074  -34.9340   23.5037 C   0  0  0  0  0  0
  -16.5375  -29.9076   23.6339 C   0  0  0  0  0  0
  -16.7304  -28.6497   23.0354 C   0  0  0  0  0  0
  -26.4561  -31.6519   25.0728 C   0  0  0  0  0  0
  -25.3700  -31.3766   26.1405 C   0  0  0  0  0  0
  -27.0453  -30.2886   24.6450 C   0  0  0  0  0  0
  -27.6053  -32.4316   25.7531 C   0  0  0  0  0  0
  -27.5569  -37.1774   24.8463 C   0  0  0  0  0  0
  -21.4351  -29.3027   22.3535 N   0  0  0  0  0  0
  -26.4289  -37.3697   23.9395 N   0  0  0  0  0  0
  -24.7514  -30.9892   22.0819 N   0  0  0  0  0  0
  -23.4247  -28.7971   23.3015 O   0  0  0  0  0  0
  -28.2593  -25.8644   20.2364 O   0  0  0  0  0  0
  -26.5701  -34.8887   22.4646 O   0  0  0  0  0  0
  -23.5696  -32.1127   23.6805 O   0  0  0  0  0  0
  -29.4575  -23.7326   19.3831 C   0  0  1  0  0  0
  -28.9643  -22.7509   20.4576 C   0  0  1  0  0  0
  -28.1423  -24.2446   19.9285 C   0  0  2  0  0  0
  -30.9617  -25.5760   18.4556 C   0  0  0  0  0  0
  -30.7452  -24.5272   19.5630 C   0  0  0  0  0  0
  -29.8399  -18.1309   19.9893 C   0  0  0  0  0  0
  -29.1565  -19.6941   20.5917 C   0  0  0  0  0  0
  -29.6934  -16.5264   20.4566 N   0  0  0  0  0  0
  -29.0848  -21.1911   19.8571 N   0  3  0  0  0  0
  -31.4659  -12.9871   19.2091 H   0  0  0  0  0  0
  -30.4918  -11.8855   20.1295 H   0  0  0  0  0  0
  -29.9163  -11.7638   17.6772 H   0  0  0  0  0  0
  -29.5835  -13.4759   17.6579 H   0  0  0  0  0  0
  -28.0284  -11.2863   19.0533 H   0  0  0  0  0  0
  -27.4262  -12.3860   17.8408 H   0  0  0  0  0  0
  -27.5339  -14.2454   19.3372 H   0  0  0  0  0  0
  -28.8254  -12.5258   21.5108 H   0  0  0  0  0  0
  -28.2954  -14.1824   21.6910 H   0  0  0  0  0  0
  -25.2802   -9.5687   22.4722 H   0  0  0  0  0  0
  -24.0037   -7.4644   22.7471 H   0  0  0  0  0  0
  -21.0878   -8.8777   19.8940 H   0  0  0  0  0  0
  -22.3740  -10.9672   19.6135 H   0  0  0  0  0  0
  -21.2028   -7.6134   23.9689 H   0  0  0  0  0  0
  -21.1481   -6.0512   25.9057 H   0  0  0  0  0  0
  -22.0607   -2.7591   23.2853 H   0  0  0  0  0  0
  -22.4098  -11.9882   22.4854 H   0  0  0  0  0  0
  -21.1044  -13.1157   22.2567 H   0  0  0  0  0  0
  -24.6438  -15.8578   20.5011 H   0  0  0  0  0  0
  -26.2498  -15.6269   20.0367 H   0  0  0  0  0  0
  -26.7385  -32.5148   23.0942 H   0  0  0  0  0  0
  -25.0044  -33.9491   25.0203 H   0  0  0  0  0  0
  -22.7929  -31.2605   21.3453 H   0  0  0  0  0  0
  -23.3746  -35.9554   23.3281 H   0  0  0  0  0  0
  -24.3573  -36.8889   22.2071 H   0  0  0  0  0  0
  -23.7268  -37.6414   23.6716 H   0  0  0  0  0  0
  -26.2309  -31.3671   20.6169 H   0  0  0  0  0  0
  -26.9087  -30.6899   22.0555 H   0  0  0  0  0  0
  -28.1563  -28.5992   21.2707 H   0  0  0  0  0  0
  -25.8912  -25.7423   18.9833 H   0  0  0  0  0  0
  -24.0116  -27.2579   18.9469 H   0  0  0  0  0  0
  -23.8878  -30.5116   19.3875 H   0  0  0  0  0  0
  -22.8302  -29.2011   19.8290 H   0  0  0  0  0  0
  -25.1333  -36.1778   25.0791 H   0  0  0  0  0  0
  -21.0034  -28.3359   24.1289 H   0  0  0  0  0  0
  -20.5664  -26.2362   23.3644 H   0  0  0  0  0  0
  -21.6671  -26.7396   22.1210 H   0  0  0  0  0  0
  -19.6946  -25.6259   21.1277 H   0  0  0  0  0  0
  -19.6733  -27.3143   20.6709 H   0  0  0  0  0  0
  -17.4223  -26.6643   21.4013 H   0  0  0  0  0  0
  -18.0368  -26.0092   22.9031 H   0  0  0  0  0  0
  -19.7968  -30.7299   24.2212 H   0  0  0  0  0  0
  -17.5034  -31.6274   24.5147 H   0  0  0  0  0  0
  -15.5368  -30.2965   23.7686 H   0  0  0  0  0  0
  -15.8704  -28.0810   22.7097 H   0  0  0  0  0  0
  -24.5890  -30.7101   25.7744 H   0  0  0  0  0  0
  -24.8895  -32.2962   26.4751 H   0  0  0  0  0  0
  -25.7960  -30.9015   27.0253 H   0  0  0  0  0  0
  -26.3135  -29.6548   24.1450 H   0  0  0  0  0  0
  -27.3971  -29.7271   25.5111 H   0  0  0  0  0  0
  -27.9078  -30.4055   23.9884 H   0  0  0  0  0  0
  -27.2641  -33.3653   26.2022 H   0  0  0  0  0  0
  -28.3948  -32.6806   25.0423 H   0  0  0  0  0  0
  -28.0642  -31.8495   26.5540 H   0  0  0  0  0  0
  -28.2577  -38.0077   24.7494 H   0  0  0  0  0  0
  -28.1090  -36.2608   24.6314 H   0  0  0  0  0  0
  -27.2299  -37.1449   25.8872 H   0  0  0  0  0  0
  -20.9585  -29.8746   21.6699 H   0  0  0  0  0  0
  -26.0136  -38.2763   24.1358 H   0  0  0  0  0  0
  -29.3770  -23.3638   18.3605 H   0  0  0  0  0  0
  -29.4821  -22.7982   21.4144 H   0  0  0  0  0  0
  -27.2605  -24.0694   19.3166 H   0  0  0  0  0  0
  -30.1538  -26.3082   18.4212 H   0  0  0  0  0  0
  -31.0185  -25.1053   17.4726 H   0  0  0  0  0  0
  -31.8955  -26.1236   18.6081 H   0  0  0  0  0  0
  -31.5898  -23.8366   19.5619 H   0  0  0  0  0  0
  -30.7405  -25.0147   20.5397 H   0  0  0  0  0  0
  -30.9168  -18.2977   19.9332 H   0  0  0  0  0  0
  -29.5344  -18.0914   18.9438 H   0  0  0  0  0  0
  -29.6500  -19.8771   21.5457 H   0  0  0  0  0  0
  -28.1228  -19.4896   20.8627 H   0  0  0  0  0  0
  -28.7511  -16.3255   20.7578 H   0  0  0  0  0  0
  -29.9464  -21.2179   19.3419 H   0  0  0  0  0  0
  -28.3723  -21.1084   19.1509 H   0  0  0  0  0  0
  1 25  1  0  0  0
  1 30  2  0  0  0
  1 78  1  0  0  0
  2  3  1  0  0  0
  2 25  1  0  0  0
  2 80  1  0  0  0
  2 81  1  0  0  0
  3  4  1  0  0  0
  3 82  1  0  0  0
  3 83  1  0  0  0
  4  5  1  0  0  0
  4 84  1  0  0  0
  4 85  1  0  0  0
  5  6  1  0  0  0
  5 26  1  0  0  0
  5 86  1  0  0  0
  6 25  1  0  0  0
  6 87  1  0  0  0
  6 88  1  0  0  0
  7  8  2  0  0  0
  7 26  1  0  0  0
  7 29  1  0  0  0
  8  9  1  0  0  0
  8 22  1  0  0  0
  9 10  1  0  0  0
  9 27  2  0  0  0
 10 11  2  0  0  0
 10 15  1  0  0  0
 11 12  1  0  0  0
 11 89  1  0  0  0
 12 13  2  0  0  0
 12 90  1  0  0  0
 13 14  1  0  0  0
 13 31  1  0  0  0
 14 15  2  0  0  0
 14 91  1  0  0  0
 15 92  1  0  0  0
 16 17  2  0  0  0
 16 21  1  0  0  0
 16 31  1  0  0  0
 17 18  1  0  0  0
 17 93  1  0  0  0
 18 19  2  0  0  0
 18 94  1  0  0  0
 19 20  1  0  0  0
 19 24  1  0  0  0
 20 21  2  0  0  0
 20 95  1  0  0  0
 21 23  1  0  0  0
 22 28  1  0  0  0
 22 32  2  0  0  0
 26 27  1  0  0  0
 28 96  1  0  0  0
 28 97  1  0  0  0
 29 98  1  0  0  0
 29 99  1  0  0  0
 33 34  1  0  0  0
 33 66  1  0  0  0
 33 70  2  0  0  0
 34 36  1  0  0  0
 34 59  1  0  0  0
 34100  1  0  0  0
 35 44  2  0  0  0
 35 45  1  0  0  0
 35 68  1  0  0  0
 36 56  1  0  0  0
 36101  1  0  0  0
 37 39  1  0  0  0
 37 47  1  0  0  0
 37 66  1  0  0  0
 37102  1  0  0  0
 38 43  2  0  0  0
 38 46  1  0  0  0
 38 47  1  0  0  0
 39 64  1  0  0  0
 39 67  2  0  0  0
 40 52  1  0  0  0
 40 53  2  0  0  0
 40 58  1  0  0  0
 41103  1  0  0  0
 41104  1  0  0  0
 41105  1  0  0  0
 41 48  1  0  0  0
 42 43  1  0  0  0
 42 66  1  0  0  0
 42106  1  0  0  0
 42107  1  0  0  0
 43 44  1  0  0  0
 44108  1  0  0  0
 45 46  2  0  0  0
 45109  1  0  0  0
 46110  1  0  0  0
 47111  1  0  0  0
 47112  1  0  0  0
 48 56  1  0  0  0
 48 65  1  0  0  0
 48113  1  0  0  0
 49 50  1  0  0  0
 49 53  1  0  0  0
 49 64  1  0  0  0
 49114  1  0  0  0
 50 51  1  0  0  0
 50115  1  0  0  0
 50116  1  0  0  0
 51 52  1  0  0  0
 51117  1  0  0  0
 51118  1  0  0  0
 52119  1  0  0  0
 52120  1  0  0  0
 53 54  1  0  0  0
 54 55  2  0  0  0
 54121  1  0  0  0
 55 57  1  0  0  0
 55122  1  0  0  0
 56 69  2  0  0  0
 57 58  2  0  0  0
 57123  1  0  0  0
 58124  1  0  0  0
 59 60  1  0  0  0
 59 61  1  0  0  0
 59 62  1  0  0  0
 60125  1  0  0  0
 60126  1  0  0  0
 60127  1  0  0  0
 61128  1  0  0  0
 61129  1  0  0  0
 61130  1  0  0  0
 62131  1  0  0  0
 62132  1  0  0  0
 62133  1  0  0  0
 63 65  1  0  0  0
 63134  1  0  0  0
 63135  1  0  0  0
 63136  1  0  0  0
 64137  1  0  0  0
 65138  1  0  0  0
 68 73  1  0  0  0
 71 72  1  0  0  0
 71 73  1  0  0  0
 71 75  1  0  0  0
 71139  1  0  0  0
 72 73  1  0  0  0
 72 79  1  0  0  0
 72140  1  0  0  0
 73141  1  0  0  0
 74 75  1  0  0  0
 74142  1  0  0  0
 74143  1  0  0  0
 74144  1  0  0  0
 75145  1  0  0  0
 75146  1  0  0  0
 76 77  1  0  0  0
 76 78  1  0  0  0
 76147  1  0  0  0
 76148  1  0  0  0
 77 79  1  0  0  0
 77149  1  0  0  0
 77150  1  0  0  0
 78151  1  0  0  0
 79152  1  0  0  0
 79153  1  0  0  0
M  CHG  1  79   1
M  ISO  4   1 100  68 101  73 101  78 100
M  END
> <chiral flag>
0

> <version>
0

> <s_m_source_file>
/data/baiqing/PycharmProjects/Reinvent-master-3.2/result/LINK_invent/BTK/process_docking_weight1_custom_sum_contain_oxygen_bond_distance_aromatic_linkinvent_7_9_3/rearranged_h_0139.sdf

> <i_m_source_file_index>
39

> <r_mmod_Potential_Energy-OPLS-2005>
1064.42260742188

> <r_mmod_Stretch_Energy-OPLS-2005>
604.130310058594

> <r_mmod_Bend_Energy-OPLS-2005>
461.607666015625

> <r_mmod_Torsional_Energy-OPLS-2005>
268.717437744141

> <r_mmod_Improper_Torsional_Energy-OPLS-2005>
4.63253736495972

> <r_mmod_Van_der_Waal_Energy-OPLS-2005>
107.649459838867

> <r_mmod_Electrostatic_Energy-OPLS-2005>
-300.028961181641

> <r_mmod_Solvation_Energy-OPLS-2005>
-523.412719726562

> <b_mmod_Minimization_Converged-OPLS-2005>
0

> <r_mmod_RMS_Derivative-OPLS-2005>
3.62371468544006

$$$$
39
                    3D
 Structure written by MMmdl.
163171  0  0  1  0            999 V2000
  -30.5719  -14.5880   20.5237 C   0  0  0  0  0  0
  -30.4386  -12.3487   19.4447 C   0  0  0  0  0  0
  -29.5055  -12.5137   18.2237 C   0  0  0  0  0  0
  -28.0301  -12.3464   18.6380 C   0  0  0  0  0  0
  -27.6651  -13.1948   19.8864 C   0  0  2  0  0  0
  -28.7017  -12.9870   21.0110 C   0  0  0  0  0  0
  -25.2691  -13.8166   20.5659 C   0  0  0  0  0  0
  -24.1894  -13.0446   20.9161 C   0  0  0  0  0  0
  -24.6459  -11.6936   20.8746 C   0  0  0  0  0  0
  -23.9101  -10.4322   21.0450 C   0  0  0  0  0  0
  -24.3684   -9.4232   21.9192 C   0  0  0  0  0  0
  -23.6356   -8.2266   22.0758 C   0  0  0  0  0  0
  -22.4312   -8.0330   21.3567 C   0  0  0  0  0  0
  -21.9970   -9.0300   20.4647 C   0  0  0  0  0  0
  -22.7310  -10.2171   20.3071 C   0  0  0  0  0  0
  -21.6860   -6.0788   22.5293 C   0  0  0  0  0  0
  -21.4032   -6.5684   23.8226 C   0  0  0  0  0  0
  -21.3653   -5.6823   24.9174 C   0  0  0  0  0  0
  -21.6020   -4.3084   24.7207 C   0  0  0  0  0  0
  -21.8832   -3.8195   23.4327 C   0  0  0  0  0  0
  -21.9209   -4.7025   22.3398 C   0  0  0  0  0  0
  -22.7912  -13.5270   21.1744 C   0  0  0  0  0  0
  -22.1680   -4.2221   21.0967 F   0  0  0  0  0  0
  -21.5605   -3.4552   25.7707 F   0  0  0  0  0  0
  -30.0194  -13.3415   20.4570 N   0  0  0  0  0  0
  -26.3077  -12.9269   20.3450 N   0  0  0  0  0  0
  -25.9389  -11.6427   20.5822 N   0  0  0  0  0  0
  -22.0606  -12.8250   22.0388 N   0  0  0  0  0  0
  -25.4299  -15.1818   20.3912 N   0  0  0  0  0  0
  -31.7014  -14.8283   20.0684 O   0  0  0  0  0  0
  -21.6649   -6.8933   21.4262 O   0  0  0  0  0  0
  -22.3627  -14.5573   20.6600 O   0  0  0  0  0  0
  -24.6214  -31.8516   23.2030 C   0  0  0  0  0  0
  -25.9100  -32.4725   23.8256 C   0  0  1  0  0  0
  -27.2222  -27.3517   20.0412 C   0  0  0  0  0  0
  -25.5933  -33.8552   24.2251 N   0  0  0  0  0  0
  -23.4170  -30.4758   21.5648 C   0  0  2  0  0  0
  -24.8463  -28.9196   20.1249 C   0  0  0  0  0  0
  -22.7495  -29.4541   22.5140 C   0  0  0  0  0  0
  -18.0348  -28.1287   22.8659 C   0  0  0  0  0  0
  -24.1489  -36.7300   23.2650 C   0  0  0  0  0  0
  -25.9501  -30.7782   21.3711 C   0  0  0  0  0  0
  -26.0178  -29.4076   20.7120 C   0  0  0  0  0  0
  -27.2106  -28.6355   20.6605 C   0  0  0  0  0  0
  -26.0223  -26.9002   19.4454 C   0  0  0  0  0  0
  -24.8524  -27.6694   19.4892 C   0  0  0  0  0  0
  -23.6169  -29.8065   20.1830 C   0  0  0  0  0  0
  -25.4106  -36.3081   24.0322 C   0  0  1  0  0  0
  -20.5876  -28.3662   23.1583 C   0  0  2  0  0  0
  -20.6823  -26.9370   22.5570 C   0  0  0  0  0  0
  -19.5853  -26.6343   21.5344 C   0  0  0  0  0  0
  -18.1999  -26.7851   22.1820 C   0  0  0  0  0  0
  -19.1556  -28.8827   23.3086 C   0  0  0  0  0  0
  -18.9495  -30.1479   23.9002 C   0  0  0  0  0  0
  -17.6512  -30.6686   24.0384 C   0  0  0  0  0  0
  -25.9021  -34.9441   23.5058 C   0  0  0  0  0  0
  -16.5418  -29.9109   23.6311 C   0  0  0  0  0  0
  -16.7340  -28.6373   23.0575 C   0  0  0  0  0  0
  -26.4488  -31.6584   25.0670 C   0  0  0  0  0  0
  -25.3722  -31.3712   26.1404 C   0  0  0  0  0  0
  -27.0334  -30.3007   24.6132 C   0  0  0  0  0  0
  -27.6048  -32.4323   25.7455 C   0  0  0  0  0  0
  -27.5581  -37.1802   24.8471 C   0  0  0  0  0  0
  -21.4229  -29.2986   22.3972 N   0  0  0  0  0  0
  -26.4294  -37.3767   23.9397 N   0  0  0  0  0  0
  -24.6852  -31.0519   22.1039 N   0  0  0  0  0  0
  -23.4231  -28.7996   23.3130 O   0  0  0  0  0  0
  -28.3726  -26.5731   20.0172 O   0  0  0  0  0  0
  -26.5655  -34.8927   22.4654 O   0  0  0  0  0  0
  -23.5425  -32.1356   23.7379 O   0  0  0  0  0  0
  -26.7108  -21.4609   19.5511 C   0  0  0  0  0  0
  -28.7434  -20.3435   20.1920 C   0  0  0  0  0  0
  -25.9772  -20.3674   20.0186 C   0  0  0  0  0  0
  -28.0050  -19.2318   20.7489 C   0  0  0  0  0  0
  -26.5937  -19.4235   20.8800 C   0  0  0  0  0  0
  -28.0903  -21.5581   19.7841 C   0  0  0  0  0  0
  -24.5493  -20.2447   19.5477 C   0  0  0  0  0  0
  -24.6950  -19.7172   22.6139 C   0  0  0  0  0  0
  -28.6071  -17.8832   21.2837 C   0  0  0  0  0  0
  -25.7588  -18.7708   22.0012 C   0  0  0  0  0  0
  -29.7167  -17.0407   20.5311 C   0  0  0  0  0  0
  -28.4117  -25.3029   19.2759 C   0  0  0  0  0  0
  -28.0559  -23.9825   20.0340 C   0  0  0  0  0  0
  -29.7180  -15.5860   20.8972 N   0  0  0  0  0  0
  -28.7396  -22.7767   19.5499 O   0  0  0  0  0  0
  -31.4825  -12.4891   19.1551 H   0  0  0  0  0  0
  -30.3632  -11.3396   19.8509 H   0  0  0  0  0  0
  -29.7634  -11.7884   17.4549 H   0  0  0  0  0  0
  -29.6577  -13.4942   17.7760 H   0  0  0  0  0  0
  -27.8627  -11.2937   18.8488 H   0  0  0  0  0  0
  -27.3727  -12.6055   17.8075 H   0  0  0  0  0  0
  -27.7118  -14.2343   19.5878 H   0  0  0  0  0  0
  -28.7158  -11.9467   21.3363 H   0  0  0  0  0  0
  -28.4547  -13.5575   21.9124 H   0  0  0  0  0  0
  -25.2848   -9.5680   22.4744 H   0  0  0  0  0  0
  -24.0061   -7.4659   22.7494 H   0  0  0  0  0  0
  -21.0886   -8.8862   19.8957 H   0  0  0  0  0  0
  -22.3826  -10.9721   19.6178 H   0  0  0  0  0  0
  -21.2042   -7.6198   23.9756 H   0  0  0  0  0  0
  -21.1436   -6.0536   25.9074 H   0  0  0  0  0  0
  -22.0608   -2.7666   23.2790 H   0  0  0  0  0  0
  -22.4261  -11.9915   22.4721 H   0  0  0  0  0  0
  -21.1242  -13.1260   22.2564 H   0  0  0  0  0  0
  -24.6278  -15.8063   20.4446 H   0  0  0  0  0  0
  -26.2330  -15.6147   19.9566 H   0  0  0  0  0  0
  -26.7142  -32.5380   23.0952 H   0  0  0  0  0  0
  -24.9996  -33.9641   25.0358 H   0  0  0  0  0  0
  -22.7024  -31.2899   21.4306 H   0  0  0  0  0  0
  -23.3730  -35.9657   23.3312 H   0  0  0  0  0  0
  -24.3588  -36.8921   22.2073 H   0  0  0  0  0  0
  -23.7247  -37.6502   23.6659 H   0  0  0  0  0  0
  -26.0855  -31.5364   20.6004 H   0  0  0  0  0  0
  -26.8315  -30.8170   21.9949 H   0  0  0  0  0  0
  -28.1288  -29.0205   21.0872 H   0  0  0  0  0  0
  -25.9422  -25.9541   18.9248 H   0  0  0  0  0  0
  -23.9595  -27.2858   19.0088 H   0  0  0  0  0  0
  -23.7512  -30.5885   19.4356 H   0  0  0  0  0  0
  -22.7339  -29.2421   19.8725 H   0  0  0  0  0  0
  -25.1293  -36.1923   25.0815 H   0  0  0  0  0  0
  -20.9973  -28.3165   24.1740 H   0  0  0  0  0  0
  -20.5443  -26.2327   23.3759 H   0  0  0  0  0  0
  -21.6829  -26.7415   22.1639 H   0  0  0  0  0  0
  -19.7166  -25.6286   21.1299 H   0  0  0  0  0  0
  -19.6858  -27.3245   20.6912 H   0  0  0  0  0  0
  -17.4248  -26.6701   21.4269 H   0  0  0  0  0  0
  -18.0481  -26.0029   22.9251 H   0  0  0  0  0  0
  -19.7916  -30.7338   24.2452 H   0  0  0  0  0  0
  -17.5186  -31.6537   24.4580 H   0  0  0  0  0  0
  -15.5473  -30.3151   23.7501 H   0  0  0  0  0  0
  -15.8726  -28.0634   22.7474 H   0  0  0  0  0  0
  -24.5875  -30.7084   25.7713 H   0  0  0  0  0  0
  -24.8926  -32.2882   26.4852 H   0  0  0  0  0  0
  -25.8043  -30.8850   27.0153 H   0  0  0  0  0  0
  -26.2882  -29.6742   24.1188 H   0  0  0  0  0  0
  -27.4082  -29.7287   25.4632 H   0  0  0  0  0  0
  -27.8742  -30.4312   23.9304 H   0  0  0  0  0  0
  -27.2634  -33.3602   26.2034 H   0  0  0  0  0  0
  -28.3839  -32.6888   25.0277 H   0  0  0  0  0  0
  -28.0695  -31.8422   26.5354 H   0  0  0  0  0  0
  -28.2610  -38.0096   24.7493 H   0  0  0  0  0  0
  -28.1066  -36.2616   24.6309 H   0  0  0  0  0  0
  -27.2301  -37.1474   25.8882 H   0  0  0  0  0  0
  -20.9297  -29.8996   21.7503 H   0  0  0  0  0  0
  -26.0186  -38.2844   24.1369 H   0  0  0  0  0  0
  -26.1577  -22.2327   19.0311 H   0  0  0  0  0  0
  -29.8199  -20.3147   20.1483 H   0  0  0  0  0  0
  -24.1183  -19.3044   19.8675 H   0  0  0  0  0  0
  -24.5919  -20.2693   18.4568 H   0  0  0  0  0  0
  -23.9034  -21.0495   19.9069 H   0  0  0  0  0  0
  -24.9786  -20.7766   22.5733 H   0  0  0  0  0  0
  -24.4971  -19.4804   23.6658 H   0  0  0  0  0  0
  -23.7474  -19.6165   22.0819 H   0  0  0  0  0  0
  -27.7537  -17.1953   21.3295 H   0  0  0  0  0  0
  -28.9083  -18.0843   22.3099 H   0  0  0  0  0  0
  -26.4114  -18.4673   22.8313 H   0  0  0  0  0  0
  -25.3032  -17.8500   21.6391 H   0  0  0  0  0  0
  -30.6992  -17.4806   20.7173 H   0  0  0  0  0  0
  -29.5600  -17.0924   19.4520 H   0  0  0  0  0  0
  -27.8532  -25.3359   18.3398 H   0  0  0  0  0  0
  -29.4489  -25.2018   18.9568 H   0  0  0  0  0  0
  -26.9742  -23.8766   20.1074 H   0  0  0  0  0  0
  -28.3962  -24.0908   21.0658 H   0  0  0  0  0  0
  -28.8601  -15.2611   21.3236 H   0  0  0  0  0  0
  1 25  1  0  0  0
  1 30  2  0  0  0
  1 84  1  0  0  0
  2  3  1  0  0  0
  2 25  1  0  0  0
  2 86  1  0  0  0
  2 87  1  0  0  0
  3  4  1  0  0  0
  3 88  1  0  0  0
  3 89  1  0  0  0
  4  5  1  0  0  0
  4 90  1  0  0  0
  4 91  1  0  0  0
  5  6  1  0  0  0
  5 26  1  0  0  0
  5 92  1  0  0  0
  6 25  1  0  0  0
  6 93  1  0  0  0
  6 94  1  0  0  0
  7  8  2  0  0  0
  7 26  1  0  0  0
  7 29  1  0  0  0
  8  9  1  0  0  0
  8 22  1  0  0  0
  9 10  1  0  0  0
  9 27  2  0  0  0
 10 11  2  0  0  0
 10 15  1  0  0  0
 11 12  1  0  0  0
 11 95  1  0  0  0
 12 13  2  0  0  0
 12 96  1  0  0  0
 13 14  1  0  0  0
 13 31  1  0  0  0
 14 15  2  0  0  0
 14 97  1  0  0  0
 15 98  1  0  0  0
 16 17  2  0  0  0
 16 21  1  0  0  0
 16 31  1  0  0  0
 17 18  1  0  0  0
 17 99  1  0  0  0
 18 19  2  0  0  0
 18100  1  0  0  0
 19 20  1  0  0  0
 19 24  1  0  0  0
 20 21  2  0  0  0
 20101  1  0  0  0
 21 23  1  0  0  0
 22 28  1  0  0  0
 22 32  2  0  0  0
 26 27  1  0  0  0
 28102  1  0  0  0
 28103  1  0  0  0
 29104  1  0  0  0
 29105  1  0  0  0
 33 34  1  0  0  0
 33 66  1  0  0  0
 33 70  2  0  0  0
 34 36  1  0  0  0
 34 59  1  0  0  0
 34106  1  0  0  0
 35 44  2  0  0  0
 35 45  1  0  0  0
 35 68  1  0  0  0
 36 56  1  0  0  0
 36107  1  0  0  0
 37 39  1  0  0  0
 37 47  1  0  0  0
 37 66  1  0  0  0
 37108  1  0  0  0
 38 43  2  0  0  0
 38 46  1  0  0  0
 38 47  1  0  0  0
 39 64  1  0  0  0
 39 67  2  0  0  0
 40 52  1  0  0  0
 40 53  2  0  0  0
 40 58  1  0  0  0
 41109  1  0  0  0
 41110  1  0  0  0
 41111  1  0  0  0
 41 48  1  0  0  0
 42 43  1  0  0  0
 42 66  1  0  0  0
 42112  1  0  0  0
 42113  1  0  0  0
 43 44  1  0  0  0
 44114  1  0  0  0
 45 46  2  0  0  0
 45115  1  0  0  0
 46116  1  0  0  0
 47117  1  0  0  0
 47118  1  0  0  0
 48 56  1  0  0  0
 48 65  1  0  0  0
 48119  1  0  0  0
 49 50  1  0  0  0
 49 53  1  0  0  0
 49 64  1  0  0  0
 49120  1  0  0  0
 50 51  1  0  0  0
 50121  1  0  0  0
 50122  1  0  0  0
 51 52  1  0  0  0
 51123  1  0  0  0
 51124  1  0  0  0
 52125  1  0  0  0
 52126  1  0  0  0
 53 54  1  0  0  0
 54 55  2  0  0  0
 54127  1  0  0  0
 55 57  1  0  0  0
 55128  1  0  0  0
 56 69  2  0  0  0
 57 58  2  0  0  0
 57129  1  0  0  0
 58130  1  0  0  0
 59 60  1  0  0  0
 59 61  1  0  0  0
 59 62  1  0  0  0
 60131  1  0  0  0
 60132  1  0  0  0
 60133  1  0  0  0
 61134  1  0  0  0
 61135  1  0  0  0
 61136  1  0  0  0
 62137  1  0  0  0
 62138  1  0  0  0
 62139  1  0  0  0
 63 65  1  0  0  0
 63140  1  0  0  0
 63141  1  0  0  0
 63142  1  0  0  0
 64143  1  0  0  0
 65144  1  0  0  0
 68 82  1  0  0  0
 71 73  2  0  0  0
 71 76  1  0  0  0
 71145  1  0  0  0
 72 74  1  0  0  0
 72 76  2  0  0  0
 72146  1  0  0  0
 73 75  1  0  0  0
 73 77  1  0  0  0
 74 75  2  0  0  0
 74 79  1  0  0  0
 75 80  1  0  0  0
 76 85  1  0  0  0
 77147  1  0  0  0
 77148  1  0  0  0
 77149  1  0  0  0
 78 80  1  0  0  0
 78150  1  0  0  0
 78151  1  0  0  0
 78152  1  0  0  0
 79 81  1  0  0  0
 79153  1  0  0  0
 79154  1  0  0  0
 80155  1  0  0  0
 80156  1  0  0  0
 81 84  1  0  0  0
 81157  1  0  0  0
 81158  1  0  0  0
 82 83  1  0  0  0
 82159  1  0  0  0
 82160  1  0  0  0
 83 85  1  0  0  0
 83161  1  0  0  0
 83162  1  0  0  0
 84163  1  0  0  0
M  ISO  4   1 100  68 101  82 101  84 100
M  END
> <chiral flag>
0

> <version>
0

> <s_m_source_file>
/data/baiqing/PycharmProjects/Reinvent-master-3.2/result/LINK_invent/BTK/process_docking_weight1_custom_sum_contain_oxygen_bond_distance_aromatic_linkinvent_7_9_3/rearranged_h_0139.sdf

> <i_m_source_file_index>
40

> <r_mmod_Potential_Energy-OPLS-2005>
124.530235290527

> <r_mmod_Stretch_Energy-OPLS-2005>
72.6138534545898

> <r_mmod_Bend_Energy-OPLS-2005>
146.803100585938

> <r_mmod_Torsional_Energy-OPLS-2005>
303.951080322266

> <r_mmod_Improper_Torsional_Energy-OPLS-2005>
8.01231098175049

> <r_mmod_Van_der_Waal_Energy-OPLS-2005>
159.699829101562

> <r_mmod_Electrostatic_Energy-OPLS-2005>
-393.850372314453

> <r_mmod_Solvation_Energy-OPLS-2005>
-209.300170898438

> <b_mmod_Minimization_Converged-OPLS-2005>
0

> <r_mmod_RMS_Derivative-OPLS-2005>
17.0775203704834

$$$$
40
                    3D
 Structure written by MMmdl.
173182  0  0  1  0            999 V2000
  -30.7789  -14.3715   20.6305 C   0  0  0  0  0  0
  -30.4028  -12.2699   19.4108 C   0  0  0  0  0  0
  -29.4831  -12.5113   18.2003 C   0  0  0  0  0  0
  -28.0068  -12.3786   18.6153 C   0  0  0  0  0  0
  -27.6633  -13.2091   19.8809 C   0  0  2  0  0  0
  -28.7031  -12.9747   21.0011 C   0  0  0  0  0  0
  -25.2579  -13.8176   20.5685 C   0  0  0  0  0  0
  -24.1832  -13.0441   20.9179 C   0  0  0  0  0  0
  -24.6392  -11.6912   20.8736 C   0  0  0  0  0  0
  -23.9064  -10.4291   21.0402 C   0  0  0  0  0  0
  -24.3615   -9.4206   21.9181 C   0  0  0  0  0  0
  -23.6290   -8.2242   22.0751 C   0  0  0  0  0  0
  -22.4271   -8.0278   21.3543 C   0  0  0  0  0  0
  -21.9908   -9.0252   20.4644 C   0  0  0  0  0  0
  -22.7237  -10.2133   20.3052 C   0  0  0  0  0  0
  -21.6851   -6.0735   22.5280 C   0  0  0  0  0  0
  -21.4015   -6.5639   23.8215 C   0  0  0  0  0  0
  -21.3662   -5.6791   24.9178 C   0  0  0  0  0  0
  -21.6046   -4.3055   24.7227 C   0  0  0  0  0  0
  -21.8819   -3.8146   23.4348 C   0  0  0  0  0  0
  -21.9192   -4.6962   22.3403 C   0  0  0  0  0  0
  -22.7853  -13.5231   21.1851 C   0  0  0  0  0  0
  -22.1658   -4.2147   21.0981 F   0  0  0  0  0  0
  -21.5631   -3.4539   25.7740 F   0  0  0  0  0  0
  -30.0442  -13.2437   20.4533 N   0  0  0  0  0  0
  -26.3028  -12.9356   20.3397 N   0  0  0  0  0  0
  -25.9321  -11.6508   20.5779 N   0  0  0  0  0  0
  -22.0502  -12.8210   22.0407 N   0  0  0  0  0  0
  -25.4295  -15.1891   20.4093 N   0  0  0  0  0  0
  -31.8400  -14.5711   20.0346 O   0  0  0  0  0  0
  -21.6638   -6.8875   21.4241 O   0  0  0  0  0  0
  -22.3534  -14.5541   20.6708 O   0  0  0  0  0  0
  -24.6118  -31.8732   23.2135 C   0  0  0  0  0  0
  -25.9036  -32.4848   23.8418 C   0  0  1  0  0  0
  -27.2350  -27.4708   20.0960 C   0  0  0  0  0  0
  -25.5902  -33.8643   24.2356 N   0  0  0  0  0  0
  -23.3983  -30.4946   21.5536 C   0  0  2  0  0  0
  -24.8465  -28.9645   20.1136 C   0  0  0  0  0  0
  -22.7400  -29.4678   22.5023 C   0  0  0  0  0  0
  -18.0272  -28.1364   22.8493 C   0  0  0  0  0  0
  -24.1490  -36.7316   23.2637 C   0  0  0  0  0  0
  -25.9218  -30.8469   21.3635 C   0  0  0  0  0  0
  -26.0014  -29.4831   20.7143 C   0  0  0  0  0  0
  -27.2008  -28.7397   20.7100 C   0  0  0  0  0  0
  -26.0740  -26.9641   19.4784 C   0  0  0  0  0  0
  -24.8744  -27.7009   19.4950 C   0  0  0  0  0  0
  -23.6049  -29.8268   20.1669 C   0  0  0  0  0  0
  -25.4107  -36.3123   24.0341 C   0  0  1  0  0  0
  -20.5860  -28.3660   23.1325 C   0  0  2  0  0  0
  -20.6769  -26.9403   22.5420 C   0  0  0  0  0  0
  -19.5743  -26.6386   21.5214 C   0  0  0  0  0  0
  -18.1920  -26.7914   22.1621 C   0  0  0  0  0  0
  -19.1519  -28.8824   23.2904 C   0  0  0  0  0  0
  -18.9457  -30.1431   23.8917 C   0  0  0  0  0  0
  -17.6462  -30.6579   24.0557 C   0  0  0  0  0  0
  -25.9032  -34.9491   23.5144 C   0  0  0  0  0  0
  -16.5346  -29.9082   23.6319 C   0  0  0  0  0  0
  -16.7259  -28.6492   23.0348 C   0  0  0  0  0  0
  -26.4475  -31.6606   25.0725 C   0  0  0  0  0  0
  -25.3741  -31.3679   26.1475 C   0  0  0  0  0  0
  -27.0305  -30.3054   24.6064 C   0  0  0  0  0  0
  -27.6073  -32.4306   25.7477 C   0  0  0  0  0  0
  -27.5585  -37.1809   24.8468 C   0  0  0  0  0  0
  -21.4135  -29.3028   22.3741 N   0  0  0  0  0  0
  -26.4305  -37.3801   23.9406 N   0  0  0  0  0  0
  -24.6617  -31.0847   22.1024 N   0  0  0  0  0  0
  -23.4190  -28.8239   23.3074 O   0  0  0  0  0  0
  -28.3869  -26.7279   20.0856 O   0  0  0  0  0  0
  -26.5592  -34.8937   22.4702 O   0  0  0  0  0  0
  -23.5320  -32.1495   23.7532 O   0  0  0  0  0  0
  -28.8593  -20.3406   22.8772 C   0  0  0  0  0  0
  -28.1370  -21.5460   22.9463 C   0  0  0  0  0  0
  -29.8400  -22.6400   21.6071 C   0  0  0  0  0  0
  -30.0892  -20.2689   22.1856 C   0  0  0  0  0  0
  -30.5885  -21.4442   21.5587 C   0  0  0  0  0  0
  -28.6070  -22.6982   22.2920 C   0  0  0  0  0  0
  -31.1318  -18.2911   23.4898 C   0  0  0  0  0  0
  -31.2133  -16.7752   23.2450 C   0  0  0  0  0  0
  -30.8324  -18.9281   22.1203 C   0  0  1  0  0  0
  -30.1107  -17.8122   21.3347 C   0  0  2  0  0  0
  -30.9324  -16.5729   21.7490 C   0  0  2  0  0  0
  -31.9162  -21.4686   20.8176 C   0  0  0  0  0  0
  -31.2434  -18.0201   18.9943 C   0  0  0  0  0  0
  -28.8549  -17.2090   19.1655 C   0  0  0  0  0  0
  -28.5642  -25.9266   21.2555 C   0  0  0  0  0  0
  -27.7402  -24.6251   21.1750 C   0  0  0  0  0  0
  -29.9400  -18.0881   19.8119 C   0  0  0  0  0  0
  -30.2815  -15.2861   21.4746 N   0  0  0  0  0  0
  -27.8380  -23.8362   22.3597 O   0  0  0  0  0  0
  -31.4502  -12.3341   19.1107 H   0  0  0  0  0  0
  -30.2716  -11.2564   19.7925 H   0  0  0  0  0  0
  -29.7120  -11.8010   17.4048 H   0  0  0  0  0  0
  -29.6644  -13.5060   17.7888 H   0  0  0  0  0  0
  -27.8106  -11.3222   18.8017 H   0  0  0  0  0  0
  -27.3560  -12.6663   17.7890 H   0  0  0  0  0  0
  -27.7139  -14.2598   19.5971 H   0  0  0  0  0  0
  -28.6584  -11.9405   21.3457 H   0  0  0  0  0  0
  -28.4670  -13.5806   21.8757 H   0  0  0  0  0  0
  -25.2759   -9.5683   22.4753 H   0  0  0  0  0  0
  -24.0003   -7.4633   22.7469 H   0  0  0  0  0  0
  -21.0843   -8.8772   19.8945 H   0  0  0  0  0  0
  -22.3698  -10.9671   19.6160 H   0  0  0  0  0  0
  -21.2007   -7.6147   23.9719 H   0  0  0  0  0  0
  -21.1486   -6.0521   25.9081 H   0  0  0  0  0  0
  -22.0597   -2.7609   23.2851 H   0  0  0  0  0  0
  -22.4119  -11.9863   22.4772 H   0  0  0  0  0  0
  -21.1129  -13.1237   22.2636 H   0  0  0  0  0  0
  -24.6662  -15.8468   20.5223 H   0  0  0  0  0  0
  -26.2877  -15.6261   20.0986 H   0  0  0  0  0  0
  -26.7118  -32.5581   23.1200 H   0  0  0  0  0  0
  -25.0072  -33.9815   25.0513 H   0  0  0  0  0  0
  -22.6848  -31.3104   21.4163 H   0  0  0  0  0  0
  -23.3757  -35.9645   23.3321 H   0  0  0  0  0  0
  -24.3595  -36.8900   22.2049 H   0  0  0  0  0  0
  -23.7240  -37.6521   23.6640 H   0  0  0  0  0  0
  -26.0299  -31.6142   20.5953 H   0  0  0  0  0  0
  -26.8103  -30.9015   21.9805 H   0  0  0  0  0  0
  -28.0935  -29.1320   21.1776 H   0  0  0  0  0  0
  -26.0977  -25.9980   18.9931 H   0  0  0  0  0  0
  -23.9872  -27.2971   19.0260 H   0  0  0  0  0  0
  -23.7071  -30.6027   19.4069 H   0  0  0  0  0  0
  -22.7303  -29.2430   19.8755 H   0  0  0  0  0  0
  -25.1286  -36.1999   25.0834 H   0  0  0  0  0  0
  -20.9934  -28.3224   24.1450 H   0  0  0  0  0  0
  -20.5692  -26.2271   23.3608 H   0  0  0  0  0  0
  -21.6642  -26.7474   22.1203 H   0  0  0  0  0  0
  -19.6936  -25.6307   21.1234 H   0  0  0  0  0  0
  -19.6683  -27.3209   20.6756 H   0  0  0  0  0  0
  -17.4201  -26.6667   21.4007 H   0  0  0  0  0  0
  -18.0299  -26.0046   22.9006 H   0  0  0  0  0  0
  -19.7938  -30.7217   24.2309 H   0  0  0  0  0  0
  -17.5029  -31.6266   24.5150 H   0  0  0  0  0  0
  -15.5350  -30.2992   23.7640 H   0  0  0  0  0  0
  -15.8657  -28.0817   22.7065 H   0  0  0  0  0  0
  -24.5936  -30.7012   25.7802 H   0  0  0  0  0  0
  -24.8909  -32.2811   26.4949 H   0  0  0  0  0  0
  -25.8102  -30.8842   27.0221 H   0  0  0  0  0  0
  -26.2832  -29.6799   24.1170 H   0  0  0  0  0  0
  -27.4147  -29.7309   25.4500 H   0  0  0  0  0  0
  -27.8637  -30.4393   23.9161 H   0  0  0  0  0  0
  -27.2728  -33.3611   26.2076 H   0  0  0  0  0  0
  -28.3863  -32.6845   25.0275 H   0  0  0  0  0  0
  -28.0757  -31.8404   26.5362 H   0  0  0  0  0  0
  -28.2615  -38.0100   24.7518 H   0  0  0  0  0  0
  -28.1074  -36.2634   24.6299 H   0  0  0  0  0  0
  -27.2309  -37.1450   25.8874 H   0  0  0  0  0  0
  -20.9307  -29.8727   21.6931 H   0  0  0  0  0  0
  -26.0206  -38.2886   24.1394 H   0  0  0  0  0  0
  -28.4551  -19.4627   23.3605 H   0  0  0  0  0  0
  -27.2000  -21.5777   23.4837 H   0  0  0  0  0  0
  -30.2264  -23.5197   21.1152 H   0  0  0  0  0  0
  -32.0491  -18.6910   23.9230 H   0  0  0  0  0  0
  -30.3334  -18.4809   24.2065 H   0  0  0  0  0  0
  -30.4663  -16.2687   23.8587 H   0  0  0  0  0  0
  -32.1881  -16.3705   23.5214 H   0  0  0  0  0  0
  -31.8021  -19.0719   21.6495 H   0  0  0  0  0  0
  -29.1127  -17.7111   21.7657 H   0  0  0  0  0  0
  -31.9018  -16.6394   21.2513 H   0  0  0  0  0  0
  -32.1742  -22.4779   20.4950 H   0  0  0  0  0  0
  -31.8687  -20.8449   19.9271 H   0  0  0  0  0  0
  -32.7315  -21.1192   21.4511 H   0  0  0  0  0  0
  -32.0385  -18.6210   19.4322 H   0  0  0  0  0  0
  -31.0843  -18.3879   17.9799 H   0  0  0  0  0  0
  -31.6141  -16.9992   18.9109 H   0  0  0  0  0  0
  -27.9251  -17.2391   19.7339 H   0  0  0  0  0  0
  -29.1673  -16.1694   19.0853 H   0  0  0  0  0  0
  -28.6265  -17.5518   18.1556 H   0  0  0  0  0  0
  -29.6249  -25.6985   21.3500 H   0  0  0  0  0  0
  -28.2964  -26.4884   22.1524 H   0  0  0  0  0  0
  -27.9995  -24.0609   20.2775 H   0  0  0  0  0  0
  -26.6830  -24.8640   21.0723 H   0  0  0  0  0  0
  -29.5729  -19.1115   19.7273 H   0  0  0  0  0  0
  -29.4051  -15.0793   21.9296 H   0  0  0  0  0  0
  1 25  1  0  0  0
  1 30  2  0  0  0
  1 88  1  0  0  0
  2  3  1  0  0  0
  2 25  1  0  0  0
  2 90  1  0  0  0
  2 91  1  0  0  0
  3  4  1  0  0  0
  3 92  1  0  0  0
  3 93  1  0  0  0
  4  5  1  0  0  0
  4 94  1  0  0  0
  4 95  1  0  0  0
  5  6  1  0  0  0
  5 26  1  0  0  0
  5 96  1  0  0  0
  6 25  1  0  0  0
  6 97  1  0  0  0
  6 98  1  0  0  0
  7  8  2  0  0  0
  7 26  1  0  0  0
  7 29  1  0  0  0
  8  9  1  0  0  0
  8 22  1  0  0  0
  9 10  1  0  0  0
  9 27  2  0  0  0
 10 11  2  0  0  0
 10 15  1  0  0  0
 11 12  1  0  0  0
 11 99  1  0  0  0
 12 13  2  0  0  0
 12100  1  0  0  0
 13 14  1  0  0  0
 13 31  1  0  0  0
 14 15  2  0  0  0
 14101  1  0  0  0
 15102  1  0  0  0
 16 17  2  0  0  0
 16 21  1  0  0  0
 16 31  1  0  0  0
 17 18  1  0  0  0
 17103  1  0  0  0
 18 19  2  0  0  0
 18104  1  0  0  0
 19 20  1  0  0  0
 19 24  1  0  0  0
 20 21  2  0  0  0
 20105  1  0  0  0
 21 23  1  0  0  0
 22 28  1  0  0  0
 22 32  2  0  0  0
 26 27  1  0  0  0
 28106  1  0  0  0
 28107  1  0  0  0
 29108  1  0  0  0
 29109  1  0  0  0
 33 34  1  0  0  0
 33 66  1  0  0  0
 33 70  2  0  0  0
 34 36  1  0  0  0
 34 59  1  0  0  0
 34110  1  0  0  0
 35 44  2  0  0  0
 35 45  1  0  0  0
 35 68  1  0  0  0
 36 56  1  0  0  0
 36111  1  0  0  0
 37 39  1  0  0  0
 37 47  1  0  0  0
 37 66  1  0  0  0
 37112  1  0  0  0
 38 43  2  0  0  0
 38 46  1  0  0  0
 38 47  1  0  0  0
 39 64  1  0  0  0
 39 67  2  0  0  0
 40 52  1  0  0  0
 40 53  2  0  0  0
 40 58  1  0  0  0
 41113  1  0  0  0
 41114  1  0  0  0
 41115  1  0  0  0
 41 48  1  0  0  0
 42 43  1  0  0  0
 42 66  1  0  0  0
 42116  1  0  0  0
 42117  1  0  0  0
 43 44  1  0  0  0
 44118  1  0  0  0
 45 46  2  0  0  0
 45119  1  0  0  0
 46120  1  0  0  0
 47121  1  0  0  0
 47122  1  0  0  0
 48 56  1  0  0  0
 48 65  1  0  0  0
 48123  1  0  0  0
 49 50  1  0  0  0
 49 53  1  0  0  0
 49 64  1  0  0  0
 49124  1  0  0  0
 50 51  1  0  0  0
 50125  1  0  0  0
 50126  1  0  0  0
 51 52  1  0  0  0
 51127  1  0  0  0
 51128  1  0  0  0
 52129  1  0  0  0
 52130  1  0  0  0
 53 54  1  0  0  0
 54 55  2  0  0  0
 54131  1  0  0  0
 55 57  1  0  0  0
 55132  1  0  0  0
 56 69  2  0  0  0
 57 58  2  0  0  0
 57133  1  0  0  0
 58134  1  0  0  0
 59 60  1  0  0  0
 59 61  1  0  0  0
 59 62  1  0  0  0
 60135  1  0  0  0
 60136  1  0  0  0
 60137  1  0  0  0
 61138  1  0  0  0
 61139  1  0  0  0
 61140  1  0  0  0
 62141  1  0  0  0
 62142  1  0  0  0
 62143  1  0  0  0
 63 65  1  0  0  0
 63144  1  0  0  0
 63145  1  0  0  0
 63146  1  0  0  0
 64147  1  0  0  0
 65148  1  0  0  0
 68 85  1  0  0  0
 71 72  2  0  0  0
 71 74  1  0  0  0
 71149  1  0  0  0
 72 76  1  0  0  0
 72150  1  0  0  0
 73 75  1  0  0  0
 73 76  2  0  0  0
 73151  1  0  0  0
 74 75  2  0  0  0
 74 79  1  0  0  0
 75 82  1  0  0  0
 76 89  1  0  0  0
 77 78  1  0  0  0
 77 79  1  0  0  0
 77152  1  0  0  0
 77153  1  0  0  0
 78 81  1  0  0  0
 78154  1  0  0  0
 78155  1  0  0  0
 79 80  1  0  0  0
 79156  1  0  0  0
 80 81  1  0  0  0
 80 87  1  0  0  0
 80157  1  0  0  0
 81 88  1  0  0  0
 81158  1  0  0  0
 82159  1  0  0  0
 82160  1  0  0  0
 82161  1  0  0  0
 83162  1  0  0  0
 83163  1  0  0  0
 83164  1  0  0  0
 83 87  1  0  0  0
 84 87  1  0  0  0
 84165  1  0  0  0
 84166  1  0  0  0
 84167  1  0  0  0
 85 86  1  0  0  0
 85168  1  0  0  0
 85169  1  0  0  0
 86 89  1  0  0  0
 86170  1  0  0  0
 86171  1  0  0  0
 87172  1  0  0  0
 88173  1  0  0  0
M  ISO  4   1 100  68 101  85 101  88 100
M  END
> <chiral flag>
0

> <version>
0

> <s_m_source_file>
/data/baiqing/PycharmProjects/Reinvent-master-3.2/result/LINK_invent/BTK/process_docking_weight1_custom_sum_contain_oxygen_bond_distance_aromatic_linkinvent_7_9_3/rearranged_h_0139.sdf

> <i_m_source_file_index>
41

> <r_mmod_Potential_Energy-OPLS-2005>
35.9633483886719

> <r_mmod_Stretch_Energy-OPLS-2005>
34.7848892211914

> <r_mmod_Bend_Energy-OPLS-2005>
130.000427246094

> <r_mmod_Torsional_Energy-OPLS-2005>
284.927856445312

> <r_mmod_Improper_Torsional_Energy-OPLS-2005>
1.72708904743195

> <r_mmod_Van_der_Waal_Energy-OPLS-2005>
148.679351806641

> <r_mmod_Electrostatic_Energy-OPLS-2005>
-376.202545166016

> <r_mmod_Solvation_Energy-OPLS-2005>
-196.190414428711

> <b_mmod_Minimization_Converged-OPLS-2005>
0

> <r_mmod_RMS_Derivative-OPLS-2005>
1.33061671257019

$$$$
41
                    3D
 Structure written by MMmdl.
158167  0  0  1  0            999 V2000
  -30.5974  -14.7295   20.4593 C   0  0  0  0  0  0
  -30.4310  -12.4433   19.4826 C   0  0  0  0  0  0
  -29.5099  -12.4907   18.2434 C   0  0  0  0  0  0
  -28.0395  -12.3115   18.6658 C   0  0  0  0  0  0
  -27.6438  -13.2204   19.8592 C   0  0  2  0  0  0
  -28.6837  -13.1520   20.9969 C   0  0  0  0  0  0
  -25.2551  -13.8158   20.5743 C   0  0  0  0  0  0
  -24.1812  -13.0425   20.9244 C   0  0  0  0  0  0
  -24.6380  -11.6904   20.8789 C   0  0  0  0  0  0
  -23.9057  -10.4288   21.0434 C   0  0  0  0  0  0
  -24.3600   -9.4207   21.9210 C   0  0  0  0  0  0
  -23.6282   -8.2242   22.0767 C   0  0  0  0  0  0
  -22.4270   -8.0288   21.3543 C   0  0  0  0  0  0
  -21.9907   -9.0274   20.4652 C   0  0  0  0  0  0
  -22.7232  -10.2155   20.3080 C   0  0  0  0  0  0
  -21.6849   -6.0747   22.5276 C   0  0  0  0  0  0
  -21.4007   -6.5653   23.8207 C   0  0  0  0  0  0
  -21.3654   -5.6814   24.9172 C   0  0  0  0  0  0
  -21.6036   -4.3073   24.7226 C   0  0  0  0  0  0
  -21.8814   -3.8167   23.4345 C   0  0  0  0  0  0
  -21.9189   -4.6980   22.3400 C   0  0  0  0  0  0
  -22.7849  -13.5247   21.1892 C   0  0  0  0  0  0
  -22.1668   -4.2158   21.0979 F   0  0  0  0  0  0
  -21.5621   -3.4557   25.7735 F   0  0  0  0  0  0
  -29.9838  -13.5028   20.4138 N   0  0  0  0  0  0
  -26.2938  -12.9330   20.3330 N   0  0  0  0  0  0
  -25.9291  -11.6484   20.5792 N   0  0  0  0  0  0
  -22.0487  -12.8238   22.0443 N   0  0  0  0  0  0
  -25.4331  -15.1862   20.4133 N   0  0  0  0  0  0
  -31.7849  -14.8421   20.1415 O   0  0  0  0  0  0
  -21.6637   -6.8881   21.4230 O   0  0  0  0  0  0
  -22.3565  -14.5578   20.6772 O   0  0  0  0  0  0
  -24.6316  -31.8558   23.2019 C   0  0  0  0  0  0
  -25.9149  -32.4746   23.8379 C   0  0  1  0  0  0
  -27.2063  -27.2543   20.1451 C   0  0  0  0  0  0
  -25.5947  -33.8561   24.2289 N   0  0  0  0  0  0
  -23.4257  -30.4807   21.5423 C   0  0  2  0  0  0
  -24.8676  -28.9287   20.1055 C   0  0  0  0  0  0
  -22.7484  -29.4655   22.4944 C   0  0  0  0  0  0
  -18.0288  -28.1441   22.8514 C   0  0  0  0  0  0
  -24.1475  -36.7269   23.2636 C   0  0  0  0  0  0
  -25.9685  -30.7719   21.3746 C   0  0  0  0  0  0
  -26.0373  -29.3925   20.7200 C   0  0  0  0  0  0
  -27.2055  -28.5664   20.7307 C   0  0  0  0  0  0
  -26.0082  -26.8529   19.5119 C   0  0  0  0  0  0
  -24.8612  -27.6689   19.4875 C   0  0  0  0  0  0
  -23.6362  -29.8140   20.1566 C   0  0  0  0  0  0
  -25.4103  -36.3060   24.0331 C   0  0  1  0  0  0
  -20.5895  -28.3754   23.1290 C   0  0  2  0  0  0
  -20.6793  -26.9486   22.5421 C   0  0  0  0  0  0
  -19.5745  -26.6408   21.5258 C   0  0  0  0  0  0
  -18.1924  -26.7981   22.1673 C   0  0  0  0  0  0
  -19.1542  -28.8920   23.2895 C   0  0  0  0  0  0
  -18.9438  -30.1521   23.8910 C   0  0  0  0  0  0
  -17.6436  -30.6623   24.0592 C   0  0  0  0  0  0
  -25.9058  -34.9430   23.5111 C   0  0  0  0  0  0
  -16.5331  -29.9115   23.6358 C   0  0  0  0  0  0
  -16.7271  -28.6536   23.0371 C   0  0  0  0  0  0
  -26.4517  -31.6586   25.0793 C   0  0  0  0  0  0
  -25.3774  -31.3708   26.1546 C   0  0  0  0  0  0
  -27.0342  -30.2998   24.6274 C   0  0  0  0  0  0
  -27.6070  -32.4350   25.7564 C   0  0  0  0  0  0
  -27.5576  -37.1800   24.8483 C   0  0  0  0  0  0
  -21.4198  -29.3082   22.3668 N   0  0  0  0  0  0
  -26.4282  -37.3758   23.9427 N   0  0  0  0  0  0
  -24.6941  -31.0552   22.0949 N   0  0  0  0  0  0
  -23.4181  -28.8237   23.3078 O   0  0  0  0  0  0
  -28.3048  -26.3703   20.2666 O   0  0  0  0  0  0
  -26.5636  -34.8895   22.4685 O   0  0  0  0  0  0
  -23.5474  -32.1388   23.7323 O   0  0  0  0  0  0
  -28.9703  -22.4171   20.0369 C   0  0  0  0  0  0
  -27.2128  -22.0478   22.0442 C   0  0  0  0  0  0
  -27.3401  -23.3727   21.5534 C   0  0  0  0  0  0
  -28.2470  -23.6032   20.4742 C   0  0  0  0  0  0
  -28.7826  -21.1090   20.6186 C   0  0  0  0  0  0
  -25.8454  -24.3245   23.5467 C   0  0  0  0  0  0
  -24.9836  -24.2862   22.3049 C   0  0  0  0  0  0
  -26.4826  -24.4526   22.1734 C   0  0  0  0  0  0
  -28.3575  -24.9895   19.6670 C   0  0  0  0  0  0
  -29.1418  -18.5008   20.7017 C   0  0  0  0  0  0
  -30.1786  -17.3095   20.3623 C   0  0  0  0  0  0
  -27.8914  -20.9643   21.6084 N   0  0  0  0  0  0
  -29.4705  -19.9022   20.2266 N   0  0  0  0  0  0
  -29.8102  -15.8546   20.6382 N   0  0  0  0  0  0
  -31.4723  -12.5718   19.1882 H   0  0  0  0  0  0
  -30.3766  -11.4673   19.9657 H   0  0  0  0  0  0
  -29.7932  -11.7056   17.5419 H   0  0  0  0  0  0
  -29.6346  -13.4385   17.7159 H   0  0  0  0  0  0
  -27.9183  -11.2664   18.9526 H   0  0  0  0  0  0
  -27.3725  -12.4783   17.8186 H   0  0  0  0  0  0
  -27.6440  -14.2406   19.4756 H   0  0  0  0  0  0
  -28.7180  -12.1558   21.4393 H   0  0  0  0  0  0
  -28.4176  -13.8303   21.8101 H   0  0  0  0  0  0
  -25.2712   -9.5698   22.4825 H   0  0  0  0  0  0
  -23.9985   -7.4628   22.7487 H   0  0  0  0  0  0
  -21.0847   -8.8791   19.8953 H   0  0  0  0  0  0
  -22.3670  -10.9717   19.6231 H   0  0  0  0  0  0
  -21.2004   -7.6162   23.9706 H   0  0  0  0  0  0
  -21.1480   -6.0550   25.9071 H   0  0  0  0  0  0
  -22.0595   -2.7629   23.2843 H   0  0  0  0  0  0
  -22.4086  -11.9835   22.4730 H   0  0  0  0  0  0
  -21.1137  -13.1310   22.2701 H   0  0  0  0  0  0
  -24.6737  -15.8480   20.5209 H   0  0  0  0  0  0
  -26.2710  -15.6065   20.0318 H   0  0  0  0  0  0
  -26.7254  -32.5369   23.1156 H   0  0  0  0  0  0
  -25.0107  -33.9704   25.0442 H   0  0  0  0  0  0
  -22.7233  -31.3043   21.4005 H   0  0  0  0  0  0
  -23.3739  -35.9601   23.3310 H   0  0  0  0  0  0
  -24.3547  -36.8882   22.2046 H   0  0  0  0  0  0
  -23.7231  -37.6472   23.6659 H   0  0  0  0  0  0
  -26.1021  -31.5309   20.6027 H   0  0  0  0  0  0
  -26.8471  -30.8229   22.0053 H   0  0  0  0  0  0
  -28.0958  -28.9120   21.2383 H   0  0  0  0  0  0
  -25.8966  -25.8753   19.0724 H   0  0  0  0  0  0
  -23.9660  -27.2987   19.0084 H   0  0  0  0  0  0
  -23.7469  -30.5887   19.3969 H   0  0  0  0  0  0
  -22.7526  -29.2424   19.8632 H   0  0  0  0  0  0
  -25.1277  -36.1904   25.0823 H   0  0  0  0  0  0
  -21.0003  -28.3356   24.1414 H   0  0  0  0  0  0
  -20.5779  -26.2384   23.3629 H   0  0  0  0  0  0
  -21.6644  -26.7569   22.1167 H   0  0  0  0  0  0
  -19.6877  -25.6307   21.1319 H   0  0  0  0  0  0
  -19.6655  -27.3219   20.6787 H   0  0  0  0  0  0
  -17.4206  -26.6780   21.4063 H   0  0  0  0  0  0
  -18.0291  -26.0147   22.9081 H   0  0  0  0  0  0
  -19.7891  -30.7377   24.2270 H   0  0  0  0  0  0
  -17.4956  -31.6299   24.5202 H   0  0  0  0  0  0
  -15.5324  -30.2976   23.7711 H   0  0  0  0  0  0
  -15.8679  -28.0834   22.7087 H   0  0  0  0  0  0
  -24.5964  -30.7027   25.7912 H   0  0  0  0  0  0
  -24.8947  -32.2842   26.5023 H   0  0  0  0  0  0
  -25.8137  -30.8889   27.0308 H   0  0  0  0  0  0
  -26.2909  -29.6794   24.1260 H   0  0  0  0  0  0
  -27.3954  -29.7228   25.4799 H   0  0  0  0  0  0
  -27.8825  -30.4256   23.9552 H   0  0  0  0  0  0
  -27.2670  -33.3645   26.2143 H   0  0  0  0  0  0
  -28.3871  -32.6941   25.0399 H   0  0  0  0  0  0
  -28.0777  -31.8515   26.5486 H   0  0  0  0  0  0
  -28.2611  -38.0078   24.7500 H   0  0  0  0  0  0
  -28.1055  -36.2616   24.6334 H   0  0  0  0  0  0
  -27.2315  -37.1484   25.8893 H   0  0  0  0  0  0
  -20.9422  -29.8679   21.6752 H   0  0  0  0  0  0
  -26.0160  -38.2836   24.1403 H   0  0  0  0  0  0
  -29.6661  -22.5152   19.2152 H   0  0  0  0  0  0
  -26.4980  -21.8184   22.8176 H   0  0  0  0  0  0
  -25.9384  -23.4055   24.1198 H   0  0  0  0  0  0
  -25.7744  -25.2220   24.1564 H   0  0  0  0  0  0
  -24.3540  -25.1530   22.1182 H   0  0  0  0  0  0
  -24.5439  -23.3278   22.0312 H   0  0  0  0  0  0
  -26.8811  -25.4416   21.9899 H   0  0  0  0  0  0
  -27.7075  -24.9075   18.8006 H   0  0  0  0  0  0
  -29.3486  -24.9579   19.2173 H   0  0  0  0  0  0
  -28.9941  -18.5359   21.7816 H   0  0  0  0  0  0
  -28.1693  -18.2481   20.2785 H   0  0  0  0  0  0
  -30.4089  -17.3612   19.2971 H   0  0  0  0  0  0
  -31.1167  -17.5183   20.8813 H   0  0  0  0  0  0
  -30.1185  -19.9731   19.4475 H   0  0  0  0  0  0
  -28.8442  -15.6762   20.8681 H   0  0  0  0  0  0
  1 25  1  0  0  0
  1 30  2  0  0  0
  1 84  1  0  0  0
  2  3  1  0  0  0
  2 25  1  0  0  0
  2 85  1  0  0  0
  2 86  1  0  0  0
  3  4  1  0  0  0
  3 87  1  0  0  0
  3 88  1  0  0  0
  4  5  1  0  0  0
  4 89  1  0  0  0
  4 90  1  0  0  0
  5  6  1  0  0  0
  5 26  1  0  0  0
  5 91  1  0  0  0
  6 25  1  0  0  0
  6 92  1  0  0  0
  6 93  1  0  0  0
  7  8  2  0  0  0
  7 26  1  0  0  0
  7 29  1  0  0  0
  8  9  1  0  0  0
  8 22  1  0  0  0
  9 10  1  0  0  0
  9 27  2  0  0  0
 10 11  2  0  0  0
 10 15  1  0  0  0
 11 12  1  0  0  0
 11 94  1  0  0  0
 12 13  2  0  0  0
 12 95  1  0  0  0
 13 14  1  0  0  0
 13 31  1  0  0  0
 14 15  2  0  0  0
 14 96  1  0  0  0
 15 97  1  0  0  0
 16 17  2  0  0  0
 16 21  1  0  0  0
 16 31  1  0  0  0
 17 18  1  0  0  0
 17 98  1  0  0  0
 18 19  2  0  0  0
 18 99  1  0  0  0
 19 20  1  0  0  0
 19 24  1  0  0  0
 20 21  2  0  0  0
 20100  1  0  0  0
 21 23  1  0  0  0
 22 28  1  0  0  0
 22 32  2  0  0  0
 26 27  1  0  0  0
 28101  1  0  0  0
 28102  1  0  0  0
 29103  1  0  0  0
 29104  1  0  0  0
 33 34  1  0  0  0
 33 66  1  0  0  0
 33 70  2  0  0  0
 34 36  1  0  0  0
 34 59  1  0  0  0
 34105  1  0  0  0
 35 44  2  0  0  0
 35 45  1  0  0  0
 35 68  1  0  0  0
 36 56  1  0  0  0
 36106  1  0  0  0
 37 39  1  0  0  0
 37 47  1  0  0  0
 37 66  1  0  0  0
 37107  1  0  0  0
 38 43  2  0  0  0
 38 46  1  0  0  0
 38 47  1  0  0  0
 39 64  1  0  0  0
 39 67  2  0  0  0
 40 52  1  0  0  0
 40 53  2  0  0  0
 40 58  1  0  0  0
 41108  1  0  0  0
 41109  1  0  0  0
 41110  1  0  0  0
 41 48  1  0  0  0
 42 43  1  0  0  0
 42 66  1  0  0  0
 42111  1  0  0  0
 42112  1  0  0  0
 43 44  1  0  0  0
 44113  1  0  0  0
 45 46  2  0  0  0
 45114  1  0  0  0
 46115  1  0  0  0
 47116  1  0  0  0
 47117  1  0  0  0
 48 56  1  0  0  0
 48 65  1  0  0  0
 48118  1  0  0  0
 49 50  1  0  0  0
 49 53  1  0  0  0
 49 64  1  0  0  0
 49119  1  0  0  0
 50 51  1  0  0  0
 50120  1  0  0  0
 50121  1  0  0  0
 51 52  1  0  0  0
 51122  1  0  0  0
 51123  1  0  0  0
 52124  1  0  0  0
 52125  1  0  0  0
 53 54  1  0  0  0
 54 55  2  0  0  0
 54126  1  0  0  0
 55 57  1  0  0  0
 55127  1  0  0  0
 56 69  2  0  0  0
 57 58  2  0  0  0
 57128  1  0  0  0
 58129  1  0  0  0
 59 60  1  0  0  0
 59 61  1  0  0  0
 59 62  1  0  0  0
 60130  1  0  0  0
 60131  1  0  0  0
 60132  1  0  0  0
 61133  1  0  0  0
 61134  1  0  0  0
 61135  1  0  0  0
 62136  1  0  0  0
 62137  1  0  0  0
 62138  1  0  0  0
 63 65  1  0  0  0
 63139  1  0  0  0
 63140  1  0  0  0
 63141  1  0  0  0
 64142  1  0  0  0
 65143  1  0  0  0
 68 79  1  0  0  0
 71 74  2  0  0  0
 71 75  1  0  0  0
 71144  1  0  0  0
 72 73  2  0  0  0
 72 82  1  0  0  0
 72145  1  0  0  0
 73 74  1  0  0  0
 73 78  1  0  0  0
 74 79  1  0  0  0
 75 82  2  0  0  0
 75 83  1  0  0  0
 76 77  1  0  0  0
 76 78  1  0  0  0
 76146  1  0  0  0
 76147  1  0  0  0
 77 78  1  0  0  0
 77148  1  0  0  0
 77149  1  0  0  0
 78150  1  0  0  0
 79151  1  0  0  0
 79152  1  0  0  0
 80 81  1  0  0  0
 80 83  1  0  0  0
 80153  1  0  0  0
 80154  1  0  0  0
 81 84  1  0  0  0
 81155  1  0  0  0
 81156  1  0  0  0
 83157  1  0  0  0
 84158  1  0  0  0
M  ISO  4   1 100  68 101  79 101  84 100
M  END
> <chiral flag>
0

> <version>
0

> <s_m_source_file>
/data/baiqing/PycharmProjects/Reinvent-master-3.2/result/LINK_invent/BTK/process_docking_weight1_custom_sum_contain_oxygen_bond_distance_aromatic_linkinvent_7_9_3/rearranged_h_0139.sdf

> <i_m_source_file_index>
42

> <r_mmod_Potential_Energy-OPLS-2005>
-85.2652969360352

> <r_mmod_Stretch_Energy-OPLS-2005>
114.388191223145

> <r_mmod_Bend_Energy-OPLS-2005>
184.230407714844

> <r_mmod_Torsional_Energy-OPLS-2005>
228.401184082031

> <r_mmod_Improper_Torsional_Energy-OPLS-2005>
6.64919137954712

> <r_mmod_Van_der_Waal_Energy-OPLS-2005>
141.316284179688

> <r_mmod_Electrostatic_Energy-OPLS-2005>
-606.703979492188

> <r_mmod_Solvation_Energy-OPLS-2005>
-241.05908203125

> <b_mmod_Minimization_Converged-OPLS-2005>
0

> <r_mmod_RMS_Derivative-OPLS-2005>
3.50058507919312

$$$$
42
                    3D
 Structure written by MMmdl.
164173  0  0  1  0            999 V2000
  -30.7094  -14.4263   20.6256 C   0  0  0  0  0  0
  -30.4257  -12.2996   19.4033 C   0  0  0  0  0  0
  -29.4902  -12.5154   18.1945 C   0  0  0  0  0  0
  -28.0076  -12.3860   18.6034 C   0  0  0  0  0  0
  -27.6648  -13.1959   19.8827 C   0  0  2  0  0  0
  -28.7048  -12.8910   20.9805 C   0  0  0  0  0  0
  -25.2600  -13.8149   20.5679 C   0  0  0  0  0  0
  -24.1837  -13.0436   20.9153 C   0  0  0  0  0  0
  -24.6377  -11.6895   20.8717 C   0  0  0  0  0  0
  -23.9042  -10.4291   21.0396 C   0  0  0  0  0  0
  -24.3598   -9.4213   21.9179 C   0  0  0  0  0  0
  -23.6280   -8.2246   22.0750 C   0  0  0  0  0  0
  -22.4265   -8.0277   21.3537 C   0  0  0  0  0  0
  -21.9895   -9.0246   20.4642 C   0  0  0  0  0  0
  -22.7214  -10.2131   20.3049 C   0  0  0  0  0  0
  -21.6855   -6.0729   22.5276 C   0  0  0  0  0  0
  -21.4015   -6.5637   23.8209 C   0  0  0  0  0  0
  -21.3658   -5.6789   24.9172 C   0  0  0  0  0  0
  -21.6044   -4.3050   24.7224 C   0  0  0  0  0  0
  -21.8821   -3.8143   23.4347 C   0  0  0  0  0  0
  -21.9194   -4.6958   22.3400 C   0  0  0  0  0  0
  -22.7864  -13.5240   21.1824 C   0  0  0  0  0  0
  -22.1661   -4.2143   21.0976 F   0  0  0  0  0  0
  -21.5627   -3.4536   25.7739 F   0  0  0  0  0  0
  -30.0312  -13.2541   20.4548 N   0  0  0  0  0  0
  -26.3033  -12.9293   20.3389 N   0  0  0  0  0  0
  -25.9297  -11.6463   20.5752 N   0  0  0  0  0  0
  -22.0508  -12.8238   22.0391 N   0  0  0  0  0  0
  -25.4351  -15.1863   20.4087 N   0  0  0  0  0  0
  -31.8157  -14.6130   20.1027 O   0  0  0  0  0  0
  -21.6635   -6.8870   21.4236 O   0  0  0  0  0  0
  -22.3551  -14.5550   20.6682 O   0  0  0  0  0  0
  -24.6119  -31.8699   23.2121 C   0  0  0  0  0  0
  -25.9022  -32.4835   23.8405 C   0  0  1  0  0  0
  -27.2424  -27.4730   20.0877 C   0  0  0  0  0  0
  -25.5901  -33.8628   24.2351 N   0  0  0  0  0  0
  -23.3988  -30.4902   21.5519 C   0  0  2  0  0  0
  -24.8479  -28.9555   20.1211 C   0  0  0  0  0  0
  -22.7396  -29.4652   22.5022 C   0  0  0  0  0  0
  -18.0262  -28.1353   22.8483 C   0  0  0  0  0  0
  -24.1491  -36.7317   23.2636 C   0  0  0  0  0  0
  -25.9227  -30.8446   21.3611 C   0  0  0  0  0  0
  -26.0034  -29.4760   20.7203 C   0  0  0  0  0  0
  -27.2048  -28.7367   20.7124 C   0  0  0  0  0  0
  -26.0771  -26.9552   19.4884 C   0  0  0  0  0  0
  -24.8759  -27.6884   19.5092 C   0  0  0  0  0  0
  -23.6077  -29.8191   20.1677 C   0  0  0  0  0  0
  -25.4107  -36.3119   24.0343 C   0  0  1  0  0  0
  -20.5849  -28.3637   23.1326 C   0  0  2  0  0  0
  -20.6759  -26.9384   22.5414 C   0  0  0  0  0  0
  -19.5745  -26.6380   21.5198 C   0  0  0  0  0  0
  -18.1917  -26.7903   22.1604 C   0  0  0  0  0  0
  -19.1510  -28.8811   23.2897 C   0  0  0  0  0  0
  -18.9447  -30.1422   23.8900 C   0  0  0  0  0  0
  -17.6454  -30.6572   24.0548 C   0  0  0  0  0  0
  -25.9026  -34.9481   23.5138 C   0  0  0  0  0  0
  -16.5345  -29.9076   23.6310 C   0  0  0  0  0  0
  -16.7251  -28.6488   23.0334 C   0  0  0  0  0  0
  -26.4463  -31.6604   25.0712 C   0  0  0  0  0  0
  -25.3746  -31.3692   26.1478 C   0  0  0  0  0  0
  -27.0285  -30.3059   24.6032 C   0  0  0  0  0  0
  -27.6047  -32.4315   25.7472 C   0  0  0  0  0  0
  -27.5583  -37.1825   24.8466 C   0  0  0  0  0  0
  -21.4127  -29.3014   22.3748 N   0  0  0  0  0  0
  -26.4303  -37.3798   23.9399 N   0  0  0  0  0  0
  -24.6622  -31.0825   22.1006 N   0  0  0  0  0  0
  -23.4174  -28.8197   23.3062 O   0  0  0  0  0  0
  -28.4027  -26.7542   19.9974 O   0  0  0  0  0  0
  -26.5582  -34.8934   22.4697 O   0  0  0  0  0  0
  -23.5320  -32.1447   23.7532 O   0  0  0  0  0  0
  -30.5549  -19.8438   22.6728 C   0  0  0  0  0  0
  -30.9873  -21.1818   22.6819 C   0  0  0  0  0  0
  -30.2899  -21.4169   20.3683 C   0  0  0  0  0  0
  -29.9819  -19.2655   21.5132 C   0  0  0  0  0  0
  -29.8400  -20.0778   20.3527 C   0  0  0  0  0  0
  -30.8574  -21.9731   21.5294 C   0  0  0  0  0  0
  -29.5487  -17.0531   22.8547 C   0  0  0  0  0  0
  -29.3801  -15.5988   22.4198 C   0  0  0  0  0  0
  -30.2888  -16.8507   20.6163 C   0  0  0  0  0  0
  -29.5040  -17.8040   21.5263 C   0  0  2  0  0  0
  -29.2145  -19.5567   19.0676 C   0  0  0  0  0  0
  -29.8759  -25.0828   20.8215 C   0  0  0  0  0  0
  -28.8003  -26.1100   21.1978 C   0  0  0  0  0  0
  -30.3269  -24.2108   21.9992 C   0  0  0  0  0  0
  -30.0026  -15.4894   21.0933 N   0  0  0  0  0  0
  -31.2948  -23.2715   21.5404 O   0  0  0  0  0  0
  -31.4665  -12.4113   19.0950 H   0  0  0  0  0  0
  -30.3436  -11.2755   19.7718 H   0  0  0  0  0  0
  -29.7216  -11.7975   17.4061 H   0  0  0  0  0  0
  -29.6661  -13.5034   17.7660 H   0  0  0  0  0  0
  -27.8012  -11.3286   18.7713 H   0  0  0  0  0  0
  -27.3611  -12.6918   17.7797 H   0  0  0  0  0  0
  -27.7317  -14.2548   19.6320 H   0  0  0  0  0  0
  -28.6896  -11.8242   21.2077 H   0  0  0  0  0  0
  -28.4507  -13.3465   21.9292 H   0  0  0  0  0  0
  -25.2749   -9.5694   22.4745 H   0  0  0  0  0  0
  -23.9993   -7.4642   22.7475 H   0  0  0  0  0  0
  -21.0826   -8.8758   19.8953 H   0  0  0  0  0  0
  -22.3671  -10.9660   19.6152 H   0  0  0  0  0  0
  -21.2015   -7.6148   23.9710 H   0  0  0  0  0  0
  -21.1474   -6.0521   25.9072 H   0  0  0  0  0  0
  -22.0606   -2.7606   23.2848 H   0  0  0  0  0  0
  -22.4120  -11.9894   22.4772 H   0  0  0  0  0  0
  -21.1126  -13.1261   22.2599 H   0  0  0  0  0  0
  -24.6727  -15.8459   20.5191 H   0  0  0  0  0  0
  -26.2991  -15.6235   20.1137 H   0  0  0  0  0  0
  -26.7095  -32.5571   23.1182 H   0  0  0  0  0  0
  -25.0096  -33.9784   25.0525 H   0  0  0  0  0  0
  -22.6860  -31.3052   21.4106 H   0  0  0  0  0  0
  -23.3742  -35.9667   23.3327 H   0  0  0  0  0  0
  -24.3590  -36.8896   22.2045 H   0  0  0  0  0  0
  -23.7256  -37.6540   23.6631 H   0  0  0  0  0  0
  -26.0246  -31.6056   20.5865 H   0  0  0  0  0  0
  -26.8141  -30.9070   21.9729 H   0  0  0  0  0  0
  -28.1019  -29.1397   21.1619 H   0  0  0  0  0  0
  -26.1055  -25.9910   19.0002 H   0  0  0  0  0  0
  -23.9905  -27.2791   19.0421 H   0  0  0  0  0  0
  -23.7109  -30.5910   19.4036 H   0  0  0  0  0  0
  -22.7349  -29.2321   19.8755 H   0  0  0  0  0  0
  -25.1279  -36.2000   25.0836 H   0  0  0  0  0  0
  -20.9924  -28.3206   24.1450 H   0  0  0  0  0  0
  -20.5666  -26.2241   23.3594 H   0  0  0  0  0  0
  -21.6634  -26.7441   22.1207 H   0  0  0  0  0  0
  -19.6914  -25.6299   21.1206 H   0  0  0  0  0  0
  -19.6691  -27.3204   20.6741 H   0  0  0  0  0  0
  -17.4192  -26.6637   21.3999 H   0  0  0  0  0  0
  -18.0316  -26.0037   22.8990 H   0  0  0  0  0  0
  -19.7933  -30.7215   24.2291 H   0  0  0  0  0  0
  -17.5018  -31.6253   24.5154 H   0  0  0  0  0  0
  -15.5345  -30.2979   23.7647 H   0  0  0  0  0  0
  -15.8643  -28.0821   22.7042 H   0  0  0  0  0  0
  -24.5910  -30.7035   25.7835 H   0  0  0  0  0  0
  -24.8938  -32.2838   26.4953 H   0  0  0  0  0  0
  -25.8109  -30.8855   27.0222 H   0  0  0  0  0  0
  -26.2804  -29.6832   24.1115 H   0  0  0  0  0  0
  -27.4116  -29.7266   25.4444 H   0  0  0  0  0  0
  -27.8605  -30.4390   23.9115 H   0  0  0  0  0  0
  -27.2661  -33.3598   26.2078 H   0  0  0  0  0  0
  -28.3838  -32.6909   25.0286 H   0  0  0  0  0  0
  -28.0738  -31.8425   26.5364 H   0  0  0  0  0  0
  -28.2629  -38.0102   24.7505 H   0  0  0  0  0  0
  -28.1060  -36.2638   24.6315 H   0  0  0  0  0  0
  -27.2301  -37.1494   25.8873 H   0  0  0  0  0  0
  -20.9298  -29.8748   21.6970 H   0  0  0  0  0  0
  -26.0198  -38.2881   24.1392 H   0  0  0  0  0  0
  -30.6734  -19.2822   23.5858 H   0  0  0  0  0  0
  -31.4201  -21.6004   23.5798 H   0  0  0  0  0  0
  -30.1968  -22.0301   19.4828 H   0  0  0  0  0  0
  -30.5230  -17.1477   23.3353 H   0  0  0  0  0  0
  -28.7842  -17.3830   23.5597 H   0  0  0  0  0  0
  -28.3108  -15.4020   22.3330 H   0  0  0  0  0  0
  -29.8058  -14.9037   23.1458 H   0  0  0  0  0  0
  -31.3576  -17.0557   20.7098 H   0  0  0  0  0  0
  -30.0200  -16.9561   19.5657 H   0  0  0  0  0  0
  -28.4595  -17.8047   21.2114 H   0  0  0  0  0  0
  -28.7947  -20.3740   18.4808 H   0  0  0  0  0  0
  -28.4021  -18.8555   19.2515 H   0  0  0  0  0  0
  -29.9678  -19.0625   18.4535 H   0  0  0  0  0  0
  -30.7390  -25.6023   20.4039 H   0  0  0  0  0  0
  -29.4927  -24.4413   20.0275 H   0  0  0  0  0  0
  -29.1886  -26.8385   21.9104 H   0  0  0  0  0  0
  -27.9501  -25.6103   21.6666 H   0  0  0  0  0  0
  -29.4650  -23.7242   22.4616 H   0  0  0  0  0  0
  -30.7835  -24.8317   22.7701 H   0  0  0  0  0  0
  1 25  1  0  0  0
  1 30  2  0  0  0
  1 85  1  0  0  0
  2  3  1  0  0  0
  2 25  1  0  0  0
  2 87  1  0  0  0
  2 88  1  0  0  0
  3  4  1  0  0  0
  3 89  1  0  0  0
  3 90  1  0  0  0
  4  5  1  0  0  0
  4 91  1  0  0  0
  4 92  1  0  0  0
  5  6  1  0  0  0
  5 26  1  0  0  0
  5 93  1  0  0  0
  6 25  1  0  0  0
  6 94  1  0  0  0
  6 95  1  0  0  0
  7  8  2  0  0  0
  7 26  1  0  0  0
  7 29  1  0  0  0
  8  9  1  0  0  0
  8 22  1  0  0  0
  9 10  1  0  0  0
  9 27  2  0  0  0
 10 11  2  0  0  0
 10 15  1  0  0  0
 11 12  1  0  0  0
 11 96  1  0  0  0
 12 13  2  0  0  0
 12 97  1  0  0  0
 13 14  1  0  0  0
 13 31  1  0  0  0
 14 15  2  0  0  0
 14 98  1  0  0  0
 15 99  1  0  0  0
 16 17  2  0  0  0
 16 21  1  0  0  0
 16 31  1  0  0  0
 17 18  1  0  0  0
 17100  1  0  0  0
 18 19  2  0  0  0
 18101  1  0  0  0
 19 20  1  0  0  0
 19 24  1  0  0  0
 20 21  2  0  0  0
 20102  1  0  0  0
 21 23  1  0  0  0
 22 28  1  0  0  0
 22 32  2  0  0  0
 26 27  1  0  0  0
 28103  1  0  0  0
 28104  1  0  0  0
 29105  1  0  0  0
 29106  1  0  0  0
 33 34  1  0  0  0
 33 66  1  0  0  0
 33 70  2  0  0  0
 34 36  1  0  0  0
 34 59  1  0  0  0
 34107  1  0  0  0
 35 44  2  0  0  0
 35 45  1  0  0  0
 35 68  1  0  0  0
 36 56  1  0  0  0
 36108  1  0  0  0
 37 39  1  0  0  0
 37 47  1  0  0  0
 37 66  1  0  0  0
 37109  1  0  0  0
 38 43  2  0  0  0
 38 46  1  0  0  0
 38 47  1  0  0  0
 39 64  1  0  0  0
 39 67  2  0  0  0
 40 52  1  0  0  0
 40 53  2  0  0  0
 40 58  1  0  0  0
 41110  1  0  0  0
 41111  1  0  0  0
 41112  1  0  0  0
 41 48  1  0  0  0
 42 43  1  0  0  0
 42 66  1  0  0  0
 42113  1  0  0  0
 42114  1  0  0  0
 43 44  1  0  0  0
 44115  1  0  0  0
 45 46  2  0  0  0
 45116  1  0  0  0
 46117  1  0  0  0
 47118  1  0  0  0
 47119  1  0  0  0
 48 56  1  0  0  0
 48 65  1  0  0  0
 48120  1  0  0  0
 49 50  1  0  0  0
 49 53  1  0  0  0
 49 64  1  0  0  0
 49121  1  0  0  0
 50 51  1  0  0  0
 50122  1  0  0  0
 50123  1  0  0  0
 51 52  1  0  0  0
 51124  1  0  0  0
 51125  1  0  0  0
 52126  1  0  0  0
 52127  1  0  0  0
 53 54  1  0  0  0
 54 55  2  0  0  0
 54128  1  0  0  0
 55 57  1  0  0  0
 55129  1  0  0  0
 56 69  2  0  0  0
 57 58  2  0  0  0
 57130  1  0  0  0
 58131  1  0  0  0
 59 60  1  0  0  0
 59 61  1  0  0  0
 59 62  1  0  0  0
 60132  1  0  0  0
 60133  1  0  0  0
 60134  1  0  0  0
 61135  1  0  0  0
 61136  1  0  0  0
 61137  1  0  0  0
 62138  1  0  0  0
 62139  1  0  0  0
 62140  1  0  0  0
 63 65  1  0  0  0
 63141  1  0  0  0
 63142  1  0  0  0
 63143  1  0  0  0
 64144  1  0  0  0
 65145  1  0  0  0
 68 83  1  0  0  0
 71 72  2  0  0  0
 71 74  1  0  0  0
 71146  1  0  0  0
 72 76  1  0  0  0
 72147  1  0  0  0
 73 75  1  0  0  0
 73 76  2  0  0  0
 73148  1  0  0  0
 74 75  2  0  0  0
 74 80  1  0  0  0
 75 81  1  0  0  0
 76 86  1  0  0  0
 77 78  1  0  0  0
 77 80  1  0  0  0
 77149  1  0  0  0
 77150  1  0  0  0
 78 85  1  0  0  0
 78151  1  0  0  0
 78152  1  0  0  0
 79 80  1  0  0  0
 79 85  1  0  0  0
 79153  1  0  0  0
 79154  1  0  0  0
 80155  1  0  0  0
 81156  1  0  0  0
 81157  1  0  0  0
 81158  1  0  0  0
 82 83  1  0  0  0
 82 84  1  0  0  0
 82159  1  0  0  0
 82160  1  0  0  0
 83161  1  0  0  0
 83162  1  0  0  0
 84 86  1  0  0  0
 84163  1  0  0  0
 84164  1  0  0  0
M  ISO  4   1 100  68 101  83 101  85 100
M  END
> <chiral flag>
0

> <version>
0

> <s_m_source_file>
/data/baiqing/PycharmProjects/Reinvent-master-3.2/result/LINK_invent/BTK/process_docking_weight1_custom_sum_contain_oxygen_bond_distance_aromatic_linkinvent_7_9_3/rearranged_h_0139.sdf

> <i_m_source_file_index>
43

> <r_mmod_Potential_Energy-OPLS-2005>
178.825302124023

> <r_mmod_Stretch_Energy-OPLS-2005>
35.5834541320801

> <r_mmod_Bend_Energy-OPLS-2005>
126.692276000977

> <r_mmod_Torsional_Energy-OPLS-2005>
358.411102294922

> <r_mmod_Improper_Torsional_Energy-OPLS-2005>
10.3951473236084

> <r_mmod_Van_der_Waal_Energy-OPLS-2005>
154.685165405273

> <r_mmod_Electrostatic_Energy-OPLS-2005>
-315.332244873047

> <r_mmod_Solvation_Energy-OPLS-2005>
-199.984039306641

> <b_mmod_Minimization_Converged-OPLS-2005>
0

> <r_mmod_RMS_Derivative-OPLS-2005>
1.44613170623779

$$$$
43
                    3D
 Structure written by MMmdl.
169177  0  0  1  0            999 V2000
  -30.7052  -14.5514   20.5406 C   0  0  0  0  0  0
  -30.4252  -12.3619   19.4410 C   0  0  0  0  0  0
  -29.4936  -12.4913   18.2191 C   0  0  0  0  0  0
  -28.0184  -12.3508   18.6367 C   0  0  0  0  0  0
  -27.6518  -13.2208   19.8682 C   0  0  2  0  0  0
  -28.6973  -13.0766   20.9973 C   0  0  0  0  0  0
  -25.2542  -13.8192   20.5665 C   0  0  0  0  0  0
  -24.1811  -13.0449   20.9165 C   0  0  0  0  0  0
  -24.6378  -11.6909   20.8740 C   0  0  0  0  0  0
  -23.9060  -10.4297   21.0406 C   0  0  0  0  0  0
  -24.3610   -9.4196   21.9174 C   0  0  0  0  0  0
  -23.6279   -8.2243   22.0753 C   0  0  0  0  0  0
  -22.4256   -8.0286   21.3540 C   0  0  0  0  0  0
  -21.9902   -9.0245   20.4638 C   0  0  0  0  0  0
  -22.7244  -10.2132   20.3048 C   0  0  0  0  0  0
  -21.6863   -6.0710   22.5253 C   0  0  0  0  0  0
  -21.4020   -6.5615   23.8181 C   0  0  0  0  0  0
  -21.3665   -5.6781   24.9137 C   0  0  0  0  0  0
  -21.6047   -4.3031   24.7193 C   0  0  0  0  0  0
  -21.8836   -3.8119   23.4321 C   0  0  0  0  0  0
  -21.9198   -4.6945   22.3371 C   0  0  0  0  0  0
  -22.7829  -13.5230   21.1836 C   0  0  0  0  0  0
  -22.1663   -4.2120   21.0955 F   0  0  0  0  0  0
  -21.5641   -3.4526   25.7704 F   0  0  0  0  0  0
  -30.0180  -13.3796   20.4251 N   0  0  0  0  0  0
  -26.2968  -12.9364   20.3360 N   0  0  0  0  0  0
  -25.9318  -11.6520   20.5801 N   0  0  0  0  0  0
  -22.0493  -12.8202   22.0381 N   0  0  0  0  0  0
  -25.4284  -15.1898   20.4055 N   0  0  0  0  0  0
  -31.8687  -14.6603   20.1518 O   0  0  0  0  0  0
  -21.6660   -6.8855   21.4209 O   0  0  0  0  0  0
  -22.3506  -14.5538   20.6686 O   0  0  0  0  0  0
  -24.6200  -31.8669   23.2033 C   0  0  0  0  0  0
  -25.9043  -32.4811   23.8433 C   0  0  1  0  0  0
  -27.2561  -27.3903   20.0391 C   0  0  0  0  0  0
  -25.5911  -33.8633   24.2314 N   0  0  0  0  0  0
  -23.4168  -30.4894   21.5458 C   0  0  2  0  0  0
  -24.8630  -28.9508   20.1142 C   0  0  0  0  0  0
  -22.7487  -29.4659   22.4950 C   0  0  0  0  0  0
  -18.0318  -28.1373   22.8507 C   0  0  0  0  0  0
  -24.1476  -36.7319   23.2655 C   0  0  0  0  0  0
  -25.9536  -30.8043   21.3699 C   0  0  0  0  0  0
  -26.0280  -29.4341   20.7173 C   0  0  0  0  0  0
  -27.2192  -28.6564   20.6925 C   0  0  0  0  0  0
  -26.0471  -26.9363   19.4541 C   0  0  0  0  0  0
  -24.8685  -27.6989   19.4875 C   0  0  0  0  0  0
  -23.6229  -29.8159   20.1640 C   0  0  0  0  0  0
  -25.4107  -36.3116   24.0325 C   0  0  1  0  0  0
  -20.5919  -28.3709   23.1291 C   0  0  2  0  0  0
  -20.6786  -26.9432   22.5416 C   0  0  0  0  0  0
  -19.5715  -26.6370   21.5242 C   0  0  0  0  0  0
  -18.1916  -26.7943   22.1641 C   0  0  0  0  0  0
  -19.1585  -28.8868   23.2881 C   0  0  0  0  0  0
  -18.9483  -30.1477   23.8888 C   0  0  0  0  0  0
  -17.6472  -30.6575   24.0598 C   0  0  0  0  0  0
  -25.9032  -34.9480   23.5111 C   0  0  0  0  0  0
  -16.5373  -29.9070   23.6337 C   0  0  0  0  0  0
  -16.7312  -28.6501   23.0336 C   0  0  0  0  0  0
  -26.4404  -31.6662   25.0817 C   0  0  0  0  0  0
  -25.3566  -31.3758   26.1512 C   0  0  0  0  0  0
  -27.0251  -30.3121   24.6225 C   0  0  0  0  0  0
  -27.6018  -32.4393   25.7540 C   0  0  0  0  0  0
  -27.5575  -37.1827   24.8474 C   0  0  0  0  0  0
  -21.4197  -29.3067   22.3707 N   0  0  0  0  0  0
  -26.4281  -37.3817   23.9410 N   0  0  0  0  0  0
  -24.6826  -31.0669   22.1000 N   0  0  0  0  0  0
  -23.4251  -28.8162   23.2950 O   0  0  0  0  0  0
  -28.4316  -26.6279   19.9833 O   0  0  0  0  0  0
  -26.5584  -34.8910   22.4667 O   0  0  0  0  0  0
  -23.5337  -32.1482   23.7317 O   0  0  0  0  0  0
  -28.8911  -22.3273   19.3639 C   0  0  0  0  0  0
  -30.8422  -23.0848   20.5571 C   0  0  0  0  0  0
  -29.0698  -21.0154   19.8756 C   0  0  0  0  0  0
  -30.9984  -21.7836   21.0996 C   0  0  0  0  0  0
  -29.8147  -23.3770   19.6215 C   0  0  0  0  0  0
  -30.1534  -20.7093   20.7275 C   0  0  0  0  0  0
  -32.4866  -27.5948   18.2518 C   0  0  0  0  0  0
  -30.9263  -23.2862   16.8081 C   0  0  0  0  0  0
  -31.2974  -26.6943   17.9062 C   0  0  0  0  0  0
  -29.7709  -24.2187   17.2466 C   0  0  0  0  0  0
  -31.0671  -25.5706   18.9468 C   0  0  0  0  0  0
  -30.6309  -17.0083   21.0110 C   0  0  0  0  0  0
  -29.6937  -18.2546   20.9028 C   0  0  0  0  0  0
  -28.4903  -25.5703   18.9757 C   0  0  0  0  0  0
  -29.7878  -24.6882   18.7497 C   0  0  2  0  0  0
  -30.0198  -15.6526   20.9318 N   0  0  0  0  0  0
  -30.4644  -19.4404   21.2174 O   0  0  0  0  0  0
  -31.4620  -12.4828   19.1239 H   0  0  0  0  0  0
  -30.3611  -11.3669   19.8833 H   0  0  0  0  0  0
  -29.7421  -11.7271   17.4832 H   0  0  0  0  0  0
  -29.6496  -13.4539   17.7286 H   0  0  0  0  0  0
  -27.8453  -11.3002   18.8629 H   0  0  0  0  0  0
  -27.3646  -12.5910   17.7978 H   0  0  0  0  0  0
  -27.6754  -14.2590   19.5361 H   0  0  0  0  0  0
  -28.6901  -12.0629   21.4052 H   0  0  0  0  0  0
  -28.4557  -13.7379   21.8316 H   0  0  0  0  0  0
  -25.2758   -9.5669   22.4752 H   0  0  0  0  0  0
  -23.9973   -7.4648   22.7498 H   0  0  0  0  0  0
  -21.0831   -8.8771   19.8946 H   0  0  0  0  0  0
  -22.3699  -10.9660   19.6161 H   0  0  0  0  0  0
  -21.2022   -7.6131   23.9657 H   0  0  0  0  0  0
  -21.1479   -6.0511   25.9035 H   0  0  0  0  0  0
  -22.0620   -2.7580   23.2826 H   0  0  0  0  0  0
  -22.4137  -11.9863   22.4743 H   0  0  0  0  0  0
  -21.1103  -13.1213   22.2626 H   0  0  0  0  0  0
  -24.6679  -15.8525   20.5130 H   0  0  0  0  0  0
  -26.2807  -15.6183   20.0666 H   0  0  0  0  0  0
  -26.7182  -32.5447   23.1240 H   0  0  0  0  0  0
  -25.0157  -33.9886   25.0548 H   0  0  0  0  0  0
  -22.7129  -31.3132   21.3971 H   0  0  0  0  0  0
  -23.3694  -35.9694   23.3326 H   0  0  0  0  0  0
  -24.3536  -36.8886   22.2060 H   0  0  0  0  0  0
  -23.7244  -37.6531   23.6661 H   0  0  0  0  0  0
  -26.0596  -31.5565   20.5877 H   0  0  0  0  0  0
  -26.8453  -30.8715   21.9794 H   0  0  0  0  0  0
  -28.1152  -29.0359   21.1603 H   0  0  0  0  0  0
  -25.9671  -25.9872   18.9465 H   0  0  0  0  0  0
  -23.9743  -27.3262   19.0134 H   0  0  0  0  0  0
  -23.7157  -30.5833   19.3947 H   0  0  0  0  0  0
  -22.7563  -29.2185   19.8774 H   0  0  0  0  0  0
  -25.1237  -36.2010   25.0795 H   0  0  0  0  0  0
  -21.0022  -28.3226   24.1399 H   0  0  0  0  0  0
  -20.5683  -26.2305   23.3610 H   0  0  0  0  0  0
  -21.6649  -26.7415   22.1192 H   0  0  0  0  0  0
  -19.6854  -25.6275   21.1263 H   0  0  0  0  0  0
  -19.6599  -27.3202   20.6791 H   0  0  0  0  0  0
  -17.4185  -26.6777   21.4039 H   0  0  0  0  0  0
  -18.0291  -26.0056   22.8999 H   0  0  0  0  0  0
  -19.7954  -30.7350   24.2195 H   0  0  0  0  0  0
  -17.5003  -31.6260   24.5189 H   0  0  0  0  0  0
  -15.5390  -30.2941   23.7649 H   0  0  0  0  0  0
  -15.8724  -28.0825   22.6976 H   0  0  0  0  0  0
  -24.5834  -30.7019   25.7774 H   0  0  0  0  0  0
  -24.8621  -32.2879   26.4921 H   0  0  0  0  0  0
  -25.7825  -30.8970   27.0339 H   0  0  0  0  0  0
  -26.2847  -29.6913   24.1174 H   0  0  0  0  0  0
  -27.3895  -29.7357   25.4728 H   0  0  0  0  0  0
  -27.8710  -30.4421   23.9449 H   0  0  0  0  0  0
  -27.2761  -33.3786   26.2033 H   0  0  0  0  0  0
  -28.3826  -32.6834   25.0308 H   0  0  0  0  0  0
  -28.0689  -31.8545   26.5459 H   0  0  0  0  0  0
  -28.2604  -38.0132   24.7508 H   0  0  0  0  0  0
  -28.1041  -36.2648   24.6280 H   0  0  0  0  0  0
  -27.2275  -37.1426   25.8876 H   0  0  0  0  0  0
  -20.9394  -29.8876   21.6991 H   0  0  0  0  0  0
  -26.0133  -38.2868   24.1411 H   0  0  0  0  0  0
  -28.0655  -22.4905   18.6881 H   0  0  0  0  0  0
  -31.5731  -23.8320   20.8306 H   0  0  0  0  0  0
  -28.3771  -20.2466   19.5688 H   0  0  0  0  0  0
  -31.8164  -21.6020   21.7836 H   0  0  0  0  0  0
  -32.5870  -28.3922   17.5114 H   0  0  0  0  0  0
  -33.4170  -27.0272   18.2604 H   0  0  0  0  0  0
  -32.3679  -28.0634   19.2297 H   0  0  0  0  0  0
  -30.7778  -22.9140   15.7923 H   0  0  0  0  0  0
  -31.0135  -22.4113   17.4534 H   0  0  0  0  0  0
  -31.8872  -23.8008   16.8099 H   0  0  0  0  0  0
  -31.5025  -26.2741   16.9226 H   0  0  0  0  0  0
  -30.3991  -27.3003   17.8001 H   0  0  0  0  0  0
  -28.8307  -23.7127   17.0289 H   0  0  0  0  0  0
  -29.7588  -25.0666   16.5660 H   0  0  0  0  0  0
  -31.0439  -26.0061   19.9454 H   0  0  0  0  0  0
  -31.9559  -24.9411   18.9081 H   0  0  0  0  0  0
  -31.1749  -17.0657   21.9558 H   0  0  0  0  0  0
  -31.3837  -17.1198   20.2259 H   0  0  0  0  0  0
  -28.8758  -18.1798   21.6213 H   0  0  0  0  0  0
  -29.2615  -18.2852   19.9031 H   0  0  0  0  0  0
  -27.6695  -24.8710   19.1196 H   0  0  0  0  0  0
  -28.2953  -26.0848   18.0336 H   0  0  0  0  0  0
  -29.0491  -15.5443   21.1875 H   0  0  0  0  0  0
  1 25  1  0  0  0
  1 30  2  0  0  0
  1 86  1  0  0  0
  2  3  1  0  0  0
  2 25  1  0  0  0
  2 88  1  0  0  0
  2 89  1  0  0  0
  3  4  1  0  0  0
  3 90  1  0  0  0
  3 91  1  0  0  0
  4  5  1  0  0  0
  4 92  1  0  0  0
  4 93  1  0  0  0
  5  6  1  0  0  0
  5 26  1  0  0  0
  5 94  1  0  0  0
  6 25  1  0  0  0
  6 95  1  0  0  0
  6 96  1  0  0  0
  7  8  2  0  0  0
  7 26  1  0  0  0
  7 29  1  0  0  0
  8  9  1  0  0  0
  8 22  1  0  0  0
  9 10  1  0  0  0
  9 27  2  0  0  0
 10 11  2  0  0  0
 10 15  1  0  0  0
 11 12  1  0  0  0
 11 97  1  0  0  0
 12 13  2  0  0  0
 12 98  1  0  0  0
 13 14  1  0  0  0
 13 31  1  0  0  0
 14 15  2  0  0  0
 14 99  1  0  0  0
 15100  1  0  0  0
 16 17  2  0  0  0
 16 21  1  0  0  0
 16 31  1  0  0  0
 17 18  1  0  0  0
 17101  1  0  0  0
 18 19  2  0  0  0
 18102  1  0  0  0
 19 20  1  0  0  0
 19 24  1  0  0  0
 20 21  2  0  0  0
 20103  1  0  0  0
 21 23  1  0  0  0
 22 28  1  0  0  0
 22 32  2  0  0  0
 26 27  1  0  0  0
 28104  1  0  0  0
 28105  1  0  0  0
 29106  1  0  0  0
 29107  1  0  0  0
 33 34  1  0  0  0
 33 66  1  0  0  0
 33 70  2  0  0  0
 34 36  1  0  0  0
 34 59  1  0  0  0
 34108  1  0  0  0
 35 44  2  0  0  0
 35 45  1  0  0  0
 35 68  1  0  0  0
 36 56  1  0  0  0
 36109  1  0  0  0
 37 39  1  0  0  0
 37 47  1  0  0  0
 37 66  1  0  0  0
 37110  1  0  0  0
 38 43  2  0  0  0
 38 46  1  0  0  0
 38 47  1  0  0  0
 39 64  1  0  0  0
 39 67  2  0  0  0
 40 52  1  0  0  0
 40 53  2  0  0  0
 40 58  1  0  0  0
 41111  1  0  0  0
 41112  1  0  0  0
 41113  1  0  0  0
 41 48  1  0  0  0
 42 43  1  0  0  0
 42 66  1  0  0  0
 42114  1  0  0  0
 42115  1  0  0  0
 43 44  1  0  0  0
 44116  1  0  0  0
 45 46  2  0  0  0
 45117  1  0  0  0
 46118  1  0  0  0
 47119  1  0  0  0
 47120  1  0  0  0
 48 56  1  0  0  0
 48 65  1  0  0  0
 48121  1  0  0  0
 49 50  1  0  0  0
 49 53  1  0  0  0
 49 64  1  0  0  0
 49122  1  0  0  0
 50 51  1  0  0  0
 50123  1  0  0  0
 50124  1  0  0  0
 51 52  1  0  0  0
 51125  1  0  0  0
 51126  1  0  0  0
 52127  1  0  0  0
 52128  1  0  0  0
 53 54  1  0  0  0
 54 55  2  0  0  0
 54129  1  0  0  0
 55 57  1  0  0  0
 55130  1  0  0  0
 56 69  2  0  0  0
 57 58  2  0  0  0
 57131  1  0  0  0
 58132  1  0  0  0
 59 60  1  0  0  0
 59 61  1  0  0  0
 59 62  1  0  0  0
 60133  1  0  0  0
 60134  1  0  0  0
 60135  1  0  0  0
 61136  1  0  0  0
 61137  1  0  0  0
 61138  1  0  0  0
 62139  1  0  0  0
 62140  1  0  0  0
 62141  1  0  0  0
 63 65  1  0  0  0
 63142  1  0  0  0
 63143  1  0  0  0
 63144  1  0  0  0
 64145  1  0  0  0
 65146  1  0  0  0
 68 84  1  0  0  0
 71 73  2  0  0  0
 71 75  1  0  0  0
 71147  1  0  0  0
 72 74  1  0  0  0
 72 75  2  0  0  0
 72148  1  0  0  0
 73 76  1  0  0  0
 73149  1  0  0  0
 74 76  2  0  0  0
 74150  1  0  0  0
 75 85  1  0  0  0
 76 87  1  0  0  0
 77 79  1  0  0  0
 77151  1  0  0  0
 77152  1  0  0  0
 77153  1  0  0  0
 78 80  1  0  0  0
 78154  1  0  0  0
 78155  1  0  0  0
 78156  1  0  0  0
 79 81  1  0  0  0
 79157  1  0  0  0
 79158  1  0  0  0
 80159  1  0  0  0
 80160  1  0  0  0
 80 85  1  0  0  0
 81 85  1  0  0  0
 81161  1  0  0  0
 81162  1  0  0  0
 82 83  1  0  0  0
 82 86  1  0  0  0
 82163  1  0  0  0
 82164  1  0  0  0
 83 87  1  0  0  0
 83165  1  0  0  0
 83166  1  0  0  0
 84 85  1  0  0  0
 84167  1  0  0  0
 84168  1  0  0  0
 86169  1  0  0  0
M  ISO  4   1 100  68 101  84 101  86 100
M  END
> <chiral flag>
0

> <version>
0

> <s_m_source_file>
/data/baiqing/PycharmProjects/Reinvent-master-3.2/result/LINK_invent/BTK/process_docking_weight1_custom_sum_contain_oxygen_bond_distance_aromatic_linkinvent_7_9_3/rearranged_h_0139.sdf

> <i_m_source_file_index>
44

> <r_mmod_Potential_Energy-OPLS-2005>
36.5786514282227

> <r_mmod_Stretch_Energy-OPLS-2005>
64.427864074707

> <r_mmod_Bend_Energy-OPLS-2005>
145.224533081055

> <r_mmod_Torsional_Energy-OPLS-2005>
222.854904174805

> <r_mmod_Improper_Torsional_Energy-OPLS-2005>
4.59273910522461

> <r_mmod_Van_der_Waal_Energy-OPLS-2005>
169.162414550781

> <r_mmod_Electrostatic_Energy-OPLS-2005>
-391.440551757812

> <r_mmod_Solvation_Energy-OPLS-2005>
-205.212310791016

> <b_mmod_Minimization_Converged-OPLS-2005>
0

> <r_mmod_RMS_Derivative-OPLS-2005>
6.15708684921265

$$$$
44
                    3D
 Structure written by MMmdl.
157166  0  0  1  0            999 V2000
  -30.6745  -14.6243   20.5099 C   0  0  0  0  0  0
  -30.4354  -12.3842   19.4667 C   0  0  0  0  0  0
  -29.5090  -12.5142   18.2383 C   0  0  0  0  0  0
  -28.0315  -12.3539   18.6456 C   0  0  0  0  0  0
  -27.6545  -13.2203   19.8752 C   0  0  2  0  0  0
  -28.7054  -13.0841   21.0072 C   0  0  0  0  0  0
  -25.2351  -13.8043   20.5558 C   0  0  0  0  0  0
  -24.1727  -13.0288   20.9208 C   0  0  0  0  0  0
  -24.6398  -11.6827   20.8797 C   0  0  0  0  0  0
  -23.9086  -10.4228   21.0431 C   0  0  0  0  0  0
  -24.3625   -9.4149   21.9211 C   0  0  0  0  0  0
  -23.6281   -8.2200   22.0771 C   0  0  0  0  0  0
  -22.4269   -8.0257   21.3550 C   0  0  0  0  0  0
  -21.9912   -9.0236   20.4646 C   0  0  0  0  0  0
  -22.7267  -10.2100   20.3064 C   0  0  0  0  0  0
  -21.6831   -6.0732   22.5286 C   0  0  0  0  0  0
  -21.4003   -6.5632   23.8220 C   0  0  0  0  0  0
  -21.3658   -5.6785   24.9182 C   0  0  0  0  0  0
  -21.6043   -4.3046   24.7222 C   0  0  0  0  0  0
  -21.8824   -3.8146   23.4342 C   0  0  0  0  0  0
  -21.9187   -4.6963   22.3400 C   0  0  0  0  0  0
  -22.7745  -13.5090   21.1846 C   0  0  0  0  0  0
  -22.1653   -4.2161   21.0974 F   0  0  0  0  0  0
  -21.5629   -3.4525   25.7730 F   0  0  0  0  0  0
  -30.0329  -13.4099   20.4559 N   0  0  0  0  0  0
  -26.2963  -12.9360   20.3393 N   0  0  0  0  0  0
  -25.9349  -11.6498   20.5866 N   0  0  0  0  0  0
  -22.0394  -12.8136   22.0450 N   0  0  0  0  0  0
  -25.3478  -15.1716   20.3661 N   0  0  0  0  0  0
  -31.7835  -14.7858   19.9975 O   0  0  0  0  0  0
  -21.6615   -6.8871   21.4248 O   0  0  0  0  0  0
  -22.3440  -14.5395   20.6687 O   0  0  0  0  0  0
  -24.6222  -31.8620   23.2042 C   0  0  0  0  0  0
  -25.9082  -32.4797   23.8371 C   0  0  1  0  0  0
  -27.2364  -27.3352   20.1135 C   0  0  0  0  0  0
  -25.5912  -33.8596   24.2300 N   0  0  0  0  0  0
  -23.4159  -30.4823   21.5482 C   0  0  2  0  0  0
  -24.8663  -28.9428   20.1109 C   0  0  0  0  0  0
  -22.7463  -29.4620   22.4976 C   0  0  0  0  0  0
  -18.0281  -28.1389   22.8486 C   0  0  0  0  0  0
  -24.1489  -36.7291   23.2638 C   0  0  0  0  0  0
  -25.9545  -30.7936   21.3781 C   0  0  0  0  0  0
  -26.0300  -29.4210   20.7243 C   0  0  0  0  0  0
  -27.2110  -28.6244   20.7278 C   0  0  0  0  0  0
  -26.0546  -26.9235   19.4493 C   0  0  0  0  0  0
  -24.8803  -27.6976   19.4666 C   0  0  0  0  0  0
  -23.6306  -29.8163   20.1635 C   0  0  0  0  0  0
  -25.4115  -36.3095   24.0335 C   0  0  1  0  0  0
  -20.5876  -28.3688   23.1308 C   0  0  2  0  0  0
  -20.6781  -26.9423   22.5419 C   0  0  0  0  0  0
  -19.5754  -26.6386   21.5227 C   0  0  0  0  0  0
  -18.1931  -26.7928   22.1634 C   0  0  0  0  0  0
  -19.1531  -28.8857   23.2885 C   0  0  0  0  0  0
  -18.9454  -30.1461   23.8898 C   0  0  0  0  0  0
  -17.6456  -30.6591   24.0569 C   0  0  0  0  0  0
  -25.9046  -34.9462   23.5118 C   0  0  0  0  0  0
  -16.5347  -29.9092   23.6331 C   0  0  0  0  0  0
  -16.7272  -28.6511   23.0349 C   0  0  0  0  0  0
  -26.4475  -31.6588   25.0723 C   0  0  0  0  0  0
  -25.3708  -31.3718   26.1452 C   0  0  0  0  0  0
  -27.0320  -30.3023   24.6150 C   0  0  0  0  0  0
  -27.6047  -32.4316   25.7477 C   0  0  0  0  0  0
  -27.5580  -37.1803   24.8470 C   0  0  0  0  0  0
  -21.4185  -29.3038   22.3710 N   0  0  0  0  0  0
  -26.4295  -37.3784   23.9405 N   0  0  0  0  0  0
  -24.6822  -31.0629   22.1000 N   0  0  0  0  0  0
  -23.4191  -28.8175   23.3063 O   0  0  0  0  0  0
  -28.3700  -26.5087   20.1987 O   0  0  0  0  0  0
  -26.5614  -34.8920   22.4689 O   0  0  0  0  0  0
  -23.5389  -32.1440   23.7362 O   0  0  0  0  0  0
  -30.8908  -19.0993   19.9917 C   0  0  0  0  0  0
  -30.7935  -20.5214   19.8361 C   0  0  0  0  0  0
  -28.4836  -20.4852   20.5609 C   0  0  0  0  0  0
  -29.7553  -18.3529   20.3863 C   0  0  0  0  0  0
  -28.5918  -19.0758   20.6819 C   0  0  0  0  0  0
  -29.5770  -21.2364   20.0673 C   0  0  0  0  0  0
  -27.4350  -18.1582   20.9086 C   0  0  0  0  0  0
  -27.9258  -16.8091   20.3500 C   0  0  0  0  0  0
  -29.4624  -16.8318   20.1753 C   0  0  2  0  0  0
  -29.3412  -22.6804   19.5049 C   0  0  0  0  0  0
  -29.1784  -23.9685   20.4124 C   0  0  0  0  0  0
  -28.3055  -25.1104   19.7332 C   0  0  0  0  0  0
  -29.9885  -15.6961   21.0056 N   0  0  0  0  0  0
  -31.4786  -12.4881   19.1614 H   0  0  0  0  0  0
  -30.3609  -11.3861   19.9020 H   0  0  0  0  0  0
  -29.7702  -11.7671   17.4885 H   0  0  0  0  0  0
  -29.6590  -13.4854   17.7641 H   0  0  0  0  0  0
  -27.8623  -11.2991   18.8678 H   0  0  0  0  0  0
  -27.3825  -12.5950   17.8035 H   0  0  0  0  0  0
  -27.6668  -14.2485   19.5236 H   0  0  0  0  0  0
  -28.7100  -12.0644   21.3953 H   0  0  0  0  0  0
  -28.4500  -13.7197   21.8559 H   0  0  0  0  0  0
  -25.2764   -9.5608   22.4799 H   0  0  0  0  0  0
  -23.9977   -7.4582   22.7488 H   0  0  0  0  0  0
  -21.0842   -8.8760   19.8935 H   0  0  0  0  0  0
  -22.3745  -10.9643   19.6171 H   0  0  0  0  0  0
  -21.1989   -7.6143   23.9731 H   0  0  0  0  0  0
  -21.1471   -6.0508   25.9090 H   0  0  0  0  0  0
  -22.0602   -2.7608   23.2830 H   0  0  0  0  0  0
  -22.4002  -11.9814   22.4874 H   0  0  0  0  0  0
  -21.1018  -13.1185   22.2639 H   0  0  0  0  0  0
  -24.5423  -15.7806   20.4584 H   0  0  0  0  0  0
  -26.1588  -15.6383   19.9858 H   0  0  0  0  0  0
  -26.7146  -32.5477   23.1114 H   0  0  0  0  0  0
  -25.0069  -33.9761   25.0452 H   0  0  0  0  0  0
  -22.7066  -31.2999   21.4048 H   0  0  0  0  0  0
  -23.3760  -35.9618   23.3319 H   0  0  0  0  0  0
  -24.3576  -36.8889   22.2048 H   0  0  0  0  0  0
  -23.7235  -37.6496   23.6646 H   0  0  0  0  0  0
  -26.0827  -31.5541   20.6069 H   0  0  0  0  0  0
  -26.8356  -30.8458   22.0054 H   0  0  0  0  0  0
  -28.0973  -28.9820   21.2336 H   0  0  0  0  0  0
  -25.9959  -25.9959   18.9034 H   0  0  0  0  0  0
  -23.9937  -27.3336   18.9660 H   0  0  0  0  0  0
  -23.7431  -30.5920   19.4053 H   0  0  0  0  0  0
  -22.7539  -29.2379   19.8660 H   0  0  0  0  0  0
  -25.1296  -36.1956   25.0829 H   0  0  0  0  0  0
  -20.9941  -28.3257   24.1443 H   0  0  0  0  0  0
  -20.5722  -26.2298   23.3614 H   0  0  0  0  0  0
  -21.6647  -26.7492   22.1190 H   0  0  0  0  0  0
  -19.6926  -25.6297   21.1262 H   0  0  0  0  0  0
  -19.6688  -27.3197   20.6757 H   0  0  0  0  0  0
  -17.4209  -26.6677   21.4032 H   0  0  0  0  0  0
  -18.0330  -26.0074   22.9035 H   0  0  0  0  0  0
  -19.7932  -30.7275   24.2270 H   0  0  0  0  0  0
  -17.5015  -31.6273   24.5172 H   0  0  0  0  0  0
  -15.5351  -30.2999   23.7651 H   0  0  0  0  0  0
  -15.8672  -28.0834   22.7060 H   0  0  0  0  0  0
  -24.5883  -30.7071   25.7769 H   0  0  0  0  0  0
  -24.8897  -32.2884   26.4878 H   0  0  0  0  0  0
  -25.8023  -30.8888   27.0229 H   0  0  0  0  0  0
  -26.2893  -29.6775   24.1173 H   0  0  0  0  0  0
  -27.4047  -29.7263   25.4629 H   0  0  0  0  0  0
  -27.8747  -30.4337   23.9358 H   0  0  0  0  0  0
  -27.2679  -33.3627   26.2052 H   0  0  0  0  0  0
  -28.3843  -32.6860   25.0280 H   0  0  0  0  0  0
  -28.0736  -31.8445   26.5386 H   0  0  0  0  0  0
  -28.2610  -38.0086   24.7513 H   0  0  0  0  0  0
  -28.1063  -36.2622   24.6310 H   0  0  0  0  0  0
  -27.2299  -37.1468   25.8872 H   0  0  0  0  0  0
  -20.9374  -29.8740   21.6897 H   0  0  0  0  0  0
  -26.0187  -38.2865   24.1396 H   0  0  0  0  0  0
  -31.7915  -18.5819   19.6910 H   0  0  0  0  0  0
  -31.6431  -21.0508   19.4242 H   0  0  0  0  0  0
  -27.5242  -20.9645   20.7060 H   0  0  0  0  0  0
  -26.5308  -18.5071   20.4098 H   0  0  0  0  0  0
  -27.2339  -18.0938   21.9782 H   0  0  0  0  0  0
  -27.4715  -16.6492   19.3706 H   0  0  0  0  0  0
  -27.6020  -16.0097   21.0148 H   0  0  0  0  0  0
  -29.7002  -16.6198   19.1301 H   0  0  0  0  0  0
  -28.4353  -22.5947   18.9018 H   0  0  0  0  0  0
  -30.1264  -22.8879   18.7770 H   0  0  0  0  0  0
  -30.1682  -24.3447   20.6741 H   0  0  0  0  0  0
  -28.7023  -23.6899   21.3528 H   0  0  0  0  0  0
  -27.2942  -24.7176   19.8147 H   0  0  0  0  0  0
  -28.5349  -25.1407   18.6683 H   0  0  0  0  0  0
  -29.3111  -15.4107   21.6959 H   0  0  0  0  0  0
  1 25  1  0  0  0
  1 30  2  0  0  0
  1 83  1  0  0  0
  2  3  1  0  0  0
  2 25  1  0  0  0
  2 84  1  0  0  0
  2 85  1  0  0  0
  3  4  1  0  0  0
  3 86  1  0  0  0
  3 87  1  0  0  0
  4  5  1  0  0  0
  4 88  1  0  0  0
  4 89  1  0  0  0
  5  6  1  0  0  0
  5 26  1  0  0  0
  5 90  1  0  0  0
  6 25  1  0  0  0
  6 91  1  0  0  0
  6 92  1  0  0  0
  7  8  2  0  0  0
  7 26  1  0  0  0
  7 29  1  0  0  0
  8  9  1  0  0  0
  8 22  1  0  0  0
  9 10  1  0  0  0
  9 27  2  0  0  0
 10 11  2  0  0  0
 10 15  1  0  0  0
 11 12  1  0  0  0
 11 93  1  0  0  0
 12 13  2  0  0  0
 12 94  1  0  0  0
 13 14  1  0  0  0
 13 31  1  0  0  0
 14 15  2  0  0  0
 14 95  1  0  0  0
 15 96  1  0  0  0
 16 17  2  0  0  0
 16 21  1  0  0  0
 16 31  1  0  0  0
 17 18  1  0  0  0
 17 97  1  0  0  0
 18 19  2  0  0  0
 18 98  1  0  0  0
 19 20  1  0  0  0
 19 24  1  0  0  0
 20 21  2  0  0  0
 20 99  1  0  0  0
 21 23  1  0  0  0
 22 28  1  0  0  0
 22 32  2  0  0  0
 26 27  1  0  0  0
 28100  1  0  0  0
 28101  1  0  0  0
 29102  1  0  0  0
 29103  1  0  0  0
 33 34  1  0  0  0
 33 66  1  0  0  0
 33 70  2  0  0  0
 34 36  1  0  0  0
 34 59  1  0  0  0
 34104  1  0  0  0
 35 44  2  0  0  0
 35 45  1  0  0  0
 35 68  1  0  0  0
 36 56  1  0  0  0
 36105  1  0  0  0
 37 39  1  0  0  0
 37 47  1  0  0  0
 37 66  1  0  0  0
 37106  1  0  0  0
 38 43  2  0  0  0
 38 46  1  0  0  0
 38 47  1  0  0  0
 39 64  1  0  0  0
 39 67  2  0  0  0
 40 52  1  0  0  0
 40 53  2  0  0  0
 40 58  1  0  0  0
 41107  1  0  0  0
 41108  1  0  0  0
 41109  1  0  0  0
 41 48  1  0  0  0
 42 43  1  0  0  0
 42 66  1  0  0  0
 42110  1  0  0  0
 42111  1  0  0  0
 43 44  1  0  0  0
 44112  1  0  0  0
 45 46  2  0  0  0
 45113  1  0  0  0
 46114  1  0  0  0
 47115  1  0  0  0
 47116  1  0  0  0
 48 56  1  0  0  0
 48 65  1  0  0  0
 48117  1  0  0  0
 49 50  1  0  0  0
 49 53  1  0  0  0
 49 64  1  0  0  0
 49118  1  0  0  0
 50 51  1  0  0  0
 50119  1  0  0  0
 50120  1  0  0  0
 51 52  1  0  0  0
 51121  1  0  0  0
 51122  1  0  0  0
 52123  1  0  0  0
 52124  1  0  0  0
 53 54  1  0  0  0
 54 55  2  0  0  0
 54125  1  0  0  0
 55 57  1  0  0  0
 55126  1  0  0  0
 56 69  2  0  0  0
 57 58  2  0  0  0
 57127  1  0  0  0
 58128  1  0  0  0
 59 60  1  0  0  0
 59 61  1  0  0  0
 59 62  1  0  0  0
 60129  1  0  0  0
 60130  1  0  0  0
 60131  1  0  0  0
 61132  1  0  0  0
 61133  1  0  0  0
 61134  1  0  0  0
 62135  1  0  0  0
 62136  1  0  0  0
 62137  1  0  0  0
 63 65  1  0  0  0
 63138  1  0  0  0
 63139  1  0  0  0
 63140  1  0  0  0
 64141  1  0  0  0
 65142  1  0  0  0
 68 82  1  0  0  0
 71 72  2  0  0  0
 71 74  1  0  0  0
 71143  1  0  0  0
 72 76  1  0  0  0
 72144  1  0  0  0
 73 75  1  0  0  0
 73 76  2  0  0  0
 73145  1  0  0  0
 74 75  2  0  0  0
 74 79  1  0  0  0
 75 77  1  0  0  0
 76 80  1  0  0  0
 77 78  1  0  0  0
 77146  1  0  0  0
 77147  1  0  0  0
 78 79  1  0  0  0
 78148  1  0  0  0
 78149  1  0  0  0
 79 83  1  0  0  0
 79150  1  0  0  0
 80 81  1  0  0  0
 80151  1  0  0  0
 80152  1  0  0  0
 81 82  1  0  0  0
 81153  1  0  0  0
 81154  1  0  0  0
 82155  1  0  0  0
 82156  1  0  0  0
 83157  1  0  0  0
M  ISO  4   1 100  68 101  82 101  83 100
M  END
> <chiral flag>
0

> <version>
0

> <s_m_source_file>
/data/baiqing/PycharmProjects/Reinvent-master-3.2/result/LINK_invent/BTK/process_docking_weight1_custom_sum_contain_oxygen_bond_distance_aromatic_linkinvent_7_9_3/rearranged_h_0139.sdf

> <i_m_source_file_index>
45

> <r_mmod_Potential_Energy-OPLS-2005>
132.187881469727

> <r_mmod_Stretch_Energy-OPLS-2005>
71.7318725585938

> <r_mmod_Bend_Energy-OPLS-2005>
196.350891113281

> <r_mmod_Torsional_Energy-OPLS-2005>
279.9931640625

> <r_mmod_Improper_Torsional_Energy-OPLS-2005>
14.5309829711914

> <r_mmod_Van_der_Waal_Energy-OPLS-2005>
144.916259765625

> <r_mmod_Electrostatic_Energy-OPLS-2005>
-405.115905761719

> <r_mmod_Solvation_Energy-OPLS-2005>
-214.630813598633

> <b_mmod_Minimization_Converged-OPLS-2005>
0

> <r_mmod_RMS_Derivative-OPLS-2005>
2.02840423583984

$$$$
45
                    3D
 Structure written by MMmdl.
165173  0  0  1  0            999 V2000
  -30.7152  -14.3597   20.6550 C   0  0  0  0  0  0
  -30.4294  -12.2639   19.3963 C   0  0  0  0  0  0
  -29.4928  -12.5190   18.1964 C   0  0  0  0  0  0
  -28.0129  -12.3864   18.6079 C   0  0  0  0  0  0
  -27.6742  -13.1902   19.8914 C   0  0  2  0  0  0
  -28.7064  -12.8826   20.9992 C   0  0  0  0  0  0
  -25.2632  -13.8127   20.5646 C   0  0  0  0  0  0
  -24.1849  -13.0439   20.9118 C   0  0  0  0  0  0
  -24.6384  -11.6891   20.8699 C   0  0  0  0  0  0
  -23.9047  -10.4287   21.0398 C   0  0  0  0  0  0
  -24.3609   -9.4201   21.9183 C   0  0  0  0  0  0
  -23.6289   -8.2232   22.0755 C   0  0  0  0  0  0
  -22.4267   -8.0281   21.3546 C   0  0  0  0  0  0
  -21.9896   -9.0250   20.4641 C   0  0  0  0  0  0
  -22.7220  -10.2133   20.3048 C   0  0  0  0  0  0
  -21.6841   -6.0741   22.5284 C   0  0  0  0  0  0
  -21.4012   -6.5646   23.8219 C   0  0  0  0  0  0
  -21.3656   -5.6802   24.9175 C   0  0  0  0  0  0
  -21.6027   -4.3063   24.7232 C   0  0  0  0  0  0
  -21.8816   -3.8159   23.4353 C   0  0  0  0  0  0
  -21.9193   -4.6970   22.3407 C   0  0  0  0  0  0
  -22.7888  -13.5246   21.1842 C   0  0  0  0  0  0
  -22.1659   -4.2157   21.0987 F   0  0  0  0  0  0
  -21.5617   -3.4546   25.7744 F   0  0  0  0  0  0
  -30.0557  -13.1882   20.4751 N   0  0  0  0  0  0
  -26.3076  -12.9277   20.3398 N   0  0  0  0  0  0
  -25.9303  -11.6443   20.5718 N   0  0  0  0  0  0
  -22.0553  -12.8219   22.0403 N   0  0  0  0  0  0
  -25.4410  -15.1834   20.4081 N   0  0  0  0  0  0
  -31.7498  -14.6736   20.0561 O   0  0  0  0  0  0
  -21.6627   -6.8881   21.4247 O   0  0  0  0  0  0
  -22.3555  -14.5573   20.6734 O   0  0  0  0  0  0
  -24.6101  -31.8708   23.2131 C   0  0  0  0  0  0
  -25.9009  -32.4839   23.8423 C   0  0  1  0  0  0
  -27.2458  -27.4747   20.0713 C   0  0  0  0  0  0
  -25.5885  -33.8640   24.2360 N   0  0  0  0  0  0
  -23.3966  -30.4937   21.5530 C   0  0  2  0  0  0
  -24.8421  -28.9595   20.1200 C   0  0  0  0  0  0
  -22.7376  -29.4681   22.5024 C   0  0  0  0  0  0
  -18.0270  -28.1387   22.8462 C   0  0  0  0  0  0
  -24.1481  -36.7329   23.2639 C   0  0  0  0  0  0
  -25.9207  -30.8428   21.3632 C   0  0  0  0  0  0
  -25.9967  -29.4756   20.7197 C   0  0  0  0  0  0
  -27.1928  -28.7309   20.7094 C   0  0  0  0  0  0
  -26.0697  -26.9627   19.4741 C   0  0  0  0  0  0
  -24.8695  -27.6962   19.5045 C   0  0  0  0  0  0
  -23.6026  -29.8219   20.1688 C   0  0  0  0  0  0
  -25.4102  -36.3131   24.0347 C   0  0  1  0  0  0
  -20.5856  -28.3675   23.1371 C   0  0  2  0  0  0
  -20.6749  -26.9406   22.5516 C   0  0  0  0  0  0
  -19.5804  -26.6421   21.5217 C   0  0  0  0  0  0
  -18.1944  -26.7957   22.1552 C   0  0  0  0  0  0
  -19.1506  -28.8838   23.2920 C   0  0  0  0  0  0
  -18.9429  -30.1429   23.8950 C   0  0  0  0  0  0
  -17.6430  -30.6577   24.0567 C   0  0  0  0  0  0
  -25.9019  -34.9489   23.5150 C   0  0  0  0  0  0
  -16.5331  -29.9088   23.6310 C   0  0  0  0  0  0
  -16.7255  -28.6509   23.0309 C   0  0  0  0  0  0
  -26.4462  -31.6621   25.0745 C   0  0  0  0  0  0
  -25.3740  -31.3708   26.1501 C   0  0  0  0  0  0
  -27.0302  -30.3078   24.6099 C   0  0  0  0  0  0
  -27.6059  -32.4333   25.7491 C   0  0  0  0  0  0
  -27.5584  -37.1813   24.8466 C   0  0  0  0  0  0
  -21.4103  -29.3041   22.3764 N   0  0  0  0  0  0
  -26.4302  -37.3805   23.9405 N   0  0  0  0  0  0
  -24.6611  -31.0829   22.1018 N   0  0  0  0  0  0
  -23.4167  -28.8240   23.3069 O   0  0  0  0  0  0
  -28.4615  -26.8300   20.0642 O   0  0  0  0  0  0
  -26.5577  -34.8931   22.4702 O   0  0  0  0  0  0
  -23.5304  -32.1466   23.7531 O   0  0  0  0  0  0
  -26.5393  -21.7384   18.8933 C   0  0  0  0  0  0
  -26.9164  -22.2044   21.2558 C   0  0  0  0  0  0
  -26.4192  -20.3643   19.1755 C   0  0  0  0  0  0
  -26.7776  -20.8356   21.5564 C   0  0  0  0  0  0
  -26.5815  -19.9063   20.5061 C   0  0  0  0  0  0
  -26.8364  -22.6500   19.9218 C   0  0  0  0  0  0
  -26.1428  -19.4071   18.0277 C   0  0  0  0  0  0
  -26.8989  -20.3821   23.0023 C   0  0  0  0  0  0
  -28.5392  -17.0953   21.5228 C   0  0  0  0  0  0
  -28.0152  -18.0657   20.4610 C   0  0  0  0  0  0
  -29.9850  -16.6416   21.2421 C   0  0  0  0  0  0
  -28.6836  -25.7186   19.2036 C   0  0  0  0  0  0
  -28.3787  -24.3942   19.9126 C   0  0  0  0  0  0
  -26.6703  -18.5370   20.7742 N   0  0  0  0  0  0
  -30.0816  -15.2072   21.4669 N   0  0  0  0  0  0
  -27.0644  -23.9571   19.5951 O   0  0  0  0  0  0
  -31.4723  -12.3782   19.0960 H   0  0  0  0  0  0
  -30.3382  -11.2333   19.7431 H   0  0  0  0  0  0
  -29.7170  -11.8185   17.3910 H   0  0  0  0  0  0
  -29.6724  -13.5179   17.7929 H   0  0  0  0  0  0
  -27.8049  -11.3275   18.7697 H   0  0  0  0  0  0
  -27.3661  -12.7018   17.7884 H   0  0  0  0  0  0
  -27.7459  -14.2493   19.6438 H   0  0  0  0  0  0
  -28.6604  -11.8258   21.2652 H   0  0  0  0  0  0
  -28.4511  -13.4084   21.9197 H   0  0  0  0  0  0
  -25.2767   -9.5667   22.4741 H   0  0  0  0  0  0
  -24.0000   -7.4613   22.7471 H   0  0  0  0  0  0
  -21.0826   -8.8759   19.8945 H   0  0  0  0  0  0
  -22.3689  -10.9669   19.6142 H   0  0  0  0  0  0
  -21.2000   -7.6158   23.9716 H   0  0  0  0  0  0
  -21.1481   -6.0539   25.9076 H   0  0  0  0  0  0
  -22.0604   -2.7625   23.2850 H   0  0  0  0  0  0
  -22.4185  -11.9841   22.4710 H   0  0  0  0  0  0
  -21.1188  -13.1240   22.2681 H   0  0  0  0  0  0
  -24.6982  -15.8575   20.5523 H   0  0  0  0  0  0
  -26.3135  -15.6265   20.1491 H   0  0  0  0  0  0
  -26.7091  -32.5564   23.1205 H   0  0  0  0  0  0
  -25.0043  -33.9821   25.0514 H   0  0  0  0  0  0
  -22.6853  -31.3094   21.4102 H   0  0  0  0  0  0
  -23.3744  -35.9662   23.3320 H   0  0  0  0  0  0
  -24.3578  -36.8912   22.2049 H   0  0  0  0  0  0
  -23.7231  -37.6541   23.6633 H   0  0  0  0  0  0
  -26.0210  -31.6036   20.5875 H   0  0  0  0  0  0
  -26.8148  -30.9057   21.9730 H   0  0  0  0  0  0
  -28.0873  -29.1213   21.1745 H   0  0  0  0  0  0
  -26.0541  -26.0096   18.9708 H   0  0  0  0  0  0
  -23.9798  -27.2920   19.0418 H   0  0  0  0  0  0
  -23.7066  -30.5909   19.4024 H   0  0  0  0  0  0
  -22.7298  -29.2341   19.8759 H   0  0  0  0  0  0
  -25.1275  -36.2018   25.0845 H   0  0  0  0  0  0
  -20.9937  -28.3249   24.1500 H   0  0  0  0  0  0
  -21.6668  -26.7382   22.1431 H   0  0  0  0  0  0
  -20.5506  -26.2295   23.3706 H   0  0  0  0  0  0
  -19.7006  -25.6351   21.1216 H   0  0  0  0  0  0
  -19.6833  -27.3246   20.6770 H   0  0  0  0  0  0
  -17.4250  -26.6723   21.3905 H   0  0  0  0  0  0
  -18.0290  -26.0084   22.8912 H   0  0  0  0  0  0
  -19.7881  -30.7229   24.2392 H   0  0  0  0  0  0
  -17.4980  -31.6250   24.5183 H   0  0  0  0  0  0
  -15.5339  -30.2976   23.7653 H   0  0  0  0  0  0
  -15.8657  -28.0834   22.7001 H   0  0  0  0  0  0
  -24.5898  -30.7086   25.7823 H   0  0  0  0  0  0
  -24.8956  -32.2855   26.5007 H   0  0  0  0  0  0
  -25.8103  -30.8823   27.0223 H   0  0  0  0  0  0
  -26.2846  -29.6831   24.1164 H   0  0  0  0  0  0
  -27.4100  -29.7322   25.4551 H   0  0  0  0  0  0
  -27.8666  -30.4430   23.9241 H   0  0  0  0  0  0
  -27.2705  -33.3612   26.2135 H   0  0  0  0  0  0
  -28.3827  -32.6917   25.0282 H   0  0  0  0  0  0
  -28.0784  -31.8415   26.5338 H   0  0  0  0  0  0
  -28.2614  -38.0097   24.7500 H   0  0  0  0  0  0
  -28.1062  -36.2627   24.6308 H   0  0  0  0  0  0
  -27.2296  -37.1482   25.8867 H   0  0  0  0  0  0
  -20.9243  -29.8750   21.6996 H   0  0  0  0  0  0
  -26.0202  -38.2894   24.1386 H   0  0  0  0  0  0
  -26.4566  -22.0890   17.8745 H   0  0  0  0  0  0
  -27.1107  -22.9118   22.0504 H   0  0  0  0  0  0
  -27.0742  -18.9791   17.6598 H   0  0  0  0  0  0
  -25.6508  -19.9159   17.1979 H   0  0  0  0  0  0
  -25.4928  -18.5909   18.3456 H   0  0  0  0  0  0
  -26.0523  -19.7550   23.2821 H   0  0  0  0  0  0
  -26.9244  -21.2314   23.6853 H   0  0  0  0  0  0
  -27.8135  -19.8089   23.1486 H   0  0  0  0  0  0
  -28.5077  -17.5589   22.5095 H   0  0  0  0  0  0
  -27.8644  -16.2389   21.5672 H   0  0  0  0  0  0
  -27.9948  -17.5729   19.4880 H   0  0  0  0  0  0
  -28.7185  -18.8963   20.3660 H   0  0  0  0  0  0
  -30.2611  -16.8815   20.2114 H   0  0  0  0  0  0
  -30.6895  -17.1761   21.8809 H   0  0  0  0  0  0
  -28.1898  -25.8107   18.2343 H   0  0  0  0  0  0
  -29.7507  -25.7299   18.9823 H   0  0  0  0  0  0
  -28.5231  -24.4939   20.9899 H   0  0  0  0  0  0
  -29.0938  -23.6459   19.5595 H   0  0  0  0  0  0
  -26.3966  -18.3022   21.7219 H   0  0  0  0  0  0
  -29.3298  -14.7946   21.9992 H   0  0  0  0  0  0
  1 25  1  0  0  0
  1 30  2  0  0  0
  1 85  1  0  0  0
  2  3  1  0  0  0
  2 25  1  0  0  0
  2 87  1  0  0  0
  2 88  1  0  0  0
  3  4  1  0  0  0
  3 89  1  0  0  0
  3 90  1  0  0  0
  4  5  1  0  0  0
  4 91  1  0  0  0
  4 92  1  0  0  0
  5  6  1  0  0  0
  5 26  1  0  0  0
  5 93  1  0  0  0
  6 25  1  0  0  0
  6 94  1  0  0  0
  6 95  1  0  0  0
  7  8  2  0  0  0
  7 26  1  0  0  0
  7 29  1  0  0  0
  8  9  1  0  0  0
  8 22  1  0  0  0
  9 10  1  0  0  0
  9 27  2  0  0  0
 10 11  2  0  0  0
 10 15  1  0  0  0
 11 12  1  0  0  0
 11 96  1  0  0  0
 12 13  2  0  0  0
 12 97  1  0  0  0
 13 14  1  0  0  0
 13 31  1  0  0  0
 14 15  2  0  0  0
 14 98  1  0  0  0
 15 99  1  0  0  0
 16 17  2  0  0  0
 16 21  1  0  0  0
 16 31  1  0  0  0
 17 18  1  0  0  0
 17100  1  0  0  0
 18 19  2  0  0  0
 18101  1  0  0  0
 19 20  1  0  0  0
 19 24  1  0  0  0
 20 21  2  0  0  0
 20102  1  0  0  0
 21 23  1  0  0  0
 22 28  1  0  0  0
 22 32  2  0  0  0
 26 27  1  0  0  0
 28103  1  0  0  0
 28104  1  0  0  0
 29105  1  0  0  0
 29106  1  0  0  0
 33 34  1  0  0  0
 33 66  1  0  0  0
 33 70  2  0  0  0
 34 36  1  0  0  0
 34 59  1  0  0  0
 34107  1  0  0  0
 35 44  2  0  0  0
 35 45  1  0  0  0
 35 68  1  0  0  0
 36 56  1  0  0  0
 36108  1  0  0  0
 37 39  1  0  0  0
 37 47  1  0  0  0
 37 66  1  0  0  0
 37109  1  0  0  0
 38 43  2  0  0  0
 38 46  1  0  0  0
 38 47  1  0  0  0
 39 64  1  0  0  0
 39 67  2  0  0  0
 40 52  1  0  0  0
 40 53  2  0  0  0
 40 58  1  0  0  0
 41110  1  0  0  0
 41111  1  0  0  0
 41112  1  0  0  0
 41 48  1  0  0  0
 42 43  1  0  0  0
 42 66  1  0  0  0
 42113  1  0  0  0
 42114  1  0  0  0
 43 44  1  0  0  0
 44115  1  0  0  0
 45 46  2  0  0  0
 45116  1  0  0  0
 46117  1  0  0  0
 47118  1  0  0  0
 47119  1  0  0  0
 48 56  1  0  0  0
 48 65  1  0  0  0
 48120  1  0  0  0
 49 50  1  0  0  0
 49 53  1  0  0  0
 49 64  1  0  0  0
 49121  1  0  0  0
 50 51  1  0  0  0
 50122  1  0  0  0
 50123  1  0  0  0
 51 52  1  0  0  0
 51124  1  0  0  0
 51125  1  0  0  0
 52126  1  0  0  0
 52127  1  0  0  0
 53 54  1  0  0  0
 54 55  2  0  0  0
 54128  1  0  0  0
 55 57  1  0  0  0
 55129  1  0  0  0
 56 69  2  0  0  0
 57 58  2  0  0  0
 57130  1  0  0  0
 58131  1  0  0  0
 59 60  1  0  0  0
 59 61  1  0  0  0
 59 62  1  0  0  0
 60132  1  0  0  0
 60133  1  0  0  0
 60134  1  0  0  0
 61135  1  0  0  0
 61136  1  0  0  0
 61137  1  0  0  0
 62138  1  0  0  0
 62139  1  0  0  0
 62140  1  0  0  0
 63 65  1  0  0  0
 63141  1  0  0  0
 63142  1  0  0  0
 63143  1  0  0  0
 64144  1  0  0  0
 65145  1  0  0  0
 68 82  1  0  0  0
 71 73  2  0  0  0
 71 76  1  0  0  0
 71146  1  0  0  0
 72 74  1  0  0  0
 72 76  2  0  0  0
 72147  1  0  0  0
 73 75  1  0  0  0
 73 77  1  0  0  0
 74 75  2  0  0  0
 74 78  1  0  0  0
 75 84  1  0  0  0
 76 86  1  0  0  0
 77148  1  0  0  0
 77149  1  0  0  0
 77150  1  0  0  0
 78151  1  0  0  0
 78152  1  0  0  0
 78153  1  0  0  0
 79 80  1  0  0  0
 79 81  1  0  0  0
 79154  1  0  0  0
 79155  1  0  0  0
 80 84  1  0  0  0
 80156  1  0  0  0
 80157  1  0  0  0
 81 85  1  0  0  0
 81158  1  0  0  0
 81159  1  0  0  0
 82 83  1  0  0  0
 82160  1  0  0  0
 82161  1  0  0  0
 83 86  1  0  0  0
 83162  1  0  0  0
 83163  1  0  0  0
 84164  1  0  0  0
 85165  1  0  0  0
M  ISO  4   1 100  68 101  82 101  85 100
M  END
> <chiral flag>
0

> <version>
0

> <s_m_source_file>
/data/baiqing/PycharmProjects/Reinvent-master-3.2/result/LINK_invent/BTK/process_docking_weight1_custom_sum_contain_oxygen_bond_distance_aromatic_linkinvent_7_9_3/rearranged_h_0139.sdf

> <i_m_source_file_index>
46

> <r_mmod_Potential_Energy-OPLS-2005>
-88.9959564208984

> <r_mmod_Stretch_Energy-OPLS-2005>
31.6094551086426

> <r_mmod_Bend_Energy-OPLS-2005>
95.7919082641602

> <r_mmod_Torsional_Energy-OPLS-2005>
255.860382080078

> <r_mmod_Improper_Torsional_Energy-OPLS-2005>
10.4192361831665

> <r_mmod_Van_der_Waal_Energy-OPLS-2005>
157.773025512695

> <r_mmod_Electrostatic_Energy-OPLS-2005>
-439.239807128906

> <r_mmod_Solvation_Energy-OPLS-2005>
-210.094345092773

> <b_mmod_Minimization_Converged-OPLS-2005>
0

> <r_mmod_RMS_Derivative-OPLS-2005>
2.43249344825745

$$$$
46
                    3D
 Structure written by MMmdl.
161170  0  0  1  0            999 V2000
  -30.7017  -14.4784   20.5277 C   0  0  0  0  0  0
  -30.4181  -12.2999   19.4288 C   0  0  0  0  0  0
  -29.4953  -12.5153   18.2098 C   0  0  0  0  0  0
  -28.0170  -12.3703   18.6241 C   0  0  0  0  0  0
  -27.6624  -13.2132   19.8795 C   0  0  2  0  0  0
  -28.7096  -13.0036   21.0000 C   0  0  0  0  0  0
  -25.2587  -13.8172   20.5734 C   0  0  0  0  0  0
  -24.1817  -13.0430   20.9189 C   0  0  0  0  0  0
  -24.6384  -11.6917   20.8762 C   0  0  0  0  0  0
  -23.9054  -10.4280   21.0406 C   0  0  0  0  0  0
  -24.3598   -9.4191   21.9174 C   0  0  0  0  0  0
  -23.6278   -8.2228   22.0747 C   0  0  0  0  0  0
  -22.4261   -8.0269   21.3526 C   0  0  0  0  0  0
  -21.9882   -9.0252   20.4637 C   0  0  0  0  0  0
  -22.7227  -10.2128   20.3056 C   0  0  0  0  0  0
  -21.6836   -6.0722   22.5280 C   0  0  0  0  0  0
  -21.4009   -6.5631   23.8218 C   0  0  0  0  0  0
  -21.3661   -5.6778   24.9177 C   0  0  0  0  0  0
  -21.6057   -4.3047   24.7226 C   0  0  0  0  0  0
  -21.8819   -3.8135   23.4345 C   0  0  0  0  0  0
  -21.9185   -4.6949   22.3398 C   0  0  0  0  0  0
  -22.7840  -13.5228   21.1832 C   0  0  0  0  0  0
  -22.1655   -4.2146   21.0976 F   0  0  0  0  0  0
  -21.5625   -3.4536   25.7741 F   0  0  0  0  0  0
  -30.0399  -13.2943   20.4449 N   0  0  0  0  0  0
  -26.3025  -12.9349   20.3419 N   0  0  0  0  0  0
  -25.9313  -11.6522   20.5809 N   0  0  0  0  0  0
  -22.0473  -12.8220   22.0414 N   0  0  0  0  0  0
  -25.4306  -15.1891   20.4127 N   0  0  0  0  0  0
  -31.8362  -14.6485   20.0773 O   0  0  0  0  0  0
  -21.6613   -6.8869   21.4243 O   0  0  0  0  0  0
  -22.3540  -14.5529   20.6686 O   0  0  0  0  0  0
  -24.6131  -31.8685   23.2109 C   0  0  0  0  0  0
  -25.9017  -32.4820   23.8402 C   0  0  1  0  0  0
  -27.2372  -27.4471   20.0926 C   0  0  0  0  0  0
  -25.5882  -33.8630   24.2324 N   0  0  0  0  0  0
  -23.4014  -30.4902   21.5513 C   0  0  2  0  0  0
  -24.8496  -28.9535   20.1197 C   0  0  0  0  0  0
  -22.7396  -29.4654   22.5001 C   0  0  0  0  0  0
  -18.0268  -28.1372   22.8491 C   0  0  0  0  0  0
  -24.1495  -36.7332   23.2641 C   0  0  0  0  0  0
  -25.9292  -30.8351   21.3644 C   0  0  0  0  0  0
  -26.0081  -29.4694   20.7148 C   0  0  0  0  0  0
  -27.2052  -28.7192   20.7064 C   0  0  0  0  0  0
  -26.0677  -26.9423   19.4899 C   0  0  0  0  0  0
  -24.8728  -27.6886   19.5046 C   0  0  0  0  0  0
  -23.6104  -29.8198   20.1670 C   0  0  0  0  0  0
  -25.4116  -36.3123   24.0334 C   0  0  1  0  0  0
  -20.5849  -28.3656   23.1327 C   0  0  2  0  0  0
  -20.6761  -26.9400   22.5421 C   0  0  0  0  0  0
  -19.5744  -26.6383   21.5212 C   0  0  0  0  0  0
  -18.1922  -26.7919   22.1623 C   0  0  0  0  0  0
  -19.1516  -28.8836   23.2899 C   0  0  0  0  0  0
  -18.9444  -30.1438   23.8910 C   0  0  0  0  0  0
  -17.6449  -30.6579   24.0569 C   0  0  0  0  0  0
  -25.9029  -34.9479   23.5127 C   0  0  0  0  0  0
  -16.5339  -29.9080   23.6324 C   0  0  0  0  0  0
  -16.7260  -28.6499   23.0344 C   0  0  0  0  0  0
  -26.4464  -31.6600   25.0729 C   0  0  0  0  0  0
  -25.3734  -31.3714   26.1479 C   0  0  0  0  0  0
  -27.0284  -30.3044   24.6091 C   0  0  0  0  0  0
  -27.6041  -32.4323   25.7491 C   0  0  0  0  0  0
  -27.5573  -37.1837   24.8473 C   0  0  0  0  0  0
  -21.4133  -29.3021   22.3737 N   0  0  0  0  0  0
  -26.4310  -37.3788   23.9374 N   0  0  0  0  0  0
  -24.6653  -31.0777   22.1006 N   0  0  0  0  0  0
  -23.4178  -28.8199   23.3037 O   0  0  0  0  0  0
  -28.3985  -26.7118   20.0512 O   0  0  0  0  0  0
  -26.5593  -34.8928   22.4694 O   0  0  0  0  0  0
  -23.5323  -32.1444   23.7500 O   0  0  0  0  0  0
  -29.2560  -20.2922   21.7985 C   0  0  0  0  0  0
  -29.2439  -21.6885   21.6024 C   0  0  0  0  0  0
  -29.3880  -21.3372   19.2153 C   0  0  0  0  0  0
  -29.3831  -19.9310   19.3929 C   0  0  0  0  0  0
  -29.3004  -19.3919   20.7089 C   0  0  0  0  0  0
  -29.2660  -22.2300   20.3007 C   0  0  0  0  0  0
  -28.5116  -19.3541   17.0051 C   0  0  0  0  0  0
  -28.3986  -18.0660   17.7800 C   0  0  0  0  0  0
  -29.4544  -19.0844   18.1554 C   0  0  0  0  0  0
  -29.1396  -17.8884   21.0099 C   0  0  0  0  0  0
  -30.2652  -16.9242   20.5534 C   0  0  0  0  0  0
  -28.5390  -25.7444   21.0977 C   0  0  0  0  0  0
  -28.1311  -24.3079   20.6977 C   0  0  0  0  0  0
  -29.9615  -15.5293   20.9201 N   0  0  0  0  0  0
  -29.1954  -23.5875   20.0532 O   0  0  0  0  0  0
  -31.4672  -12.3694   19.1425 H   0  0  0  0  0  0
  -30.2853  -11.2952   19.8350 H   0  0  0  0  0  0
  -29.7361  -11.8006   17.4203 H   0  0  0  0  0  0
  -29.6621  -13.5085   17.7880 H   0  0  0  0  0  0
  -27.8338  -11.3125   18.8284 H   0  0  0  0  0  0
  -27.3605  -12.6376   17.7953 H   0  0  0  0  0  0
  -27.6969  -14.2594   19.5731 H   0  0  0  0  0  0
  -28.4883  -13.6137   21.8772 H   0  0  0  0  0  0
  -28.6864  -11.9722   21.3531 H   0  0  0  0  0  0
  -25.2739   -9.5681   22.4745 H   0  0  0  0  0  0
  -23.9998   -7.4613   22.7453 H   0  0  0  0  0  0
  -21.0801   -8.8766   19.8939 H   0  0  0  0  0  0
  -22.3670  -10.9664   19.6171 H   0  0  0  0  0  0
  -21.2010   -7.6150   23.9733 H   0  0  0  0  0  0
  -21.1478   -6.0505   25.9084 H   0  0  0  0  0  0
  -22.0594   -2.7609   23.2847 H   0  0  0  0  0  0
  -22.4060  -11.9873   22.4811 H   0  0  0  0  0  0
  -21.1095  -13.1286   22.2594 H   0  0  0  0  0  0
  -24.6659  -15.8462   20.5223 H   0  0  0  0  0  0
  -26.2802  -15.6220   20.0777 H   0  0  0  0  0  0
  -26.7095  -32.5553   23.1176 H   0  0  0  0  0  0
  -25.0037  -33.9805   25.0469 H   0  0  0  0  0  0
  -22.6894  -31.3061   21.4107 H   0  0  0  0  0  0
  -23.3726  -35.9696   23.3360 H   0  0  0  0  0  0
  -24.3572  -36.8898   22.2042 H   0  0  0  0  0  0
  -23.7291  -37.6575   23.6624 H   0  0  0  0  0  0
  -26.0368  -31.5975   20.5925 H   0  0  0  0  0  0
  -26.8188  -30.8926   21.9793 H   0  0  0  0  0  0
  -28.1038  -29.1142   21.1595 H   0  0  0  0  0  0
  -26.0810  -25.9807   18.9975 H   0  0  0  0  0  0
  -23.9830  -27.2878   19.0384 H   0  0  0  0  0  0
  -23.7177  -30.5940   19.4064 H   0  0  0  0  0  0
  -22.7364  -29.2371   19.8725 H   0  0  0  0  0  0
  -25.1302  -36.2006   25.0828 H   0  0  0  0  0  0
  -20.9941  -28.3223   24.1443 H   0  0  0  0  0  0
  -20.5664  -26.2269   23.3606 H   0  0  0  0  0  0
  -21.6635  -26.7444   22.1212 H   0  0  0  0  0  0
  -19.6911  -25.6296   21.1235 H   0  0  0  0  0  0
  -19.6685  -27.3204   20.6749 H   0  0  0  0  0  0
  -17.4192  -26.6660   21.4026 H   0  0  0  0  0  0
  -18.0321  -26.0056   22.9016 H   0  0  0  0  0  0
  -19.7922  -30.7244   24.2296 H   0  0  0  0  0  0
  -17.5005  -31.6267   24.5160 H   0  0  0  0  0  0
  -15.5340  -30.2993   23.7636 H   0  0  0  0  0  0
  -15.8657  -28.0828   22.7045 H   0  0  0  0  0  0
  -24.5884  -30.7090   25.7819 H   0  0  0  0  0  0
  -24.8951  -32.2877   26.4947 H   0  0  0  0  0  0
  -25.8082  -30.8868   27.0224 H   0  0  0  0  0  0
  -26.2824  -29.6817   24.1142 H   0  0  0  0  0  0
  -27.4054  -29.7269   25.4537 H   0  0  0  0  0  0
  -27.8660  -30.4363   23.9239 H   0  0  0  0  0  0
  -27.2643  -33.3590   26.2126 H   0  0  0  0  0  0
  -28.3818  -32.6934   25.0304 H   0  0  0  0  0  0
  -28.0742  -31.8416   26.5362 H   0  0  0  0  0  0
  -28.2659  -38.0064   24.7412 H   0  0  0  0  0  0
  -28.1005  -36.2590   24.6446 H   0  0  0  0  0  0
  -27.2273  -37.1669   25.8878 H   0  0  0  0  0  0
  -20.9296  -29.8758   21.6976 H   0  0  0  0  0  0
  -26.0218  -38.2891   24.1296 H   0  0  0  0  0  0
  -29.1921  -19.9191   22.8120 H   0  0  0  0  0  0
  -29.2076  -22.3373   22.4654 H   0  0  0  0  0  0
  -29.4512  -21.7398   18.2142 H   0  0  0  0  0  0
  -27.7244  -20.0917   17.1508 H   0  0  0  0  0  0
  -28.9089  -19.2858   15.9941 H   0  0  0  0  0  0
  -28.7186  -17.1661   17.2590 H   0  0  0  0  0  0
  -27.5307  -17.9499   18.4257 H   0  0  0  0  0  0
  -30.4917  -18.8846   17.8947 H   0  0  0  0  0  0
  -29.0304  -17.7698   22.0873 H   0  0  0  0  0  0
  -28.1866  -17.5724   20.5886 H   0  0  0  0  0  0
  -30.3735  -16.9562   19.4696 H   0  0  0  0  0  0
  -31.2271  -17.2201   20.9747 H   0  0  0  0  0  0
  -29.5689  -25.7477   21.4491 H   0  0  0  0  0  0
  -27.9380  -26.0495   21.9552 H   0  0  0  0  0  0
  -27.2596  -24.3220   20.0451 H   0  0  0  0  0  0
  -27.7954  -23.8031   21.6026 H   0  0  0  0  0  0
  -29.0490  -15.3263   21.2988 H   0  0  0  0  0  0
  1 25  1  0  0  0
  1 30  2  0  0  0
  1 84  1  0  0  0
  2  3  1  0  0  0
  2 25  1  0  0  0
  2 86  1  0  0  0
  2 87  1  0  0  0
  3  4  1  0  0  0
  3 88  1  0  0  0
  3 89  1  0  0  0
  4  5  1  0  0  0
  4 90  1  0  0  0
  4 91  1  0  0  0
  5  6  1  0  0  0
  5 26  1  0  0  0
  5 92  1  0  0  0
  6 25  1  0  0  0
  6 93  1  0  0  0
  6 94  1  0  0  0
  7  8  2  0  0  0
  7 26  1  0  0  0
  7 29  1  0  0  0
  8  9  1  0  0  0
  8 22  1  0  0  0
  9 10  1  0  0  0
  9 27  2  0  0  0
 10 11  2  0  0  0
 10 15  1  0  0  0
 11 12  1  0  0  0
 11 95  1  0  0  0
 12 13  2  0  0  0
 12 96  1  0  0  0
 13 14  1  0  0  0
 13 31  1  0  0  0
 14 15  2  0  0  0
 14 97  1  0  0  0
 15 98  1  0  0  0
 16 17  2  0  0  0
 16 21  1  0  0  0
 16 31  1  0  0  0
 17 18  1  0  0  0
 17 99  1  0  0  0
 18 19  2  0  0  0
 18100  1  0  0  0
 19 20  1  0  0  0
 19 24  1  0  0  0
 20 21  2  0  0  0
 20101  1  0  0  0
 21 23  1  0  0  0
 22 28  1  0  0  0
 22 32  2  0  0  0
 26 27  1  0  0  0
 28102  1  0  0  0
 28103  1  0  0  0
 29104  1  0  0  0
 29105  1  0  0  0
 33 34  1  0  0  0
 33 66  1  0  0  0
 33 70  2  0  0  0
 34 36  1  0  0  0
 34 59  1  0  0  0
 34106  1  0  0  0
 35 44  2  0  0  0
 35 45  1  0  0  0
 35 68  1  0  0  0
 36 56  1  0  0  0
 36107  1  0  0  0
 37 39  1  0  0  0
 37 47  1  0  0  0
 37 66  1  0  0  0
 37108  1  0  0  0
 38 43  2  0  0  0
 38 46  1  0  0  0
 38 47  1  0  0  0
 39 64  1  0  0  0
 39 67  2  0  0  0
 40 52  1  0  0  0
 40 53  2  0  0  0
 40 58  1  0  0  0
 41109  1  0  0  0
 41110  1  0  0  0
 41111  1  0  0  0
 41 48  1  0  0  0
 42 43  1  0  0  0
 42 66  1  0  0  0
 42112  1  0  0  0
 42113  1  0  0  0
 43 44  1  0  0  0
 44114  1  0  0  0
 45 46  2  0  0  0
 45115  1  0  0  0
 46116  1  0  0  0
 47117  1  0  0  0
 47118  1  0  0  0
 48 56  1  0  0  0
 48 65  1  0  0  0
 48119  1  0  0  0
 49 50  1  0  0  0
 49 53  1  0  0  0
 49 64  1  0  0  0
 49120  1  0  0  0
 50 51  1  0  0  0
 50121  1  0  0  0
 50122  1  0  0  0
 51 52  1  0  0  0
 51123  1  0  0  0
 51124  1  0  0  0
 52125  1  0  0  0
 52126  1  0  0  0
 53 54  1  0  0  0
 54 55  2  0  0  0
 54127  1  0  0  0
 55 57  1  0  0  0
 55128  1  0  0  0
 56 69  2  0  0  0
 57 58  2  0  0  0
 57129  1  0  0  0
 58130  1  0  0  0
 59 60  1  0  0  0
 59 61  1  0  0  0
 59 62  1  0  0  0
 60131  1  0  0  0
 60132  1  0  0  0
 60133  1  0  0  0
 61134  1  0  0  0
 61135  1  0  0  0
 61136  1  0  0  0
 62137  1  0  0  0
 62138  1  0  0  0
 62139  1  0  0  0
 63 65  1  0  0  0
 63140  1  0  0  0
 63141  1  0  0  0
 63142  1  0  0  0
 64143  1  0  0  0
 65144  1  0  0  0
 68 82  1  0  0  0
 71 72  2  0  0  0
 71 75  1  0  0  0
 71145  1  0  0  0
 72 76  1  0  0  0
 72146  1  0  0  0
 73 74  1  0  0  0
 73 76  2  0  0  0
 73147  1  0  0  0
 74 75  2  0  0  0
 74 79  1  0  0  0
 75 80  1  0  0  0
 76 85  1  0  0  0
 77 78  1  0  0  0
 77 79  1  0  0  0
 77148  1  0  0  0
 77149  1  0  0  0
 78 79  1  0  0  0
 78150  1  0  0  0
 78151  1  0  0  0
 79152  1  0  0  0
 80 81  1  0  0  0
 80153  1  0  0  0
 80154  1  0  0  0
 81 84  1  0  0  0
 81155  1  0  0  0
 81156  1  0  0  0
 82 83  1  0  0  0
 82157  1  0  0  0
 82158  1  0  0  0
 83 85  1  0  0  0
 83159  1  0  0  0
 83160  1  0  0  0
 84161  1  0  0  0
M  ISO  4   1 100  68 101  82 101  84 100
M  END
> <chiral flag>
0

> <version>
0

> <s_m_source_file>
/data/baiqing/PycharmProjects/Reinvent-master-3.2/result/LINK_invent/BTK/process_docking_weight1_custom_sum_contain_oxygen_bond_distance_aromatic_linkinvent_7_9_3/rearranged_h_0139.sdf

> <i_m_source_file_index>
47

> <r_mmod_Potential_Energy-OPLS-2005>
-23.9651527404785

> <r_mmod_Stretch_Energy-OPLS-2005>
37.3404884338379

> <r_mmod_Bend_Energy-OPLS-2005>
98.1542358398438

> <r_mmod_Torsional_Energy-OPLS-2005>
276.0048828125

> <r_mmod_Improper_Torsional_Energy-OPLS-2005>
6.17805910110474

> <r_mmod_Van_der_Waal_Energy-OPLS-2005>
146.760543823242

> <r_mmod_Electrostatic_Energy-OPLS-2005>
-385.894805908203

> <r_mmod_Solvation_Energy-OPLS-2005>
-214.89094543457

> <b_mmod_Minimization_Converged-OPLS-2005>
0

> <r_mmod_RMS_Derivative-OPLS-2005>
4.69609689712524

$$$$
47
                    3D
 Structure written by MMmdl.
157165  0  0  1  0            999 V2000
  -30.5419  -15.0784   20.3595 C   0  0  0  0  0  0
  -30.4248  -12.6675   19.5266 C   0  0  0  0  0  0
  -29.5275  -12.5390   18.2734 C   0  0  0  0  0  0
  -28.0638  -12.3075   18.6875 C   0  0  0  0  0  0
  -27.6127  -13.2724   19.8141 C   0  0  2  0  0  0
  -28.6460  -13.4000   20.9495 C   0  0  0  0  0  0
  -25.2396  -13.8262   20.5715 C   0  0  0  0  0  0
  -24.1744  -13.0454   20.9237 C   0  0  0  0  0  0
  -24.6397  -11.6951   20.8745 C   0  0  0  0  0  0
  -23.9090  -10.4307   21.0396 C   0  0  0  0  0  0
  -24.3638   -9.4223   21.9178 C   0  0  0  0  0  0
  -23.6308   -8.2260   22.0752 C   0  0  0  0  0  0
  -22.4287   -8.0287   21.3546 C   0  0  0  0  0  0
  -21.9925   -9.0258   20.4649 C   0  0  0  0  0  0
  -22.7259  -10.2136   20.3053 C   0  0  0  0  0  0
  -21.6864   -6.0735   22.5275 C   0  0  0  0  0  0
  -21.4022   -6.5638   23.8210 C   0  0  0  0  0  0
  -21.3667   -5.6791   24.9172 C   0  0  0  0  0  0
  -21.6047   -4.3050   24.7220 C   0  0  0  0  0  0
  -21.8819   -3.8144   23.4341 C   0  0  0  0  0  0
  -21.9198   -4.6963   22.3396 C   0  0  0  0  0  0
  -22.7759  -13.5202   21.1899 C   0  0  0  0  0  0
  -22.1662   -4.2148   21.0973 F   0  0  0  0  0  0
  -21.5635   -3.4532   25.7733 F   0  0  0  0  0  0
  -29.9143  -13.8179   20.3435 N   0  0  0  0  0  0
  -26.2814  -12.9536   20.3150 N   0  0  0  0  0  0
  -25.9330  -11.6647   20.5687 N   0  0  0  0  0  0
  -22.0424  -12.8183   22.0456 N   0  0  0  0  0  0
  -25.4048  -15.1991   20.4181 N   0  0  0  0  0  0
  -31.7675  -14.9990   20.2194 O   0  0  0  0  0  0
  -21.6653   -6.8882   21.4240 O   0  0  0  0  0  0
  -22.3436  -14.5504   20.6746 O   0  0  0  0  0  0
  -24.6512  -31.8367   23.1812 C   0  0  0  0  0  0
  -25.9249  -32.4653   23.8230 C   0  0  1  0  0  0
  -27.2092  -27.0517   20.1741 C   0  0  0  0  0  0
  -25.5969  -33.8462   24.2143 N   0  0  0  0  0  0
  -23.4584  -30.4539   21.5286 C   0  0  2  0  0  0
  -24.9071  -28.8629   20.1147 C   0  0  0  0  0  0
  -22.7607  -29.4517   22.4829 C   0  0  0  0  0  0
  -18.0312  -28.1404   22.8472 C   0  0  0  0  0  0
  -24.1494  -36.7241   23.2641 C   0  0  0  0  0  0
  -26.0196  -30.6841   21.3915 C   0  0  0  0  0  0
  -26.0880  -29.2858   20.7380 C   0  0  0  0  0  0
  -27.2407  -28.3996   20.7442 C   0  0  0  0  0  0
  -26.0035  -26.7520   19.5039 C   0  0  0  0  0  0
  -24.8822  -27.6125   19.4792 C   0  0  0  0  0  0
  -23.6898  -29.7780   20.1510 C   0  0  0  0  0  0
  -25.4129  -36.3006   24.0304 C   0  0  1  0  0  0
  -20.5931  -28.3739   23.1213 C   0  0  2  0  0  0
  -20.6794  -26.9433   22.5400 C   0  0  0  0  0  0
  -19.5766  -26.6381   21.5212 C   0  0  0  0  0  0
  -18.1949  -26.7939   22.1624 C   0  0  0  0  0  0
  -19.1571  -28.8889   23.2833 C   0  0  0  0  0  0
  -18.9487  -30.1485   23.8856 C   0  0  0  0  0  0
  -17.6481  -30.6593   24.0563 C   0  0  0  0  0  0
  -25.9087  -34.9383   23.5036 C   0  0  0  0  0  0
  -16.5370  -29.9085   23.6339 C   0  0  0  0  0  0
  -16.7295  -28.6511   23.0347 C   0  0  0  0  0  0
  -26.4541  -31.6548   25.0705 C   0  0  0  0  0  0
  -25.3702  -31.3763   26.1384 C   0  0  0  0  0  0
  -27.0418  -30.2930   24.6348 C   0  0  0  0  0  0
  -27.6053  -32.4332   25.7503 C   0  0  0  0  0  0
  -27.5574  -37.1779   24.8463 C   0  0  0  0  0  0
  -21.4288  -29.3050   22.3575 N   0  0  0  0  0  0
  -26.4286  -37.3729   23.9404 N   0  0  0  0  0  0
  -24.7302  -31.0152   22.0884 N   0  0  0  0  0  0
  -23.4215  -28.8061   23.3006 O   0  0  0  0  0  0
  -28.2460  -26.0234   20.2020 O   0  0  0  0  0  0
  -26.5682  -34.8897   22.4621 O   0  0  0  0  0  0
  -23.5610  -32.1278   23.6984 O   0  0  0  0  0  0
  -30.7823  -17.9304   20.7872 C   0  0  0  0  0  0
  -28.4566  -17.2412   20.4102 C   0  0  0  0  0  0
  -30.4741  -19.4975   20.3739 C   0  0  0  0  0  0
  -28.1631  -18.8239   20.7899 C   0  0  0  0  0  0
  -29.9443  -16.6847   20.2147 C   0  0  2  0  0  0
  -28.9886  -20.0772   20.1859 C   0  0  1  0  0  0
  -30.3692  -23.3538   20.2811 C   0  0  0  0  0  0
  -27.9779  -24.4712   20.4781 C   0  0  0  0  0  0
  -28.8787  -23.0421   20.0688 C   0  0  2  0  0  0
  -28.5732  -21.5728   20.6866 N   0  3  0  0  0  0
  -31.4621  -12.8026   19.2189 H   0  0  0  0  0  0
  -30.4115  -11.7438   20.1079 H   0  0  0  0  0  0
  -29.8732  -11.7225   17.6385 H   0  0  0  0  0  0
  -29.6018  -13.4483   17.6750 H   0  0  0  0  0  0
  -27.9830  -11.2757   19.0316 H   0  0  0  0  0  0
  -27.4041  -12.3941   17.8239 H   0  0  0  0  0  0
  -27.5455  -14.2522   19.3398 H   0  0  0  0  0  0
  -28.7555  -12.4603   21.4934 H   0  0  0  0  0  0
  -28.3225  -14.1466   21.6759 H   0  0  0  0  0  0
  -25.2783   -9.5705   22.4750 H   0  0  0  0  0  0
  -24.0024   -7.4654   22.7469 H   0  0  0  0  0  0
  -21.0859   -8.8776   19.8949 H   0  0  0  0  0  0
  -22.3713  -10.9672   19.6159 H   0  0  0  0  0  0
  -21.2011   -7.6146   23.9708 H   0  0  0  0  0  0
  -21.1493   -6.0522   25.9077 H   0  0  0  0  0  0
  -22.0591   -2.7603   23.2839 H   0  0  0  0  0  0
  -22.4055  -11.9855   22.4849 H   0  0  0  0  0  0
  -21.1027  -13.1179   22.2653 H   0  0  0  0  0  0
  -24.6383  -15.8518   20.5394 H   0  0  0  0  0  0
  -26.2572  -15.6407   20.1006 H   0  0  0  0  0  0
  -26.7317  -32.5237   23.0952 H   0  0  0  0  0  0
  -25.0079  -33.9564   25.0266 H   0  0  0  0  0  0
  -22.7649  -31.2820   21.3677 H   0  0  0  0  0  0
  -23.3761  -35.9570   23.3282 H   0  0  0  0  0  0
  -24.3576  -36.8903   22.2061 H   0  0  0  0  0  0
  -23.7248  -37.6426   23.6704 H   0  0  0  0  0  0
  -26.1833  -31.4303   20.6131 H   0  0  0  0  0  0
  -26.8872  -30.7392   22.0374 H   0  0  0  0  0  0
  -28.1410  -28.7227   21.2474 H   0  0  0  0  0  0
  -25.9025  -25.8045   18.9960 H   0  0  0  0  0  0
  -23.9849  -27.2859   18.9713 H   0  0  0  0  0  0
  -23.8363  -30.5494   19.3939 H   0  0  0  0  0  0
  -22.8022  -29.2261   19.8374 H   0  0  0  0  0  0
  -25.1322  -36.1821   25.0796 H   0  0  0  0  0  0
  -21.0025  -28.3338   24.1335 H   0  0  0  0  0  0
  -20.5683  -26.2357   23.3630 H   0  0  0  0  0  0
  -21.6661  -26.7425   22.1200 H   0  0  0  0  0  0
  -19.6925  -25.6282   21.1263 H   0  0  0  0  0  0
  -19.6701  -27.3173   20.6727 H   0  0  0  0  0  0
  -17.4218  -26.6679   21.4029 H   0  0  0  0  0  0
  -18.0349  -26.0093   22.9032 H   0  0  0  0  0  0
  -19.7962  -30.7317   24.2204 H   0  0  0  0  0  0
  -17.5030  -31.6268   24.5174 H   0  0  0  0  0  0
  -15.5368  -30.2970   23.7684 H   0  0  0  0  0  0
  -15.8700  -28.0818   22.7068 H   0  0  0  0  0  0
  -24.5893  -30.7098   25.7700 H   0  0  0  0  0  0
  -24.8880  -32.2953   26.4725 H   0  0  0  0  0  0
  -25.7964  -30.8990   27.0216 H   0  0  0  0  0  0
  -26.3054  -29.6628   24.1347 H   0  0  0  0  0  0
  -27.3984  -29.7261   25.4957 H   0  0  0  0  0  0
  -27.8981  -30.4132   23.9709 H   0  0  0  0  0  0
  -27.2630  -33.3659   26.1997 H   0  0  0  0  0  0
  -28.3913  -32.6847   25.0369 H   0  0  0  0  0  0
  -28.0667  -31.8512   26.5491 H   0  0  0  0  0  0
  -28.2576  -38.0089   24.7511 H   0  0  0  0  0  0
  -28.1085  -36.2615   24.6293 H   0  0  0  0  0  0
  -27.2289  -37.1425   25.8866 H   0  0  0  0  0  0
  -20.9512  -29.8771   21.6747 H   0  0  0  0  0  0
  -26.0141  -38.2793   24.1411 H   0  0  0  0  0  0
  -30.6878  -17.8739   21.8726 H   0  0  0  0  0  0
  -31.8405  -17.7416   20.6041 H   0  0  0  0  0  0
  -27.9159  -17.0277   19.4874 H   0  0  0  0  0  0
  -27.9642  -16.6245   21.1622 H   0  0  0  0  0  0
  -31.0092  -19.7013   19.4455 H   0  0  0  0  0  0
  -30.9761  -20.1214   21.1140 H   0  0  0  0  0  0
  -28.2610  -18.8952   21.8738 H   0  0  0  0  0  0
  -27.1032  -19.0058   20.6064 H   0  0  0  0  0  0
  -30.0879  -16.7952   19.1384 H   0  0  0  0  0  0
  -28.7823  -20.0796   19.1149 H   0  0  0  0  0  0
  -30.6583  -24.2533   19.7362 H   0  0  0  0  0  0
  -31.0058  -22.5416   19.9298 H   0  0  0  0  0  0
  -30.5921  -23.5251   21.3348 H   0  0  0  0  0  0
  -27.8963  -24.4418   21.5645 H   0  0  0  0  0  0
  -26.9620  -24.2644   20.1460 H   0  0  0  0  0  0
  -28.7387  -22.9197   18.9946 H   0  0  0  0  0  0
  -28.7949  -21.6165   21.6689 H   0  0  0  0  0  0
  -27.5657  -21.5322   20.6569 H   0  0  0  0  0  0
  1 25  1  0  0  0
  1 30  2  0  0  0
  1 75  1  0  0  0
  2  3  1  0  0  0
  2 25  1  0  0  0
  2 81  1  0  0  0
  2 82  1  0  0  0
  3  4  1  0  0  0
  3 83  1  0  0  0
  3 84  1  0  0  0
  4  5  1  0  0  0
  4 85  1  0  0  0
  4 86  1  0  0  0
  5  6  1  0  0  0
  5 26  1  0  0  0
  5 87  1  0  0  0
  6 25  1  0  0  0
  6 88  1  0  0  0
  6 89  1  0  0  0
  7  8  2  0  0  0
  7 26  1  0  0  0
  7 29  1  0  0  0
  8  9  1  0  0  0
  8 22  1  0  0  0
  9 10  1  0  0  0
  9 27  2  0  0  0
 10 11  2  0  0  0
 10 15  1  0  0  0
 11 12  1  0  0  0
 11 90  1  0  0  0
 12 13  2  0  0  0
 12 91  1  0  0  0
 13 14  1  0  0  0
 13 31  1  0  0  0
 14 15  2  0  0  0
 14 92  1  0  0  0
 15 93  1  0  0  0
 16 17  2  0  0  0
 16 21  1  0  0  0
 16 31  1  0  0  0
 17 18  1  0  0  0
 17 94  1  0  0  0
 18 19  2  0  0  0
 18 95  1  0  0  0
 19 20  1  0  0  0
 19 24  1  0  0  0
 20 21  2  0  0  0
 20 96  1  0  0  0
 21 23  1  0  0  0
 22 28  1  0  0  0
 22 32  2  0  0  0
 26 27  1  0  0  0
 28 97  1  0  0  0
 28 98  1  0  0  0
 29 99  1  0  0  0
 29100  1  0  0  0
 33 34  1  0  0  0
 33 66  1  0  0  0
 33 70  2  0  0  0
 34 36  1  0  0  0
 34 59  1  0  0  0
 34101  1  0  0  0
 35 44  2  0  0  0
 35 45  1  0  0  0
 35 68  1  0  0  0
 36 56  1  0  0  0
 36102  1  0  0  0
 37 39  1  0  0  0
 37 47  1  0  0  0
 37 66  1  0  0  0
 37103  1  0  0  0
 38 43  2  0  0  0
 38 46  1  0  0  0
 38 47  1  0  0  0
 39 64  1  0  0  0
 39 67  2  0  0  0
 40 52  1  0  0  0
 40 53  2  0  0  0
 40 58  1  0  0  0
 41104  1  0  0  0
 41105  1  0  0  0
 41106  1  0  0  0
 41 48  1  0  0  0
 42 43  1  0  0  0
 42 66  1  0  0  0
 42107  1  0  0  0
 42108  1  0  0  0
 43 44  1  0  0  0
 44109  1  0  0  0
 45 46  2  0  0  0
 45110  1  0  0  0
 46111  1  0  0  0
 47112  1  0  0  0
 47113  1  0  0  0
 48 56  1  0  0  0
 48 65  1  0  0  0
 48114  1  0  0  0
 49 50  1  0  0  0
 49 53  1  0  0  0
 49 64  1  0  0  0
 49115  1  0  0  0
 50 51  1  0  0  0
 50116  1  0  0  0
 50117  1  0  0  0
 51 52  1  0  0  0
 51118  1  0  0  0
 51119  1  0  0  0
 52120  1  0  0  0
 52121  1  0  0  0
 53 54  1  0  0  0
 54 55  2  0  0  0
 54122  1  0  0  0
 55 57  1  0  0  0
 55123  1  0  0  0
 56 69  2  0  0  0
 57 58  2  0  0  0
 57124  1  0  0  0
 58125  1  0  0  0
 59 60  1  0  0  0
 59 61  1  0  0  0
 59 62  1  0  0  0
 60126  1  0  0  0
 60127  1  0  0  0
 60128  1  0  0  0
 61129  1  0  0  0
 61130  1  0  0  0
 61131  1  0  0  0
 62132  1  0  0  0
 62133  1  0  0  0
 62134  1  0  0  0
 63 65  1  0  0  0
 63135  1  0  0  0
 63136  1  0  0  0
 63137  1  0  0  0
 64138  1  0  0  0
 65139  1  0  0  0
 68 78  1  0  0  0
 71 73  1  0  0  0
 71 75  1  0  0  0
 71140  1  0  0  0
 71141  1  0  0  0
 72 74  1  0  0  0
 72 75  1  0  0  0
 72142  1  0  0  0
 72143  1  0  0  0
 73 76  1  0  0  0
 73144  1  0  0  0
 73145  1  0  0  0
 74 76  1  0  0  0
 74146  1  0  0  0
 74147  1  0  0  0
 75148  1  0  0  0
 76 80  1  0  0  0
 76149  1  0  0  0
 77150  1  0  0  0
 77151  1  0  0  0
 77152  1  0  0  0
 77 79  1  0  0  0
 78 79  1  0  0  0
 78153  1  0  0  0
 78154  1  0  0  0
 79 80  1  0  0  0
 79155  1  0  0  0
 80156  1  0  0  0
 80157  1  0  0  0
M  CHG  1  80   1
M  ISO  4   1 100  68 101  75 100  78 101
M  END
> <chiral flag>
0

> <version>
0

> <s_m_source_file>
/data/baiqing/PycharmProjects/Reinvent-master-3.2/result/LINK_invent/BTK/process_docking_weight1_custom_sum_contain_oxygen_bond_distance_aromatic_linkinvent_7_9_3/rearranged_h_0139.sdf

> <i_m_source_file_index>
48

> <r_mmod_Potential_Energy-OPLS-2005>
841.488586425781

> <r_mmod_Stretch_Energy-OPLS-2005>
363.412658691406

> <r_mmod_Bend_Energy-OPLS-2005>
399.835571289062

> <r_mmod_Torsional_Energy-OPLS-2005>
268.763427734375

> <r_mmod_Improper_Torsional_Energy-OPLS-2005>
6.9639105796814

> <r_mmod_Van_der_Waal_Energy-OPLS-2005>
110.200340270996

> <r_mmod_Electrostatic_Energy-OPLS-2005>
-157.459579467773

> <r_mmod_Solvation_Energy-OPLS-2005>
-434.265594482422

> <b_mmod_Minimization_Converged-OPLS-2005>
0

> <r_mmod_RMS_Derivative-OPLS-2005>
1.09178781509399

$$$$
48
                    3D
 Structure written by MMmdl.
167176  0  0  1  0            999 V2000
  -30.6708  -14.5684   20.5086 C   0  0  0  0  0  0
  -30.4294  -12.3533   19.4350 C   0  0  0  0  0  0
  -29.5014  -12.4962   18.2105 C   0  0  0  0  0  0
  -28.0238  -12.3510   18.6252 C   0  0  0  0  0  0
  -27.6565  -13.2124   19.8635 C   0  0  2  0  0  0
  -28.7018  -13.0516   20.9898 C   0  0  0  0  0  0
  -25.2580  -13.8164   20.5662 C   0  0  0  0  0  0
  -24.1841  -13.0447   20.9189 C   0  0  0  0  0  0
  -24.6403  -11.6921   20.8733 C   0  0  0  0  0  0
  -23.9065  -10.4306   21.0404 C   0  0  0  0  0  0
  -24.3612   -9.4215   21.9183 C   0  0  0  0  0  0
  -23.6292   -8.2244   22.0749 C   0  0  0  0  0  0
  -22.4275   -8.0276   21.3535 C   0  0  0  0  0  0
  -21.9915   -9.0254   20.4638 C   0  0  0  0  0  0
  -22.7238  -10.2145   20.3053 C   0  0  0  0  0  0
  -21.6857   -6.0730   22.5269 C   0  0  0  0  0  0
  -21.4016   -6.5634   23.8200 C   0  0  0  0  0  0
  -21.3666   -5.6782   24.9159 C   0  0  0  0  0  0
  -21.6046   -4.3050   24.7216 C   0  0  0  0  0  0
  -21.8822   -3.8143   23.4339 C   0  0  0  0  0  0
  -21.9196   -4.6955   22.3395 C   0  0  0  0  0  0
  -22.7873  -13.5247   21.1863 C   0  0  0  0  0  0
  -22.1664   -4.2150   21.0974 F   0  0  0  0  0  0
  -21.5637   -3.4538   25.7730 F   0  0  0  0  0  0
  -30.0201  -13.3697   20.4197 N   0  0  0  0  0  0
  -26.3006  -12.9339   20.3308 N   0  0  0  0  0  0
  -25.9327  -11.6505   20.5748 N   0  0  0  0  0  0
  -22.0510  -12.8213   22.0397 N   0  0  0  0  0  0
  -25.4355  -15.1869   20.4047 N   0  0  0  0  0  0
  -31.8382  -14.7090   20.1359 O   0  0  0  0  0  0
  -21.6638   -6.8876   21.4234 O   0  0  0  0  0  0
  -22.3566  -14.5564   20.6730 O   0  0  0  0  0  0
  -24.6235  -31.8610   23.2035 C   0  0  0  0  0  0
  -25.9083  -32.4798   23.8377 C   0  0  1  0  0  0
  -27.2264  -27.3525   20.1376 C   0  0  0  0  0  0
  -25.5891  -33.8609   24.2295 N   0  0  0  0  0  0
  -23.4156  -30.4815   21.5451 C   0  0  2  0  0  0
  -24.8666  -28.9457   20.1069 C   0  0  0  0  0  0
  -22.7458  -29.4604   22.4940 C   0  0  0  0  0  0
  -18.0271  -28.1382   22.8466 C   0  0  0  0  0  0
  -24.1503  -36.7319   23.2640 C   0  0  0  0  0  0
  -25.9528  -30.8074   21.3648 C   0  0  0  0  0  0
  -26.0322  -29.4373   20.7110 C   0  0  0  0  0  0
  -27.2166  -28.6512   20.7161 C   0  0  0  0  0  0
  -26.0491  -26.9079   19.4965 C   0  0  0  0  0  0
  -24.8770  -27.6872   19.4859 C   0  0  0  0  0  0
  -23.6288  -29.8149   20.1595 C   0  0  0  0  0  0
  -25.4128  -36.3105   24.0328 C   0  0  1  0  0  0
  -20.5877  -28.3657   23.1296 C   0  0  2  0  0  0
  -20.6761  -26.9382   22.5418 C   0  0  0  0  0  0
  -19.5748  -26.6366   21.5211 C   0  0  0  0  0  0
  -18.1916  -26.7924   22.1603 C   0  0  0  0  0  0
  -19.1524  -28.8844   23.2874 C   0  0  0  0  0  0
  -18.9452  -30.1447   23.8885 C   0  0  0  0  0  0
  -17.6451  -30.6577   24.0561 C   0  0  0  0  0  0
  -25.9057  -34.9476   23.5130 C   0  0  0  0  0  0
  -16.5343  -29.9066   23.6341 C   0  0  0  0  0  0
  -16.7267  -28.6496   23.0341 C   0  0  0  0  0  0
  -26.4479  -31.6605   25.0729 C   0  0  0  0  0  0
  -25.3714  -31.3685   26.1451 C   0  0  0  0  0  0
  -27.0310  -30.3057   24.6132 C   0  0  0  0  0  0
  -27.6072  -32.4307   25.7481 C   0  0  0  0  0  0
  -27.5572  -37.1810   24.8454 C   0  0  0  0  0  0
  -21.4171  -29.3017   22.3702 N   0  0  0  0  0  0
  -26.4303  -37.3782   23.9401 N   0  0  0  0  0  0
  -24.6830  -31.0651   22.0960 N   0  0  0  0  0  0
  -23.4200  -28.8105   23.2976 O   0  0  0  0  0  0
  -28.3326  -26.5103   20.2152 O   0  0  0  0  0  0
  -26.5624  -34.8915   22.4694 O   0  0  0  0  0  0
  -23.5401  -32.1383   23.7393 O   0  0  0  0  0  0
  -28.8405  -21.2619   22.2594 C   0  0  0  0  0  0
  -29.3528  -20.6649   20.1437 C   0  0  0  0  0  0
  -29.1459  -21.7520   20.9618 C   0  0  0  0  0  0
  -28.8545  -19.8838   22.2050 C   0  0  0  0  0  0
  -28.3476  -23.9895   19.5909 C   0  0  0  0  0  0
  -29.2953  -23.2555   20.5740 C   0  0  1  0  0  0
  -29.0842  -24.4454   21.5608 C   0  0  2  0  0  0
  -28.0581  -25.1181   20.6094 C   0  0  1  0  0  0
  -30.2994  -25.2529   22.0049 C   0  0  0  0  0  0
  -27.0661  -18.4527   23.2718 C   0  0  0  0  0  0
  -28.9130  -19.4073   24.6877 C   0  0  0  0  0  0
  -29.1939  -18.0899   20.3658 C   0  0  0  0  0  0
  -30.3184  -17.0887   20.8406 C   0  0  0  0  0  0
  -28.5382  -18.8866   23.2930 C   0  0  0  0  0  0
  -29.1779  -19.4893   20.8975 N   0  0  0  0  0  0
  -29.9110  -15.6479   20.8295 N   0  0  0  0  0  0
  -31.4710  -12.4670   19.1298 H   0  0  0  0  0  0
  -30.3495  -11.3550   19.8678 H   0  0  0  0  0  0
  -29.7554  -11.7433   17.4635 H   0  0  0  0  0  0
  -29.6593  -13.4648   17.7305 H   0  0  0  0  0  0
  -27.8477  -11.2976   18.8440 H   0  0  0  0  0  0
  -27.3740  -12.6006   17.7861 H   0  0  0  0  0  0
  -27.6810  -14.2512   19.5342 H   0  0  0  0  0  0
  -28.6977  -12.0302   21.3739 H   0  0  0  0  0  0
  -28.4602  -13.6950   21.8370 H   0  0  0  0  0  0
  -25.2766   -9.5684   22.4753 H   0  0  0  0  0  0
  -24.0006   -7.4628   22.7461 H   0  0  0  0  0  0
  -21.0855   -8.8775   19.8933 H   0  0  0  0  0  0
  -22.3704  -10.9682   19.6153 H   0  0  0  0  0  0
  -21.2002   -7.6145   23.9700 H   0  0  0  0  0  0
  -21.1489   -6.0518   25.9061 H   0  0  0  0  0  0
  -22.0602   -2.7613   23.2835 H   0  0  0  0  0  0
  -22.4130  -11.9859   22.4756 H   0  0  0  0  0  0
  -21.1120  -13.1226   22.2598 H   0  0  0  0  0  0
  -24.6772  -15.8507   20.5110 H   0  0  0  0  0  0
  -26.2774  -15.6083   20.0361 H   0  0  0  0  0  0
  -26.7135  -32.5501   23.1122 H   0  0  0  0  0  0
  -25.0044  -33.9798   25.0443 H   0  0  0  0  0  0
  -22.7118  -31.3028   21.3995 H   0  0  0  0  0  0
  -23.3749  -35.9655   23.3323 H   0  0  0  0  0  0
  -24.3580  -36.8957   22.2042 H   0  0  0  0  0  0
  -23.7257  -37.6539   23.6661 H   0  0  0  0  0  0
  -26.0752  -31.5715   20.5945 H   0  0  0  0  0  0
  -26.8362  -30.8623   21.9887 H   0  0  0  0  0  0
  -28.1078  -29.0161   21.2102 H   0  0  0  0  0  0
  -26.0247  -25.9402   19.0185 H   0  0  0  0  0  0
  -23.9881  -27.3050   19.0034 H   0  0  0  0  0  0
  -23.7384  -30.5903   19.4001 H   0  0  0  0  0  0
  -22.7541  -29.2353   19.8607 H   0  0  0  0  0  0
  -25.1300  -36.1984   25.0810 H   0  0  0  0  0  0
  -20.9969  -28.3209   24.1416 H   0  0  0  0  0  0
  -20.5671  -26.2228   23.3599 H   0  0  0  0  0  0
  -21.6619  -26.7426   22.1191 H   0  0  0  0  0  0
  -19.6918  -25.6280   21.1229 H   0  0  0  0  0  0
  -19.6705  -27.3180   20.6756 H   0  0  0  0  0  0
  -17.4191  -26.6681   21.4006 H   0  0  0  0  0  0
  -18.0304  -26.0085   22.9016 H   0  0  0  0  0  0
  -19.7935  -30.7271   24.2228 H   0  0  0  0  0  0
  -17.5006  -31.6257   24.5160 H   0  0  0  0  0  0
  -15.5337  -30.2954   23.7693 H   0  0  0  0  0  0
  -15.8667  -28.0831   22.7034 H   0  0  0  0  0  0
  -24.5938  -30.6996   25.7746 H   0  0  0  0  0  0
  -24.8838  -32.2809   26.4908 H   0  0  0  0  0  0
  -25.8043  -30.8841   27.0215 H   0  0  0  0  0  0
  -26.2859  -29.6817   24.1197 H   0  0  0  0  0  0
  -27.4083  -29.7306   25.4600 H   0  0  0  0  0  0
  -27.8674  -30.4391   23.9269 H   0  0  0  0  0  0
  -27.2758  -33.3638   26.2047 H   0  0  0  0  0  0
  -28.3858  -32.6841   25.0269 H   0  0  0  0  0  0
  -28.0746  -31.8424   26.5399 H   0  0  0  0  0  0
  -28.2585  -38.0112   24.7521 H   0  0  0  0  0  0
  -28.1072  -36.2649   24.6263 H   0  0  0  0  0  0
  -27.2281  -37.1460   25.8853 H   0  0  0  0  0  0
  -20.9342  -29.8817   21.6990 H   0  0  0  0  0  0
  -26.0201  -38.2854   24.1416 H   0  0  0  0  0  0
  -28.6244  -21.8492   23.1401 H   0  0  0  0  0  0
  -29.5984  -20.6166   19.0901 H   0  0  0  0  0  0
  -27.4591  -23.4140   19.3246 H   0  0  0  0  0  0
  -28.8667  -24.3428   18.6997 H   0  0  0  0  0  0
  -30.3089  -23.3374   20.1783 H   0  0  0  0  0  0
  -28.5364  -24.0923   22.4367 H   0  0  0  0  0  0
  -27.0611  -24.9964   21.0398 H   0  0  0  0  0  0
  -30.9332  -25.5206   21.1578 H   0  0  0  0  0  0
  -30.9109  -24.6917   22.7106 H   0  0  0  0  0  0
  -30.0030  -26.1796   22.4970 H   0  0  0  0  0  0
  -26.7522  -18.1199   22.2831 H   0  0  0  0  0  0
  -26.4073  -19.2684   23.5707 H   0  0  0  0  0  0
  -26.8951  -17.6212   23.9553 H   0  0  0  0  0  0
  -29.9701  -19.6719   24.7393 H   0  0  0  0  0  0
  -28.7251  -18.6553   25.4527 H   0  0  0  0  0  0
  -28.3340  -20.2932   24.9500 H   0  0  0  0  0  0
  -28.2221  -17.6588   20.5990 H   0  0  0  0  0  0
  -29.2179  -18.1462   19.2771 H   0  0  0  0  0  0
  -30.6621  -17.3239   21.8446 H   0  0  0  0  0  0
  -31.1993  -17.2304   20.2131 H   0  0  0  0  0  0
  -29.1291  -17.9876   23.1458 H   0  0  0  0  0  0
  -28.9503  -15.4499   21.0649 H   0  0  0  0  0  0
  1 25  1  0  0  0
  1 30  2  0  0  0
  1 86  1  0  0  0
  2  3  1  0  0  0
  2 25  1  0  0  0
  2 87  1  0  0  0
  2 88  1  0  0  0
  3  4  1  0  0  0
  3 89  1  0  0  0
  3 90  1  0  0  0
  4  5  1  0  0  0
  4 91  1  0  0  0
  4 92  1  0  0  0
  5  6  1  0  0  0
  5 26  1  0  0  0
  5 93  1  0  0  0
  6 25  1  0  0  0
  6 94  1  0  0  0
  6 95  1  0  0  0
  7  8  2  0  0  0
  7 26  1  0  0  0
  7 29  1  0  0  0
  8  9  1  0  0  0
  8 22  1  0  0  0
  9 10  1  0  0  0
  9 27  2  0  0  0
 10 11  2  0  0  0
 10 15  1  0  0  0
 11 12  1  0  0  0
 11 96  1  0  0  0
 12 13  2  0  0  0
 12 97  1  0  0  0
 13 14  1  0  0  0
 13 31  1  0  0  0
 14 15  2  0  0  0
 14 98  1  0  0  0
 15 99  1  0  0  0
 16 17  2  0  0  0
 16 21  1  0  0  0
 16 31  1  0  0  0
 17 18  1  0  0  0
 17100  1  0  0  0
 18 19  2  0  0  0
 18101  1  0  0  0
 19 20  1  0  0  0
 19 24  1  0  0  0
 20 21  2  0  0  0
 20102  1  0  0  0
 21 23  1  0  0  0
 22 28  1  0  0  0
 22 32  2  0  0  0
 26 27  1  0  0  0
 28103  1  0  0  0
 28104  1  0  0  0
 29105  1  0  0  0
 29106  1  0  0  0
 33 34  1  0  0  0
 33 66  1  0  0  0
 33 70  2  0  0  0
 34 36  1  0  0  0
 34 59  1  0  0  0
 34107  1  0  0  0
 35 44  2  0  0  0
 35 45  1  0  0  0
 35 68  1  0  0  0
 36 56  1  0  0  0
 36108  1  0  0  0
 37 39  1  0  0  0
 37 47  1  0  0  0
 37 66  1  0  0  0
 37109  1  0  0  0
 38 43  2  0  0  0
 38 46  1  0  0  0
 38 47  1  0  0  0
 39 64  1  0  0  0
 39 67  2  0  0  0
 40 52  1  0  0  0
 40 53  2  0  0  0
 40 58  1  0  0  0
 41110  1  0  0  0
 41111  1  0  0  0
 41112  1  0  0  0
 41 48  1  0  0  0
 42 43  1  0  0  0
 42 66  1  0  0  0
 42113  1  0  0  0
 42114  1  0  0  0
 43 44  1  0  0  0
 44115  1  0  0  0
 45 46  2  0  0  0
 45116  1  0  0  0
 46117  1  0  0  0
 47118  1  0  0  0
 47119  1  0  0  0
 48 56  1  0  0  0
 48 65  1  0  0  0
 48120  1  0  0  0
 49 50  1  0  0  0
 49 53  1  0  0  0
 49 64  1  0  0  0
 49121  1  0  0  0
 50 51  1  0  0  0
 50122  1  0  0  0
 50123  1  0  0  0
 51 52  1  0  0  0
 51124  1  0  0  0
 51125  1  0  0  0
 52126  1  0  0  0
 52127  1  0  0  0
 53 54  1  0  0  0
 54 55  2  0  0  0
 54128  1  0  0  0
 55 57  1  0  0  0
 55129  1  0  0  0
 56 69  2  0  0  0
 57 58  2  0  0  0
 57130  1  0  0  0
 58131  1  0  0  0
 59 60  1  0  0  0
 59 61  1  0  0  0
 59 62  1  0  0  0
 60132  1  0  0  0
 60133  1  0  0  0
 60134  1  0  0  0
 61135  1  0  0  0
 61136  1  0  0  0
 61137  1  0  0  0
 62138  1  0  0  0
 62139  1  0  0  0
 62140  1  0  0  0
 63 65  1  0  0  0
 63141  1  0  0  0
 63142  1  0  0  0
 63143  1  0  0  0
 64144  1  0  0  0
 65145  1  0  0  0
 68 78  1  0  0  0
 71 73  1  0  0  0
 71 74  2  0  0  0
 71146  1  0  0  0
 72 73  2  0  0  0
 72 85  1  0  0  0
 72147  1  0  0  0
 73 76  1  0  0  0
 74 84  1  0  0  0
 74 85  1  0  0  0
 75 76  1  0  0  0
 75 78  1  0  0  0
 75148  1  0  0  0
 75149  1  0  0  0
 76 77  1  0  0  0
 76150  1  0  0  0
 77 78  1  0  0  0
 77 79  1  0  0  0
 77151  1  0  0  0
 78152  1  0  0  0
 79153  1  0  0  0
 79154  1  0  0  0
 79155  1  0  0  0
 80156  1  0  0  0
 80157  1  0  0  0
 80158  1  0  0  0
 80 84  1  0  0  0
 81 84  1  0  0  0
 81159  1  0  0  0
 81160  1  0  0  0
 81161  1  0  0  0
 82 83  1  0  0  0
 82 85  1  0  0  0
 82162  1  0  0  0
 82163  1  0  0  0
 83 86  1  0  0  0
 83164  1  0  0  0
 83165  1  0  0  0
 84166  1  0  0  0
 86167  1  0  0  0
M  ISO  4   1 100  68 101  78 101  86 100
M  END
> <chiral flag>
0

> <version>
0

> <s_m_source_file>
/data/baiqing/PycharmProjects/Reinvent-master-3.2/result/LINK_invent/BTK/process_docking_weight1_custom_sum_contain_oxygen_bond_distance_aromatic_linkinvent_7_9_3/rearranged_h_0139.sdf

> <i_m_source_file_index>
49

> <r_mmod_Potential_Energy-OPLS-2005>
-18.2534866333008

> <r_mmod_Stretch_Energy-OPLS-2005>
59.8370780944824

> <r_mmod_Bend_Energy-OPLS-2005>
134.525344848633

> <r_mmod_Torsional_Energy-OPLS-2005>
269.552764892578

> <r_mmod_Improper_Torsional_Energy-OPLS-2005>
5.29959869384766

> <r_mmod_Van_der_Waal_Energy-OPLS-2005>
114.889129638672

> <r_mmod_Electrostatic_Energy-OPLS-2005>
-430.458953857422

> <r_mmod_Solvation_Energy-OPLS-2005>
-207.583862304688

> <b_mmod_Minimization_Converged-OPLS-2005>
0

> <r_mmod_RMS_Derivative-OPLS-2005>
3.6375937461853

$$$$
49
                    3D
 Structure written by MMmdl.
168177  0  0  1  0            999 V2000
  -30.8036  -14.3668   20.6234 C   0  0  0  0  0  0
  -30.3894  -12.2611   19.4158 C   0  0  0  0  0  0
  -29.4793  -12.5074   18.1998 C   0  0  0  0  0  0
  -28.0032  -12.3791   18.6123 C   0  0  0  0  0  0
  -27.6602  -13.2164   19.8750 C   0  0  2  0  0  0
  -28.7008  -13.0057   20.9985 C   0  0  0  0  0  0
  -25.2540  -13.8172   20.5645 C   0  0  0  0  0  0
  -24.1810  -13.0443   20.9153 C   0  0  0  0  0  0
  -24.6388  -11.6912   20.8733 C   0  0  0  0  0  0
  -23.9073  -10.4297   21.0401 C   0  0  0  0  0  0
  -24.3632   -9.4213   21.9176 C   0  0  0  0  0  0
  -23.6295   -8.2255   22.0752 C   0  0  0  0  0  0
  -22.4279   -8.0291   21.3541 C   0  0  0  0  0  0
  -21.9917   -9.0272   20.4650 C   0  0  0  0  0  0
  -22.7247  -10.2146   20.3060 C   0  0  0  0  0  0
  -21.6849   -6.0745   22.5280 C   0  0  0  0  0  0
  -21.4015   -6.5654   23.8211 C   0  0  0  0  0  0
  -21.3651   -5.6813   24.9173 C   0  0  0  0  0  0
  -21.6038   -4.3073   24.7219 C   0  0  0  0  0  0
  -21.8819   -3.8158   23.4339 C   0  0  0  0  0  0
  -21.9196   -4.6978   22.3394 C   0  0  0  0  0  0
  -22.7827  -13.5222   21.1831 C   0  0  0  0  0  0
  -22.1696   -4.2168   21.0975 F   0  0  0  0  0  0
  -21.5611   -3.4551   25.7729 F   0  0  0  0  0  0
  -30.0422  -13.2544   20.4473 N   0  0  0  0  0  0
  -26.3018  -12.9389   20.3384 N   0  0  0  0  0  0
  -25.9325  -11.6540   20.5790 N   0  0  0  0  0  0
  -22.0483  -12.8217   22.0416 N   0  0  0  0  0  0
  -25.4222  -15.1883   20.3957 N   0  0  0  0  0  0
  -31.8715  -14.4930   20.0254 O   0  0  0  0  0  0
  -21.6640   -6.8895   21.4243 O   0  0  0  0  0  0
  -22.3506  -14.5538   20.6695 O   0  0  0  0  0  0
  -24.6104  -31.8703   23.2105 C   0  0  0  0  0  0
  -25.9013  -32.4837   23.8395 C   0  0  1  0  0  0
  -27.2419  -27.4648   20.0949 C   0  0  0  0  0  0
  -25.5876  -33.8633   24.2332 N   0  0  0  0  0  0
  -23.3964  -30.4921   21.5515 C   0  0  2  0  0  0
  -24.8434  -28.9575   20.1175 C   0  0  0  0  0  0
  -22.7390  -29.4667   22.5017 C   0  0  0  0  0  0
  -18.0272  -28.1378   22.8494 C   0  0  0  0  0  0
  -24.1488  -36.7319   23.2642 C   0  0  0  0  0  0
  -25.9203  -30.8455   21.3564 C   0  0  0  0  0  0
  -25.9990  -29.4799   20.7096 C   0  0  0  0  0  0
  -27.1994  -28.7411   20.6928 C   0  0  0  0  0  0
  -26.0689  -26.9474   19.4989 C   0  0  0  0  0  0
  -24.8720  -27.6891   19.5098 C   0  0  0  0  0  0
  -23.6019  -29.8194   20.1670 C   0  0  0  0  0  0
  -25.4109  -36.3124   24.0343 C   0  0  1  0  0  0
  -20.5858  -28.3654   23.1339 C   0  0  2  0  0  0
  -20.6758  -26.9394   22.5433 C   0  0  0  0  0  0
  -19.5747  -26.6385   21.5219 C   0  0  0  0  0  0
  -18.1918  -26.7929   22.1617 C   0  0  0  0  0  0
  -19.1517  -28.8837   23.2915 C   0  0  0  0  0  0
  -18.9443  -30.1441   23.8921 C   0  0  0  0  0  0
  -17.6447  -30.6581   24.0569 C   0  0  0  0  0  0
  -25.9034  -34.9487   23.5139 C   0  0  0  0  0  0
  -16.5339  -29.9088   23.6319 C   0  0  0  0  0  0
  -16.7258  -28.6503   23.0338 C   0  0  0  0  0  0
  -26.4458  -31.6604   25.0704 C   0  0  0  0  0  0
  -25.3729  -31.3681   26.1450 C   0  0  0  0  0  0
  -27.0289  -30.3060   24.6038 C   0  0  0  0  0  0
  -27.6047  -32.4312   25.7454 C   0  0  0  0  0  0
  -27.5589  -37.1815   24.8468 C   0  0  0  0  0  0
  -21.4125  -29.3018   22.3745 N   0  0  0  0  0  0
  -26.4302  -37.3801   23.9412 N   0  0  0  0  0  0
  -24.6608  -31.0838   22.0986 N   0  0  0  0  0  0
  -23.4183  -28.8215   23.3053 O   0  0  0  0  0  0
  -28.4467  -26.8016   20.0732 O   0  0  0  0  0  0
  -26.5601  -34.8930   22.4706 O   0  0  0  0  0  0
  -23.5307  -32.1437   23.7528 O   0  0  0  0  0  0
  -32.0025  -22.2632   16.9464 C   0  0  0  0  0  0
  -32.3637  -21.0186   17.4950 C   0  0  0  0  0  0
  -31.0627  -23.0787   17.6031 C   0  0  0  0  0  0
  -30.8474  -21.4041   19.3576 C   0  0  0  0  0  0
  -31.7873  -20.5773   18.7041 C   0  0  0  0  0  0
  -30.4807  -22.6544   18.8221 C   0  0  0  0  0  0
  -33.5001  -19.3045   20.1237 C   0  0  0  0  0  0
  -33.4068  -18.1512   21.1376 C   0  0  0  0  0  0
  -31.2144  -18.4646   20.1520 C   0  0  0  0  0  0
  -32.2210  -19.2310   19.2747 C   0  0  1  0  0  0
  -32.1096  -17.3960   20.7898 C   0  0  2  0  0  0
  -30.3616  -15.5299   21.5349 C   0  0  0  0  0  0
  -29.3467  -24.7433   19.1769 C   0  0  0  0  0  0
  -28.4565  -25.3863   20.2464 C   0  0  0  0  0  0
  -31.5104  -16.5150   21.9363 C   0  0  2  0  0  0
  -31.1172  -17.3482   23.0910 N   0  3  0  0  0  0
  -29.5650  -23.3862   19.5422 O   0  0  0  0  0  0
  -31.4387  -12.2901   19.1176 H   0  0  0  0  0  0
  -30.2298  -11.2562   19.8075 H   0  0  0  0  0  0
  -29.7043  -11.7975   17.4017 H   0  0  0  0  0  0
  -29.6671  -13.5024   17.7906 H   0  0  0  0  0  0
  -27.7984  -11.3250   18.8014 H   0  0  0  0  0  0
  -27.3577  -12.6698   17.7822 H   0  0  0  0  0  0
  -27.7075  -14.2643   19.5812 H   0  0  0  0  0  0
  -28.6520  -11.9839   21.3756 H   0  0  0  0  0  0
  -28.4615  -13.6405   21.8495 H   0  0  0  0  0  0
  -25.2784   -9.5699   22.4731 H   0  0  0  0  0  0
  -23.9988   -7.4656   22.7486 H   0  0  0  0  0  0
  -21.0845   -8.8817   19.8962 H   0  0  0  0  0  0
  -22.3715  -10.9693   19.6186 H   0  0  0  0  0  0
  -21.2038   -7.6167   23.9718 H   0  0  0  0  0  0
  -21.1467   -6.0542   25.9075 H   0  0  0  0  0  0
  -22.0599   -2.7611   23.2837 H   0  0  0  0  0  0
  -22.4097  -11.9885   22.4828 H   0  0  0  0  0  0
  -21.1096  -13.1210   22.2640 H   0  0  0  0  0  0
  -24.6489  -15.8399   20.4717 H   0  0  0  0  0  0
  -26.2758  -15.6238   20.0697 H   0  0  0  0  0  0
  -26.7091  -32.5569   23.1176 H   0  0  0  0  0  0
  -25.0016  -33.9795   25.0470 H   0  0  0  0  0  0
  -22.6827  -31.3063   21.4133 H   0  0  0  0  0  0
  -23.3749  -35.9654   23.3315 H   0  0  0  0  0  0
  -24.3581  -36.8921   22.2055 H   0  0  0  0  0  0
  -23.7235  -37.6525   23.6647 H   0  0  0  0  0  0
  -26.0230  -31.6089   20.5844 H   0  0  0  0  0  0
  -26.8120  -30.9068   21.9678 H   0  0  0  0  0  0
  -28.0955  -29.1464   21.1412 H   0  0  0  0  0  0
  -26.0724  -25.9868   19.0043 H   0  0  0  0  0  0
  -23.9855  -27.2843   19.0412 H   0  0  0  0  0  0
  -23.6999  -30.5918   19.4034 H   0  0  0  0  0  0
  -22.7276  -29.2326   19.8785 H   0  0  0  0  0  0
  -25.1286  -36.2002   25.0834 H   0  0  0  0  0  0
  -20.9945  -28.3221   24.1465 H   0  0  0  0  0  0
  -20.5666  -26.2259   23.3616 H   0  0  0  0  0  0
  -21.6633  -26.7446   22.1228 H   0  0  0  0  0  0
  -19.6907  -25.6305   21.1230 H   0  0  0  0  0  0
  -19.6692  -27.3213   20.6764 H   0  0  0  0  0  0
  -17.4197  -26.6696   21.4007 H   0  0  0  0  0  0
  -18.0300  -26.0068   22.9004 H   0  0  0  0  0  0
  -19.7919  -30.7251   24.2308 H   0  0  0  0  0  0
  -17.5000  -31.6262   24.5171 H   0  0  0  0  0  0
  -15.5343  -30.2993   23.7629 H   0  0  0  0  0  0
  -15.8661  -28.0832   22.7034 H   0  0  0  0  0  0
  -24.5919  -30.7013   25.7771 H   0  0  0  0  0  0
  -24.8890  -32.2820   26.4904 H   0  0  0  0  0  0
  -25.8085  -30.8842   27.0199 H   0  0  0  0  0  0
  -26.2811  -29.6814   24.1131 H   0  0  0  0  0  0
  -27.4133  -29.7300   25.4467 H   0  0  0  0  0  0
  -27.8611  -30.4410   23.9123 H   0  0  0  0  0  0
  -27.2685  -33.3605   26.2064 H   0  0  0  0  0  0
  -28.3827  -32.6878   25.0252 H   0  0  0  0  0  0
  -28.0743  -31.8408   26.5334 H   0  0  0  0  0  0
  -28.2620  -38.0101   24.7517 H   0  0  0  0  0  0
  -28.1071  -36.2636   24.6295 H   0  0  0  0  0  0
  -27.2307  -37.1472   25.8870 H   0  0  0  0  0  0
  -20.9286  -29.8726   21.6952 H   0  0  0  0  0  0
  -26.0199  -38.2885   24.1399 H   0  0  0  0  0  0
  -32.4506  -22.5946   16.0199 H   0  0  0  0  0  0
  -33.0908  -20.4036   16.9820 H   0  0  0  0  0  0
  -30.8056  -24.0250   17.1509 H   0  0  0  0  0  0
  -30.3958  -21.1020   20.2901 H   0  0  0  0  0  0
  -34.3900  -19.2394   19.4965 H   0  0  0  0  0  0
  -33.5570  -20.2516   20.6611 H   0  0  0  0  0  0
  -33.3782  -18.5628   22.1469 H   0  0  0  0  0  0
  -34.2801  -17.4957   21.0834 H   0  0  0  0  0  0
  -30.3902  -18.0477   19.5724 H   0  0  0  0  0  0
  -30.7945  -19.0997   20.9291 H   0  0  0  0  0  0
  -32.4354  -18.5875   18.4178 H   0  0  0  0  0  0
  -32.4066  -16.7500   19.9689 H   0  0  0  0  0  0
  -29.5518  -16.0702   21.0452 H   0  0  0  0  0  0
  -29.9530  -15.0971   22.4466 H   0  0  0  0  0  0
  -30.2999  -25.2728   19.1355 H   0  0  0  0  0  0
  -28.8721  -24.8170   18.1976 H   0  0  0  0  0  0
  -28.8866  -25.1944   21.2308 H   0  0  0  0  0  0
  -27.4757  -24.9133   20.2585 H   0  0  0  0  0  0
  -32.3330  -15.8987   22.3030 H   0  0  0  0  0  0
  -30.2888  -17.8823   22.8968 H   0  0  0  0  0  0
  -31.8578  -17.9853   23.3247 H   0  0  0  0  0  0
  -30.9419  -16.7749   23.8988 H   0  0  0  0  0  0
  1 25  1  0  0  0
  1 30  2  0  0  0
  1 82  1  0  0  0
  2  3  1  0  0  0
  2 25  1  0  0  0
  2 88  1  0  0  0
  2 89  1  0  0  0
  3  4  1  0  0  0
  3 90  1  0  0  0
  3 91  1  0  0  0
  4  5  1  0  0  0
  4 92  1  0  0  0
  4 93  1  0  0  0
  5  6  1  0  0  0
  5 26  1  0  0  0
  5 94  1  0  0  0
  6 25  1  0  0  0
  6 95  1  0  0  0
  6 96  1  0  0  0
  7  8  2  0  0  0
  7 26  1  0  0  0
  7 29  1  0  0  0
  8  9  1  0  0  0
  8 22  1  0  0  0
  9 10  1  0  0  0
  9 27  2  0  0  0
 10 11  2  0  0  0
 10 15  1  0  0  0
 11 12  1  0  0  0
 11 97  1  0  0  0
 12 13  2  0  0  0
 12 98  1  0  0  0
 13 14  1  0  0  0
 13 31  1  0  0  0
 14 15  2  0  0  0
 14 99  1  0  0  0
 15100  1  0  0  0
 16 17  2  0  0  0
 16 21  1  0  0  0
 16 31  1  0  0  0
 17 18  1  0  0  0
 17101  1  0  0  0
 18 19  2  0  0  0
 18102  1  0  0  0
 19 20  1  0  0  0
 19 24  1  0  0  0
 20 21  2  0  0  0
 20103  1  0  0  0
 21 23  1  0  0  0
 22 28  1  0  0  0
 22 32  2  0  0  0
 26 27  1  0  0  0
 28104  1  0  0  0
 28105  1  0  0  0
 29106  1  0  0  0
 29107  1  0  0  0
 33 34  1  0  0  0
 33 66  1  0  0  0
 33 70  2  0  0  0
 34 36  1  0  0  0
 34 59  1  0  0  0
 34108  1  0  0  0
 35 44  2  0  0  0
 35 45  1  0  0  0
 35 68  1  0  0  0
 36 56  1  0  0  0
 36109  1  0  0  0
 37 39  1  0  0  0
 37 47  1  0  0  0
 37 66  1  0  0  0
 37110  1  0  0  0
 38 43  2  0  0  0
 38 46  1  0  0  0
 38 47  1  0  0  0
 39 64  1  0  0  0
 39 67  2  0  0  0
 40 52  1  0  0  0
 40 53  2  0  0  0
 40 58  1  0  0  0
 41111  1  0  0  0
 41112  1  0  0  0
 41113  1  0  0  0
 41 48  1  0  0  0
 42 43  1  0  0  0
 42 66  1  0  0  0
 42114  1  0  0  0
 42115  1  0  0  0
 43 44  1  0  0  0
 44116  1  0  0  0
 45 46  2  0  0  0
 45117  1  0  0  0
 46118  1  0  0  0
 47119  1  0  0  0
 47120  1  0  0  0
 48 56  1  0  0  0
 48 65  1  0  0  0
 48121  1  0  0  0
 49 50  1  0  0  0
 49 53  1  0  0  0
 49 64  1  0  0  0
 49122  1  0  0  0
 50 51  1  0  0  0
 50123  1  0  0  0
 50124  1  0  0  0
 51 52  1  0  0  0
 51125  1  0  0  0
 51126  1  0  0  0
 52127  1  0  0  0
 52128  1  0  0  0
 53 54  1  0  0  0
 54 55  2  0  0  0
 54129  1  0  0  0
 55 57  1  0  0  0
 55130  1  0  0  0
 56 69  2  0  0  0
 57 58  2  0  0  0
 57131  1  0  0  0
 58132  1  0  0  0
 59 60  1  0  0  0
 59 61  1  0  0  0
 59 62  1  0  0  0
 60133  1  0  0  0
 60134  1  0  0  0
 60135  1  0  0  0
 61136  1  0  0  0
 61137  1  0  0  0
 61138  1  0  0  0
 62139  1  0  0  0
 62140  1  0  0  0
 62141  1  0  0  0
 63 65  1  0  0  0
 63142  1  0  0  0
 63143  1  0  0  0
 63144  1  0  0  0
 64145  1  0  0  0
 65146  1  0  0  0
 68 84  1  0  0  0
 71 72  2  0  0  0
 71 73  1  0  0  0
 71147  1  0  0  0
 72 75  1  0  0  0
 72148  1  0  0  0
 73 76  2  0  0  0
 73149  1  0  0  0
 74 75  2  0  0  0
 74 76  1  0  0  0
 74150  1  0  0  0
 75 80  1  0  0  0
 76 87  1  0  0  0
 77 78  1  0  0  0
 77 80  1  0  0  0
 77151  1  0  0  0
 77152  1  0  0  0
 78153  1  0  0  0
 78154  1  0  0  0
 78 81  1  0  0  0
 79 80  1  0  0  0
 79 81  1  0  0  0
 79155  1  0  0  0
 79156  1  0  0  0
 80157  1  0  0  0
 81 85  1  0  0  0
 81158  1  0  0  0
 82 85  1  0  0  0
 82159  1  0  0  0
 82160  1  0  0  0
 83 84  1  0  0  0
 83 87  1  0  0  0
 83161  1  0  0  0
 83162  1  0  0  0
 84163  1  0  0  0
 84164  1  0  0  0
 85 86  1  0  0  0
 85165  1  0  0  0
 86166  1  0  0  0
 86167  1  0  0  0
 86168  1  0  0  0
M  CHG  1  86   1
M  ISO  4   1 100  68 101  82 100  84 101
M  END
> <chiral flag>
0

> <version>
0

> <s_m_source_file>
/data/baiqing/PycharmProjects/Reinvent-master-3.2/result/LINK_invent/BTK/process_docking_weight1_custom_sum_contain_oxygen_bond_distance_aromatic_linkinvent_7_9_3/rearranged_h_0139.sdf

> <i_m_source_file_index>
50

> <r_mmod_Potential_Energy-OPLS-2005>
-180.184310913086

> <r_mmod_Stretch_Energy-OPLS-2005>
35.3295936584473

> <r_mmod_Bend_Energy-OPLS-2005>
144.021255493164

> <r_mmod_Torsional_Energy-OPLS-2005>
231.447311401367

> <r_mmod_Improper_Torsional_Energy-OPLS-2005>
1.89429187774658

> <r_mmod_Van_der_Waal_Energy-OPLS-2005>
163.862976074219

> <r_mmod_Electrostatic_Energy-OPLS-2005>
-288.862670898438

> <r_mmod_Solvation_Energy-OPLS-2005>
-479.984161376953

> <b_mmod_Minimization_Converged-OPLS-2005>
0

> <r_mmod_RMS_Derivative-OPLS-2005>
2.39822101593018

$$$$
50
                    3D
 Structure written by MMmdl.
157165  0  0  1  0            999 V2000
  -30.5781  -14.8364   20.3975 C   0  0  0  0  0  0
  -30.4439  -12.4970   19.4925 C   0  0  0  0  0  0
  -29.5268  -12.5159   18.2475 C   0  0  0  0  0  0
  -28.0535  -12.3264   18.6566 C   0  0  0  0  0  0
  -27.6451  -13.2360   19.8431 C   0  0  2  0  0  0
  -28.6900  -13.2111   20.9804 C   0  0  0  0  0  0
  -25.2554  -13.8204   20.5680 C   0  0  0  0  0  0
  -24.1844  -13.0468   20.9202 C   0  0  0  0  0  0
  -24.6435  -11.6927   20.8753 C   0  0  0  0  0  0
  -23.9108  -10.4309   21.0412 C   0  0  0  0  0  0
  -24.3647   -9.4223   21.9188 C   0  0  0  0  0  0
  -23.6320   -8.2263   22.0746 C   0  0  0  0  0  0
  -22.4301   -8.0313   21.3536 C   0  0  0  0  0  0
  -21.9955   -9.0293   20.4637 C   0  0  0  0  0  0
  -22.7292  -10.2161   20.3057 C   0  0  0  0  0  0
  -21.6861   -6.0767   22.5279 C   0  0  0  0  0  0
  -21.4011   -6.5652   23.8219 C   0  0  0  0  0  0
  -21.3660   -5.6797   24.9174 C   0  0  0  0  0  0
  -21.6042   -4.3061   24.7217 C   0  0  0  0  0  0
  -21.8820   -3.8166   23.4333 C   0  0  0  0  0  0
  -21.9196   -4.6992   22.3398 C   0  0  0  0  0  0
  -22.7856  -13.5247   21.1847 C   0  0  0  0  0  0
  -22.1670   -4.2185   21.0977 F   0  0  0  0  0  0
  -21.5643   -3.4544   25.7725 F   0  0  0  0  0  0
  -29.9854  -13.5830   20.3951 N   0  0  0  0  0  0
  -26.2978  -12.9404   20.3255 N   0  0  0  0  0  0
  -25.9366  -11.6536   20.5742 N   0  0  0  0  0  0
  -22.0473  -12.8269   22.0391 N   0  0  0  0  0  0
  -25.4274  -15.1937   20.4041 N   0  0  0  0  0  0
  -31.7671  -14.9319   20.0804 O   0  0  0  0  0  0
  -21.6649   -6.8921   21.4246 O   0  0  0  0  0  0
  -22.3542  -14.5556   20.6673 O   0  0  0  0  0  0
  -24.6379  -31.8466   23.1892 C   0  0  0  0  0  0
  -25.9140  -32.4738   23.8280 C   0  0  1  0  0  0
  -27.2168  -27.1825   20.1305 C   0  0  0  0  0  0
  -25.5893  -33.8548   24.2200 N   0  0  0  0  0  0
  -23.4412  -30.4699   21.5310 C   0  0  2  0  0  0
  -24.8910  -28.9097   20.1010 C   0  0  0  0  0  0
  -22.7539  -29.4564   22.4805 C   0  0  0  0  0  0
  -18.0290  -28.1424   22.8485 C   0  0  0  0  0  0
  -24.1478  -36.7278   23.2644 C   0  0  0  0  0  0
  -25.9930  -30.7362   21.3823 C   0  0  0  0  0  0
  -26.0653  -29.3512   20.7262 C   0  0  0  0  0  0
  -27.2270  -28.4997   20.7306 C   0  0  0  0  0  0
  -26.0269  -26.8474   19.4452 C   0  0  0  0  0  0
  -24.8848  -27.6725   19.4424 C   0  0  0  0  0  0
  -23.6681  -29.8065   20.1480 C   0  0  0  0  0  0
  -25.4105  -36.3050   24.0312 C   0  0  1  0  0  0
  -20.5900  -28.3725   23.1236 C   0  0  2  0  0  0
  -20.6760  -26.9425   22.5400 C   0  0  0  0  0  0
  -19.5739  -26.6399   21.5209 C   0  0  0  0  0  0
  -18.1925  -26.7957   22.1626 C   0  0  0  0  0  0
  -19.1556  -28.8885   23.2866 C   0  0  0  0  0  0
  -18.9470  -30.1468   23.8915 C   0  0  0  0  0  0
  -17.6476  -30.6615   24.0570 C   0  0  0  0  0  0
  -25.9039  -34.9434   23.5054 C   0  0  0  0  0  0
  -16.5359  -29.9125   23.6343 C   0  0  0  0  0  0
  -16.7277  -28.6540   23.0367 C   0  0  0  0  0  0
  -26.4502  -31.6606   25.0701 C   0  0  0  0  0  0
  -25.3703  -31.3787   26.1398 C   0  0  0  0  0  0
  -27.0325  -30.3001   24.6230 C   0  0  0  0  0  0
  -27.6029  -32.4366   25.7496 C   0  0  0  0  0  0
  -27.5569  -37.1788   24.8465 C   0  0  0  0  0  0
  -21.4225  -29.3063   22.3603 N   0  0  0  0  0  0
  -26.4271  -37.3763   23.9431 N   0  0  0  0  0  0
  -24.7111  -31.0372   22.0911 N   0  0  0  0  0  0
  -23.4197  -28.8071   23.2911 O   0  0  0  0  0  0
  -28.2708  -26.2150   20.2190 O   0  0  0  0  0  0
  -26.5651  -34.8915   22.4639 O   0  0  0  0  0  0
  -23.5502  -32.1298   23.7120 O   0  0  0  0  0  0
  -28.6170  -18.0854   19.4540 C   0  0  0  0  0  0
  -30.3993  -18.5429   21.1581 C   0  0  0  0  0  0
  -28.1678  -19.5808   19.8030 C   0  0  0  0  0  0
  -30.3652  -20.1272   20.8183 C   0  0  0  0  0  0
  -29.9308  -17.4719   20.0881 C   0  0  2  0  0  0
  -29.2827  -20.6785   19.8131 C   0  0  2  0  0  0
  -30.2832  -23.7916   20.8162 C   0  0  0  0  0  0
  -28.0092  -24.7267   19.9176 C   0  0  0  0  0  0
  -28.8449  -23.3912   20.4666 C   0  0  2  0  0  0
  -29.7767  -15.9784   20.5269 N   0  0  0  0  0  0
  -28.8594  -22.1421   19.6015 O   0  0  0  0  0  0
  -31.4884  -12.6165   19.2019 H   0  0  0  0  0  0
  -30.3842  -11.5304   19.9967 H   0  0  0  0  0  0
  -29.8203  -11.7411   17.5399 H   0  0  0  0  0  0
  -29.6477  -13.4663   17.7221 H   0  0  0  0  0  0
  -27.9205  -11.2809   18.9338 H   0  0  0  0  0  0
  -27.3987  -12.5000   17.8045 H   0  0  0  0  0  0
  -27.6304  -14.2465   19.4368 H   0  0  0  0  0  0
  -28.7462  -12.2211   21.4351 H   0  0  0  0  0  0
  -28.4132  -13.9068   21.7743 H   0  0  0  0  0  0
  -25.2783   -9.5701   22.4772 H   0  0  0  0  0  0
  -24.0026   -7.4644   22.7463 H   0  0  0  0  0  0
  -21.0892   -8.8825   19.8941 H   0  0  0  0  0  0
  -22.3763  -10.9705   19.6173 H   0  0  0  0  0  0
  -21.1988   -7.6151   23.9746 H   0  0  0  0  0  0
  -21.1483   -6.0510   25.9083 H   0  0  0  0  0  0
  -22.0592   -2.7631   23.2823 H   0  0  0  0  0  0
  -22.4052  -11.9948   22.4819 H   0  0  0  0  0  0
  -21.1082  -13.1300   22.2525 H   0  0  0  0  0  0
  -24.6549  -15.8480   20.4777 H   0  0  0  0  0  0
  -26.2752  -15.6224   20.0541 H   0  0  0  0  0  0
  -26.7189  -32.5385   23.1008 H   0  0  0  0  0  0
  -25.0002  -33.9684   25.0325 H   0  0  0  0  0  0
  -22.7413  -31.2939   21.3784 H   0  0  0  0  0  0
  -23.3733  -35.9626   23.3304 H   0  0  0  0  0  0
  -24.3543  -36.8913   22.2060 H   0  0  0  0  0  0
  -23.7239  -37.6478   23.6675 H   0  0  0  0  0  0
  -26.1298  -31.4928   20.6072 H   0  0  0  0  0  0
  -26.8706  -30.7982   22.0132 H   0  0  0  0  0  0
  -28.1210  -28.8242   21.2433 H   0  0  0  0  0  0
  -25.9501  -25.9177   18.9016 H   0  0  0  0  0  0
  -24.0001  -27.3416   18.9166 H   0  0  0  0  0  0
  -23.7991  -30.5829   19.3934 H   0  0  0  0  0  0
  -22.7883  -29.2419   19.8347 H   0  0  0  0  0  0
  -25.1289  -36.1878   25.0807 H   0  0  0  0  0  0
  -21.0027  -28.3306   24.1341 H   0  0  0  0  0  0
  -20.5623  -26.2348   23.3609 H   0  0  0  0  0  0
  -21.6623  -26.7405   22.1204 H   0  0  0  0  0  0
  -19.6873  -25.6301   21.1251 H   0  0  0  0  0  0
  -19.6674  -27.3200   20.6730 H   0  0  0  0  0  0
  -17.4167  -26.6702   21.4046 H   0  0  0  0  0  0
  -18.0313  -26.0123   22.9051 H   0  0  0  0  0  0
  -19.7946  -30.7276   24.2314 H   0  0  0  0  0  0
  -17.5034  -31.6298   24.5159 H   0  0  0  0  0  0
  -15.5367  -30.3044   23.7653 H   0  0  0  0  0  0
  -15.8667  -28.0859   22.7110 H   0  0  0  0  0  0
  -24.5914  -30.7086   25.7742 H   0  0  0  0  0  0
  -24.8853  -32.2965   26.4727 H   0  0  0  0  0  0
  -25.7996  -30.9050   27.0232 H   0  0  0  0  0  0
  -26.2890  -29.6773   24.1237 H   0  0  0  0  0  0
  -27.3951  -29.7252   25.4769 H   0  0  0  0  0  0
  -27.8802  -30.4247   23.9488 H   0  0  0  0  0  0
  -27.2609  -33.3708   26.1966 H   0  0  0  0  0  0
  -28.3896  -32.6866   25.0366 H   0  0  0  0  0  0
  -28.0614  -31.8551   26.5509 H   0  0  0  0  0  0
  -28.2561  -38.0112   24.7504 H   0  0  0  0  0  0
  -28.1068  -36.2621   24.6263 H   0  0  0  0  0  0
  -27.2264  -37.1401   25.8862 H   0  0  0  0  0  0
  -20.9382  -29.8889   21.6915 H   0  0  0  0  0  0
  -26.0124  -38.2819   24.1486 H   0  0  0  0  0  0
  -28.7029  -18.0038   18.3695 H   0  0  0  0  0  0
  -27.7713  -17.4420   19.7037 H   0  0  0  0  0  0
  -29.7820  -18.3925   22.0443 H   0  0  0  0  0  0
  -31.4105  -18.2866   21.4775 H   0  0  0  0  0  0
  -27.6774  -19.5823   20.7785 H   0  0  0  0  0  0
  -27.3900  -19.8674   19.0943 H   0  0  0  0  0  0
  -31.3422  -20.4180   20.4331 H   0  0  0  0  0  0
  -30.2550  -20.6579   21.7651 H   0  0  0  0  0  0
  -30.6894  -17.4723   19.3002 H   0  0  0  0  0  0
  -29.7662  -20.5187   18.8477 H   0  0  0  0  0  0
  -30.2720  -24.5330   21.6177 H   0  0  0  0  0  0
  -30.8702  -22.9495   21.1717 H   0  0  0  0  0  0
  -30.8029  -24.2382   19.9674 H   0  0  0  0  0  0
  -26.9806  -24.5144   20.2101 H   0  0  0  0  0  0
  -28.0003  -24.6566   18.8288 H   0  0  0  0  0  0
  -28.3697  -23.0789   21.3972 H   0  0  0  0  0  0
  -28.8352  -15.7495   20.8043 H   0  0  0  0  0  0
  1 25  1  0  0  0
  1 30  2  0  0  0
  1 80  1  0  0  0
  2  3  1  0  0  0
  2 25  1  0  0  0
  2 82  1  0  0  0
  2 83  1  0  0  0
  3  4  1  0  0  0
  3 84  1  0  0  0
  3 85  1  0  0  0
  4  5  1  0  0  0
  4 86  1  0  0  0
  4 87  1  0  0  0
  5  6  1  0  0  0
  5 26  1  0  0  0
  5 88  1  0  0  0
  6 25  1  0  0  0
  6 89  1  0  0  0
  6 90  1  0  0  0
  7  8  2  0  0  0
  7 26  1  0  0  0
  7 29  1  0  0  0
  8  9  1  0  0  0
  8 22  1  0  0  0
  9 10  1  0  0  0
  9 27  2  0  0  0
 10 11  2  0  0  0
 10 15  1  0  0  0
 11 12  1  0  0  0
 11 91  1  0  0  0
 12 13  2  0  0  0
 12 92  1  0  0  0
 13 14  1  0  0  0
 13 31  1  0  0  0
 14 15  2  0  0  0
 14 93  1  0  0  0
 15 94  1  0  0  0
 16 17  2  0  0  0
 16 21  1  0  0  0
 16 31  1  0  0  0
 17 18  1  0  0  0
 17 95  1  0  0  0
 18 19  2  0  0  0
 18 96  1  0  0  0
 19 20  1  0  0  0
 19 24  1  0  0  0
 20 21  2  0  0  0
 20 97  1  0  0  0
 21 23  1  0  0  0
 22 28  1  0  0  0
 22 32  2  0  0  0
 26 27  1  0  0  0
 28 98  1  0  0  0
 28 99  1  0  0  0
 29100  1  0  0  0
 29101  1  0  0  0
 33 34  1  0  0  0
 33 66  1  0  0  0
 33 70  2  0  0  0
 34 36  1  0  0  0
 34 59  1  0  0  0
 34102  1  0  0  0
 35 44  2  0  0  0
 35 45  1  0  0  0
 35 68  1  0  0  0
 36 56  1  0  0  0
 36103  1  0  0  0
 37 39  1  0  0  0
 37 47  1  0  0  0
 37 66  1  0  0  0
 37104  1  0  0  0
 38 43  2  0  0  0
 38 46  1  0  0  0
 38 47  1  0  0  0
 39 64  1  0  0  0
 39 67  2  0  0  0
 40 52  1  0  0  0
 40 53  2  0  0  0
 40 58  1  0  0  0
 41105  1  0  0  0
 41106  1  0  0  0
 41107  1  0  0  0
 41 48  1  0  0  0
 42 43  1  0  0  0
 42 66  1  0  0  0
 42108  1  0  0  0
 42109  1  0  0  0
 43 44  1  0  0  0
 44110  1  0  0  0
 45 46  2  0  0  0
 45111  1  0  0  0
 46112  1  0  0  0
 47113  1  0  0  0
 47114  1  0  0  0
 48 56  1  0  0  0
 48 65  1  0  0  0
 48115  1  0  0  0
 49 50  1  0  0  0
 49 53  1  0  0  0
 49 64  1  0  0  0
 49116  1  0  0  0
 50 51  1  0  0  0
 50117  1  0  0  0
 50118  1  0  0  0
 51 52  1  0  0  0
 51119  1  0  0  0
 51120  1  0  0  0
 52121  1  0  0  0
 52122  1  0  0  0
 53 54  1  0  0  0
 54 55  2  0  0  0
 54123  1  0  0  0
 55 57  1  0  0  0
 55124  1  0  0  0
 56 69  2  0  0  0
 57 58  2  0  0  0
 57125  1  0  0  0
 58126  1  0  0  0
 59 60  1  0  0  0
 59 61  1  0  0  0
 59 62  1  0  0  0
 60127  1  0  0  0
 60128  1  0  0  0
 60129  1  0  0  0
 61130  1  0  0  0
 61131  1  0  0  0
 61132  1  0  0  0
 62133  1  0  0  0
 62134  1  0  0  0
 62135  1  0  0  0
 63 65  1  0  0  0
 63136  1  0  0  0
 63137  1  0  0  0
 63138  1  0  0  0
 64139  1  0  0  0
 65140  1  0  0  0
 68 78  1  0  0  0
 71 73  1  0  0  0
 71 75  1  0  0  0
 71141  1  0  0  0
 71142  1  0  0  0
 72 74  1  0  0  0
 72 75  1  0  0  0
 72143  1  0  0  0
 72144  1  0  0  0
 73 76  1  0  0  0
 73145  1  0  0  0
 73146  1  0  0  0
 74 76  1  0  0  0
 74147  1  0  0  0
 74148  1  0  0  0
 75 80  1  0  0  0
 75149  1  0  0  0
 76 81  1  0  0  0
 76150  1  0  0  0
 77151  1  0  0  0
 77152  1  0  0  0
 77153  1  0  0  0
 77 79  1  0  0  0
 78 79  1  0  0  0
 78154  1  0  0  0
 78155  1  0  0  0
 79 81  1  0  0  0
 79156  1  0  0  0
 80157  1  0  0  0
M  ISO  4   1 100  68 101  78 101  80 100
M  END
> <chiral flag>
0

> <version>
0

> <s_m_source_file>
/data/baiqing/PycharmProjects/Reinvent-master-3.2/result/LINK_invent/BTK/process_docking_weight1_custom_sum_contain_oxygen_bond_distance_aromatic_linkinvent_7_9_3/rearranged_h_0139.sdf

> <i_m_source_file_index>
51

> <r_mmod_Potential_Energy-OPLS-2005>
404.875854492188

> <r_mmod_Stretch_Energy-OPLS-2005>
189.642196655273

> <r_mmod_Bend_Energy-OPLS-2005>
284.409484863281

> <r_mmod_Torsional_Energy-OPLS-2005>
262.665100097656

> <r_mmod_Improper_Torsional_Energy-OPLS-2005>
5.92369747161865

> <r_mmod_Van_der_Waal_Energy-OPLS-2005>
117.311279296875

> <r_mmod_Electrostatic_Energy-OPLS-2005>
-385.392242431641

> <r_mmod_Solvation_Energy-OPLS-2005>
-208.690490722656

> <b_mmod_Minimization_Converged-OPLS-2005>
0

> <r_mmod_RMS_Derivative-OPLS-2005>
4.29586744308472

$$$$
51
                    3D
 Structure written by MMmdl.
170178  0  0  1  0            999 V2000
  -30.6859  -14.4247   20.6264 C   0  0  0  0  0  0
  -30.4249  -12.3015   19.4093 C   0  0  0  0  0  0
  -29.4894  -12.5268   18.2034 C   0  0  0  0  0  0
  -28.0110  -12.3793   18.6182 C   0  0  0  0  0  0
  -27.6599  -13.2040   19.8834 C   0  0  2  0  0  0
  -28.6935  -12.9314   20.9970 C   0  0  0  0  0  0
  -25.2516  -13.8180   20.5646 C   0  0  0  0  0  0
  -24.1800  -13.0445   20.9218 C   0  0  0  0  0  0
  -24.6385  -11.6921   20.8803 C   0  0  0  0  0  0
  -23.9092  -10.4290   21.0461 C   0  0  0  0  0  0
  -24.3638   -9.4167   21.9198 C   0  0  0  0  0  0
  -23.6289   -8.2214   22.0725 C   0  0  0  0  0  0
  -22.4266   -8.0289   21.3518 C   0  0  0  0  0  0
  -21.9935   -9.0291   20.4626 C   0  0  0  0  0  0
  -22.7300  -10.2150   20.3068 C   0  0  0  0  0  0
  -21.6839   -6.0740   22.5250 C   0  0  0  0  0  0
  -21.4024   -6.5629   23.8192 C   0  0  0  0  0  0
  -21.3658   -5.6767   24.9138 C   0  0  0  0  0  0
  -21.6045   -4.3035   24.7176 C   0  0  0  0  0  0
  -21.8838   -3.8148   23.4292 C   0  0  0  0  0  0
  -21.9187   -4.6971   22.3359 C   0  0  0  0  0  0
  -22.7801  -13.5201   21.1881 C   0  0  0  0  0  0
  -22.1639   -4.2168   21.0929 F   0  0  0  0  0  0
  -21.5614   -3.4517   25.7684 F   0  0  0  0  0  0
  -30.0372  -13.2439   20.4696 N   0  0  0  0  0  0
  -26.2972  -12.9351   20.3382 N   0  0  0  0  0  0
  -25.9293  -11.6515   20.5798 N   0  0  0  0  0  0
  -22.0449  -12.8210   22.0470 N   0  0  0  0  0  0
  -25.4210  -15.1891   20.3914 N   0  0  0  0  0  0
  -31.7577  -14.6957   20.0741 O   0  0  0  0  0  0
  -21.6604   -6.8901   21.4226 O   0  0  0  0  0  0
  -22.3484  -14.5491   20.6681 O   0  0  0  0  0  0
  -24.6124  -31.8660   23.2079 C   0  0  0  0  0  0
  -25.9012  -32.4812   23.8404 C   0  0  1  0  0  0
  -27.2498  -27.4402   20.1045 C   0  0  0  0  0  0
  -25.5870  -33.8616   24.2338 N   0  0  0  0  0  0
  -23.4023  -30.4858   21.5463 C   0  0  2  0  0  0
  -24.8533  -28.9435   20.1244 C   0  0  0  0  0  0
  -22.7404  -29.4619   22.4965 C   0  0  0  0  0  0
  -18.0280  -28.1357   22.8485 C   0  0  0  0  0  0
  -24.1482  -36.7327   23.2639 C   0  0  0  0  0  0
  -25.9277  -30.8347   21.3558 C   0  0  0  0  0  0
  -26.0094  -29.4650   20.7144 C   0  0  0  0  0  0
  -27.2081  -28.7196   20.7007 C   0  0  0  0  0  0
  -26.0692  -26.9207   19.5207 C   0  0  0  0  0  0
  -24.8758  -27.6694   19.5294 C   0  0  0  0  0  0
  -23.6161  -29.8097   20.1648 C   0  0  0  0  0  0
  -25.4093  -36.3117   24.0343 C   0  0  1  0  0  0
  -20.5865  -28.3619   23.1317 C   0  0  2  0  0  0
  -20.6752  -26.9347   22.5423 C   0  0  0  0  0  0
  -19.5751  -26.6361   21.5190 C   0  0  0  0  0  0
  -18.1927  -26.7907   22.1587 C   0  0  0  0  0  0
  -19.1529  -28.8797   23.2906 C   0  0  0  0  0  0
  -18.9467  -30.1403   23.8917 C   0  0  0  0  0  0
  -17.6479  -30.6569   24.0551 C   0  0  0  0  0  0
  -25.9004  -34.9470   23.5144 C   0  0  0  0  0  0
  -16.5368  -29.9084   23.6322 C   0  0  0  0  0  0
  -16.7269  -28.6485   23.0355 C   0  0  0  0  0  0
  -26.4448  -31.6592   25.0719 C   0  0  0  0  0  0
  -25.3754  -31.3697   26.1511 C   0  0  0  0  0  0
  -27.0249  -30.3042   24.6042 C   0  0  0  0  0  0
  -27.6038  -32.4295   25.7485 C   0  0  0  0  0  0
  -27.5576  -37.1816   24.8460 C   0  0  0  0  0  0
  -21.4129  -29.3007   22.3737 N   0  0  0  0  0  0
  -26.4287  -37.3789   23.9403 N   0  0  0  0  0  0
  -24.6661  -31.0766   22.0966 N   0  0  0  0  0  0
  -23.4185  -28.8122   23.2978 O   0  0  0  0  0  0
  -28.4564  -26.7701   20.0927 O   0  0  0  0  0  0
  -26.5562  -34.8920   22.4704 O   0  0  0  0  0  0
  -23.5323  -32.1405   23.7484 O   0  0  0  0  0  0
  -25.1034  -22.0225   22.9125 C   0  0  0  0  0  0
  -25.7657  -20.7532   20.9509 C   0  0  0  0  0  0
  -24.8141  -21.0472   21.9461 C   0  0  0  0  0  0
  -26.3061  -22.7511   22.8548 C   0  0  0  0  0  0
  -26.9929  -21.4569   20.8794 C   0  0  0  0  0  0
  -27.2290  -22.5216   21.7952 C   0  0  0  0  0  0
  -23.4812  -20.3259   21.9895 C   0  0  0  0  0  0
  -26.5657  -23.7535   23.9684 C   0  0  0  0  0  0
  -27.9878  -21.1004   19.7620 C   0  0  0  0  0  0
  -30.1668  -16.7936   21.3081 C   0  0  0  0  0  0
  -28.0816  -24.7840   21.4740 C   0  0  0  0  0  0
  -28.2304  -19.5864   19.5355 C   0  0  0  0  0  0
  -28.9727  -17.4597   20.5839 C   0  0  0  0  0  0
  -28.4842  -25.3390   20.0922 C   0  0  0  0  0  0
  -28.3525  -23.3493   21.6285 N   0  0  0  0  0  0
  -30.0006  -15.3367   21.3332 N   0  0  0  0  0  0
  -29.0099  -18.9423   20.6177 N   0  3  0  0  0  0
  -31.4661  -12.4268   19.1035 H   0  0  0  0  0  0
  -30.3390  -11.2755   19.7712 H   0  0  0  0  0  0
  -29.7230  -11.8146   17.4123 H   0  0  0  0  0  0
  -29.6657  -13.5171   17.7792 H   0  0  0  0  0  0
  -27.8254  -11.3211   18.8095 H   0  0  0  0  0  0
  -27.3538  -12.6551   17.7939 H   0  0  0  0  0  0
  -27.7196  -14.2587   19.6175 H   0  0  0  0  0  0
  -28.6495  -11.8802   21.2834 H   0  0  0  0  0  0
  -28.4417  -13.4819   21.9043 H   0  0  0  0  0  0
  -25.2797   -9.5573   22.4766 H   0  0  0  0  0  0
  -23.9980   -7.4560   22.7404 H   0  0  0  0  0  0
  -21.0868   -8.8877   19.8898 H   0  0  0  0  0  0
  -22.3841  -10.9704   19.6159 H   0  0  0  0  0  0
  -21.2054   -7.6144   23.9713 H   0  0  0  0  0  0
  -21.1446   -6.0469   25.9039 H   0  0  0  0  0  0
  -22.0639   -2.7621   23.2765 H   0  0  0  0  0  0
  -22.4062  -11.9924   22.4961 H   0  0  0  0  0  0
  -21.1039  -13.1179   22.2615 H   0  0  0  0  0  0
  -24.6474  -15.8418   20.4634 H   0  0  0  0  0  0
  -26.2550  -15.6096   20.0047 H   0  0  0  0  0  0
  -26.7080  -32.5533   23.1170 H   0  0  0  0  0  0
  -25.0062  -33.9789   25.0518 H   0  0  0  0  0  0
  -22.6893  -31.2997   21.3984 H   0  0  0  0  0  0
  -23.3739  -35.9670   23.3299 H   0  0  0  0  0  0
  -24.3598  -36.8931   22.2057 H   0  0  0  0  0  0
  -23.7250  -37.6542   23.6639 H   0  0  0  0  0  0
  -26.0287  -31.5898   20.5759 H   0  0  0  0  0  0
  -26.8213  -30.9067   21.9635 H   0  0  0  0  0  0
  -28.1052  -29.1230   21.1531 H   0  0  0  0  0  0
  -26.0514  -25.9501   19.0489 H   0  0  0  0  0  0
  -23.9825  -27.2606   19.0771 H   0  0  0  0  0  0
  -23.7300  -30.5754   19.3977 H   0  0  0  0  0  0
  -22.7432  -29.2257   19.8672 H   0  0  0  0  0  0
  -25.1271  -36.1989   25.0835 H   0  0  0  0  0  0
  -20.9972  -28.3196   24.1431 H   0  0  0  0  0  0
  -20.5578  -26.2238   23.3616 H   0  0  0  0  0  0
  -21.6635  -26.7340   22.1269 H   0  0  0  0  0  0
  -19.6904  -25.6266   21.1213 H   0  0  0  0  0  0
  -19.6731  -27.3191   20.6740 H   0  0  0  0  0  0
  -17.4197  -26.6671   21.3986 H   0  0  0  0  0  0
  -18.0317  -26.0027   22.8962 H   0  0  0  0  0  0
  -19.7948  -30.7191   24.2302 H   0  0  0  0  0  0
  -17.5055  -31.6259   24.5139 H   0  0  0  0  0  0
  -15.5367  -30.3011   23.7626 H   0  0  0  0  0  0
  -15.8662  -28.0822   22.7065 H   0  0  0  0  0  0
  -24.5955  -30.6962   25.7916 H   0  0  0  0  0  0
  -24.8905  -32.2847   26.4925 H   0  0  0  0  0  0
  -25.8178  -30.8952   27.0289 H   0  0  0  0  0  0
  -26.2760  -29.6844   24.1080 H   0  0  0  0  0  0
  -27.4036  -29.7215   25.4455 H   0  0  0  0  0  0
  -27.8591  -30.4372   23.9152 H   0  0  0  0  0  0
  -27.2655  -33.3585   26.2094 H   0  0  0  0  0  0
  -28.3847  -32.6864   25.0312 H   0  0  0  0  0  0
  -28.0702  -31.8392   26.5387 H   0  0  0  0  0  0
  -28.2596  -38.0106   24.7499 H   0  0  0  0  0  0
  -28.1070  -36.2646   24.6288 H   0  0  0  0  0  0
  -27.2305  -37.1469   25.8865 H   0  0  0  0  0  0
  -20.9262  -29.8861   21.7097 H   0  0  0  0  0  0
  -26.0183  -38.2868   24.1421 H   0  0  0  0  0  0
  -24.3906  -22.2240   23.7002 H   0  0  0  0  0  0
  -25.5255  -19.9905   20.2248 H   0  0  0  0  0  0
  -23.3778  -19.7675   22.9190 H   0  0  0  0  0  0
  -23.3684  -19.6312   21.1566 H   0  0  0  0  0  0
  -22.6645  -21.0465   21.9388 H   0  0  0  0  0  0
  -26.1110  -23.4071   24.8973 H   0  0  0  0  0  0
  -26.1394  -24.7273   23.7243 H   0  0  0  0  0  0
  -27.6329  -23.8702   24.1568 H   0  0  0  0  0  0
  -28.9556  -21.5705   19.9263 H   0  0  0  0  0  0
  -27.6070  -21.5390   18.8398 H   0  0  0  0  0  0
  -30.2382  -17.1479   22.3372 H   0  0  0  0  0  0
  -31.1006  -17.0682   20.8135 H   0  0  0  0  0  0
  -27.0299  -25.0186   21.6373 H   0  0  0  0  0  0
  -28.6408  -25.3109   22.2492 H   0  0  0  0  0  0
  -28.7744  -19.4453   18.5999 H   0  0  0  0  0  0
  -27.2836  -19.0655   19.4039 H   0  0  0  0  0  0
  -28.0285  -17.1291   21.0220 H   0  0  0  0  0  0
  -28.9656  -17.1218   19.5458 H   0  0  0  0  0  0
  -29.5158  -25.0493   19.8865 H   0  0  0  0  0  0
  -27.8935  -24.9082   19.2849 H   0  0  0  0  0  0
  -29.0436  -23.0018   20.9746 H   0  0  0  0  0  0
  -29.1834  -14.9870   21.8107 H   0  0  0  0  0  0
  -28.6544  -19.2585   21.5060 H   0  0  0  0  0  0
  -29.9673  -19.2487   20.5417 H   0  0  0  0  0  0
  1 25  1  0  0  0
  1 30  2  0  0  0
  1 86  1  0  0  0
  2  3  1  0  0  0
  2 25  1  0  0  0
  2 88  1  0  0  0
  2 89  1  0  0  0
  3  4  1  0  0  0
  3 90  1  0  0  0
  3 91  1  0  0  0
  4  5  1  0  0  0
  4 92  1  0  0  0
  4 93  1  0  0  0
  5  6  1  0  0  0
  5 26  1  0  0  0
  5 94  1  0  0  0
  6 25  1  0  0  0
  6 95  1  0  0  0
  6 96  1  0  0  0
  7  8  2  0  0  0
  7 26  1  0  0  0
  7 29  1  0  0  0
  8  9  1  0  0  0
  8 22  1  0  0  0
  9 10  1  0  0  0
  9 27  2  0  0  0
 10 11  2  0  0  0
 10 15  1  0  0  0
 11 12  1  0  0  0
 11 97  1  0  0  0
 12 13  2  0  0  0
 12 98  1  0  0  0
 13 14  1  0  0  0
 13 31  1  0  0  0
 14 15  2  0  0  0
 14 99  1  0  0  0
 15100  1  0  0  0
 16 17  2  0  0  0
 16 21  1  0  0  0
 16 31  1  0  0  0
 17 18  1  0  0  0
 17101  1  0  0  0
 18 19  2  0  0  0
 18102  1  0  0  0
 19 20  1  0  0  0
 19 24  1  0  0  0
 20 21  2  0  0  0
 20103  1  0  0  0
 21 23  1  0  0  0
 22 28  1  0  0  0
 22 32  2  0  0  0
 26 27  1  0  0  0
 28104  1  0  0  0
 28105  1  0  0  0
 29106  1  0  0  0
 29107  1  0  0  0
 33 34  1  0  0  0
 33 66  1  0  0  0
 33 70  2  0  0  0
 34 36  1  0  0  0
 34 59  1  0  0  0
 34108  1  0  0  0
 35 44  2  0  0  0
 35 45  1  0  0  0
 35 68  1  0  0  0
 36 56  1  0  0  0
 36109  1  0  0  0
 37 39  1  0  0  0
 37 47  1  0  0  0
 37 66  1  0  0  0
 37110  1  0  0  0
 38 43  2  0  0  0
 38 46  1  0  0  0
 38 47  1  0  0  0
 39 64  1  0  0  0
 39 67  2  0  0  0
 40 52  1  0  0  0
 40 53  2  0  0  0
 40 58  1  0  0  0
 41111  1  0  0  0
 41112  1  0  0  0
 41113  1  0  0  0
 41 48  1  0  0  0
 42 43  1  0  0  0
 42 66  1  0  0  0
 42114  1  0  0  0
 42115  1  0  0  0
 43 44  1  0  0  0
 44116  1  0  0  0
 45 46  2  0  0  0
 45117  1  0  0  0
 46118  1  0  0  0
 47119  1  0  0  0
 47120  1  0  0  0
 48 56  1  0  0  0
 48 65  1  0  0  0
 48121  1  0  0  0
 49 50  1  0  0  0
 49 53  1  0  0  0
 49 64  1  0  0  0
 49122  1  0  0  0
 50 51  1  0  0  0
 50123  1  0  0  0
 50124  1  0  0  0
 51 52  1  0  0  0
 51125  1  0  0  0
 51126  1  0  0  0
 52127  1  0  0  0
 52128  1  0  0  0
 53 54  1  0  0  0
 54 55  2  0  0  0
 54129  1  0  0  0
 55 57  1  0  0  0
 55130  1  0  0  0
 56 69  2  0  0  0
 57 58  2  0  0  0
 57131  1  0  0  0
 58132  1  0  0  0
 59 60  1  0  0  0
 59 61  1  0  0  0
 59 62  1  0  0  0
 60133  1  0  0  0
 60134  1  0  0  0
 60135  1  0  0  0
 61136  1  0  0  0
 61137  1  0  0  0
 61138  1  0  0  0
 62139  1  0  0  0
 62140  1  0  0  0
 62141  1  0  0  0
 63 65  1  0  0  0
 63142  1  0  0  0
 63143  1  0  0  0
 63144  1  0  0  0
 64145  1  0  0  0
 65146  1  0  0  0
 68 84  1  0  0  0
 71 73  2  0  0  0
 71 74  1  0  0  0
 71147  1  0  0  0
 72 73  1  0  0  0
 72 75  2  0  0  0
 72148  1  0  0  0
 73 77  1  0  0  0
 74 76  2  0  0  0
 74 78  1  0  0  0
 75 76  1  0  0  0
 75 79  1  0  0  0
 76 85  1  0  0  0
 77149  1  0  0  0
 77150  1  0  0  0
 77151  1  0  0  0
 78152  1  0  0  0
 78153  1  0  0  0
 78154  1  0  0  0
 79 82  1  0  0  0
 79155  1  0  0  0
 79156  1  0  0  0
 80 83  1  0  0  0
 80 86  1  0  0  0
 80157  1  0  0  0
 80158  1  0  0  0
 81 84  1  0  0  0
 81 85  1  0  0  0
 81159  1  0  0  0
 81160  1  0  0  0
 82 87  1  0  0  0
 82161  1  0  0  0
 82162  1  0  0  0
 83 87  1  0  0  0
 83163  1  0  0  0
 83164  1  0  0  0
 84165  1  0  0  0
 84166  1  0  0  0
 85167  1  0  0  0
 86168  1  0  0  0
 87169  1  0  0  0
 87170  1  0  0  0
M  CHG  1  87   1
M  ISO  4   1 100  68 101  84 101  86 100
M  END
> <chiral flag>
0

> <version>
0

> <s_m_source_file>
/data/baiqing/PycharmProjects/Reinvent-master-3.2/result/LINK_invent/BTK/process_docking_weight1_custom_sum_contain_oxygen_bond_distance_aromatic_linkinvent_7_9_3/rearranged_h_0139.sdf

> <i_m_source_file_index>
52

> <r_mmod_Potential_Energy-OPLS-2005>
-340.544097900391

> <r_mmod_Stretch_Energy-OPLS-2005>
37.525276184082

> <r_mmod_Bend_Energy-OPLS-2005>
100.663154602051

> <r_mmod_Torsional_Energy-OPLS-2005>
220.420516967773

> <r_mmod_Improper_Torsional_Energy-OPLS-2005>
8.15228462219238

> <r_mmod_Van_der_Waal_Energy-OPLS-2005>
155.156341552734

> <r_mmod_Electrostatic_Energy-OPLS-2005>
-378.746490478516

> <r_mmod_Solvation_Energy-OPLS-2005>
-493.589996337891

> <b_mmod_Minimization_Converged-OPLS-2005>
0

> <r_mmod_RMS_Derivative-OPLS-2005>
3.26231598854065

$$$$
52
                    3D
 Structure written by MMmdl.
163171  0  0  1  0            999 V2000
  -30.5684  -14.7895   20.5348 C   0  0  0  0  0  0
  -30.4317  -12.4911   19.5034 C   0  0  0  0  0  0
  -29.5320  -12.5420   18.2474 C   0  0  0  0  0  0
  -28.0538  -12.3417   18.6408 C   0  0  0  0  0  0
  -27.6407  -13.2360   19.8422 C   0  0  2  0  0  0
  -28.6672  -13.1659   20.9957 C   0  0  0  0  0  0
  -25.2507  -13.8190   20.5635 C   0  0  0  0  0  0
  -24.1833  -13.0455   20.9180 C   0  0  0  0  0  0
  -24.6411  -11.6903   20.8703 C   0  0  0  0  0  0
  -23.9070  -10.4303   21.0366 C   0  0  0  0  0  0
  -24.3615   -9.4229   21.9149 C   0  0  0  0  0  0
  -23.6315   -8.2262   22.0726 C   0  0  0  0  0  0
  -22.4323   -8.0275   21.3521 C   0  0  0  0  0  0
  -21.9938   -9.0242   20.4635 C   0  0  0  0  0  0
  -22.7242  -10.2117   20.3028 C   0  0  0  0  0  0
  -21.6869   -6.0749   22.5299 C   0  0  0  0  0  0
  -21.4015   -6.5634   23.8223 C   0  0  0  0  0  0
  -21.3664   -5.6783   24.9184 C   0  0  0  0  0  0
  -21.6056   -4.3060   24.7230 C   0  0  0  0  0  0
  -21.8817   -3.8148   23.4351 C   0  0  0  0  0  0
  -21.9191   -4.6969   22.3411 C   0  0  0  0  0  0
  -22.7868  -13.5232   21.1839 C   0  0  0  0  0  0
  -22.1674   -4.2153   21.0998 F   0  0  0  0  0  0
  -21.5627   -3.4529   25.7729 F   0  0  0  0  0  0
  -29.9668  -13.5488   20.4389 N   0  0  0  0  0  0
  -26.2933  -12.9407   20.3148 N   0  0  0  0  0  0
  -25.9336  -11.6546   20.5658 N   0  0  0  0  0  0
  -22.0503  -12.8254   22.0389 N   0  0  0  0  0  0
  -25.4229  -15.1921   20.4087 N   0  0  0  0  0  0
  -31.7410  -14.9164   20.1644 O   0  0  0  0  0  0
  -21.6668   -6.8897   21.4273 O   0  0  0  0  0  0
  -22.3554  -14.5546   20.6652 O   0  0  0  0  0  0
  -24.6317  -31.8556   23.1908 C   0  0  0  0  0  0
  -25.9144  -32.4753   23.8298 C   0  0  1  0  0  0
  -27.2557  -27.2797   20.1198 C   0  0  0  0  0  0
  -25.5962  -33.8545   24.2252 N   0  0  0  0  0  0
  -23.4341  -30.4723   21.5324 C   0  0  2  0  0  0
  -24.8881  -28.9050   20.1168 C   0  0  0  0  0  0
  -22.7510  -29.4616   22.4864 C   0  0  0  0  0  0
  -18.0309  -28.1395   22.8468 C   0  0  0  0  0  0
  -24.1487  -36.7285   23.2637 C   0  0  0  0  0  0
  -25.9769  -30.7719   21.3701 C   0  0  0  0  0  0
  -26.0574  -29.3902   20.7188 C   0  0  0  0  0  0
  -27.2463  -28.5895   20.7068 C   0  0  0  0  0  0
  -26.0664  -26.8577   19.4953 C   0  0  0  0  0  0
  -24.8938  -27.6431   19.5012 C   0  0  0  0  0  0
  -23.6587  -29.7912   20.1546 C   0  0  0  0  0  0
  -25.4110  -36.3076   24.0341 C   0  0  1  0  0  0
  -20.5906  -28.3752   23.1198 C   0  0  2  0  0  0
  -20.6773  -26.9453   22.5372 C   0  0  0  0  0  0
  -19.5745  -26.6398   21.5174 C   0  0  0  0  0  0
  -18.1938  -26.7937   22.1606 C   0  0  0  0  0  0
  -19.1557  -28.8878   23.2840 C   0  0  0  0  0  0
  -18.9496  -30.1469   23.8878 C   0  0  0  0  0  0
  -17.6490  -30.6581   24.0575 C   0  0  0  0  0  0
  -25.9058  -34.9442   23.5098 C   0  0  0  0  0  0
  -16.5377  -29.9099   23.6315 C   0  0  0  0  0  0
  -16.7299  -28.6512   23.0337 C   0  0  0  0  0  0
  -26.4499  -31.6583   25.0698 C   0  0  0  0  0  0
  -25.3769  -31.3734   26.1478 C   0  0  0  0  0  0
  -27.0336  -30.2989   24.6184 C   0  0  0  0  0  0
  -27.6026  -32.4358   25.7476 C   0  0  0  0  0  0
  -27.5570  -37.1799   24.8468 C   0  0  0  0  0  0
  -21.4211  -29.3097   22.3603 N   0  0  0  0  0  0
  -26.4264  -37.3787   23.9432 N   0  0  0  0  0  0
  -24.7002  -31.0507   22.0891 N   0  0  0  0  0  0
  -23.4188  -28.8181   23.3006 O   0  0  0  0  0  0
  -28.3503  -26.3838   20.0984 O   0  0  0  0  0  0
  -26.5580  -34.8940   22.4639 O   0  0  0  0  0  0
  -23.5464  -32.1355   23.7242 O   0  0  0  0  0  0
  -28.0754  -21.1264   24.2850 C   0  0  0  0  0  0
  -28.5804  -20.4387   23.1697 C   0  0  0  0  0  0
  -27.9645  -23.1091   22.9485 C   0  0  0  0  0  0
  -27.7593  -22.4812   24.1801 C   0  0  0  0  0  0
  -28.4964  -22.4901   21.7805 C   0  0  0  0  0  0
  -28.7833  -21.0241   21.8867 C   0  0  0  0  0  0
  -28.0647  -23.1419   26.6337 C   0  0  0  0  0  0
  -25.7395  -23.0434   25.6255 C   0  0  0  0  0  0
  -28.6685  -23.5596   20.5849 C   0  0  0  0  0  0
  -30.1578  -17.4061   21.0003 C   0  0  0  0  0  0
  -28.2321  -25.1267   20.9050 C   0  0  0  0  0  0
  -29.0082  -18.5907   20.9500 C   0  0  0  0  0  0
  -27.2263  -23.3073   25.3580 C   0  0  0  0  0  0
  -29.7963  -15.8997   20.8915 N   0  0  0  0  0  0
  -29.2846  -20.0993   20.9117 O   0  0  0  0  0  0
  -31.4819  -12.6130   19.2332 H   0  0  0  0  0  0
  -30.3595  -11.5140   19.9833 H   0  0  0  0  0  0
  -29.8499  -11.7884   17.5239 H   0  0  0  0  0  0
  -29.6447  -13.5092   17.7536 H   0  0  0  0  0  0
  -27.9345  -11.2915   18.9012 H   0  0  0  0  0  0
  -27.4032  -12.5159   17.7846 H   0  0  0  0  0  0
  -27.6299  -14.2592   19.4609 H   0  0  0  0  0  0
  -28.7139  -12.1624   21.4253 H   0  0  0  0  0  0
  -28.3668  -13.8259   21.8108 H   0  0  0  0  0  0
  -25.2762   -9.5735   22.4679 H   0  0  0  0  0  0
  -24.0042   -7.4698   22.7441 H   0  0  0  0  0  0
  -21.0866   -8.8773   19.8936 H   0  0  0  0  0  0
  -22.3733  -10.9641   19.6107 H   0  0  0  0  0  0
  -21.2017   -7.6134   23.9750 H   0  0  0  0  0  0
  -21.1487   -6.0489   25.9081 H   0  0  0  0  0  0
  -22.0589   -2.7603   23.2841 H   0  0  0  0  0  0
  -22.4100  -11.9957   22.4862 H   0  0  0  0  0  0
  -21.1058  -13.1211   22.2439 H   0  0  0  0  0  0
  -24.6458  -15.8384   20.5006 H   0  0  0  0  0  0
  -26.2659  -15.6298   20.0630 H   0  0  0  0  0  0
  -26.7195  -32.5425   23.1036 H   0  0  0  0  0  0
  -25.0256  -33.9682   25.0503 H   0  0  0  0  0  0
  -22.7355  -31.2955   21.3696 H   0  0  0  0  0  0
  -23.3762  -35.9597   23.3291 H   0  0  0  0  0  0
  -24.3600  -36.8925   22.2049 H   0  0  0  0  0  0
  -23.7230  -37.6484   23.6663 H   0  0  0  0  0  0
  -26.1135  -31.5282   20.5973 H   0  0  0  0  0  0
  -26.8496  -30.8232   22.0065 H   0  0  0  0  0  0
  -28.1487  -28.9662   21.1684 H   0  0  0  0  0  0
  -26.0513  -25.8971   18.9992 H   0  0  0  0  0  0
  -24.0012  -27.2554   19.0256 H   0  0  0  0  0  0
  -23.8006  -30.5599   19.3952 H   0  0  0  0  0  0
  -22.7800  -29.2251   19.8384 H   0  0  0  0  0  0
  -25.1286  -36.1881   25.0821 H   0  0  0  0  0  0
  -20.9999  -28.3324   24.1319 H   0  0  0  0  0  0
  -20.5617  -26.2386   23.3624 H   0  0  0  0  0  0
  -21.6662  -26.7436   22.1209 H   0  0  0  0  0  0
  -19.6927  -25.6299   21.1245 H   0  0  0  0  0  0
  -19.6655  -27.3175   20.6677 H   0  0  0  0  0  0
  -17.4204  -26.6673   21.4022 H   0  0  0  0  0  0
  -18.0357  -26.0064   22.8987 H   0  0  0  0  0  0
  -19.7985  -30.7264   24.2242 H   0  0  0  0  0  0
  -17.5072  -31.6262   24.5210 H   0  0  0  0  0  0
  -15.5389  -30.3016   23.7639 H   0  0  0  0  0  0
  -15.8707  -28.0848   22.7041 H   0  0  0  0  0  0
  -24.5911  -30.7104   25.7845 H   0  0  0  0  0  0
  -24.9042  -32.2911   26.4955 H   0  0  0  0  0  0
  -25.8155  -30.8896   27.0224 H   0  0  0  0  0  0
  -26.2878  -29.6741   24.1243 H   0  0  0  0  0  0
  -27.4030  -29.7238   25.4685 H   0  0  0  0  0  0
  -27.8769  -30.4262   23.9400 H   0  0  0  0  0  0
  -27.2568  -33.3658   26.1999 H   0  0  0  0  0  0
  -28.3831  -32.6926   25.0306 H   0  0  0  0  0  0
  -28.0689  -31.8564   26.5460 H   0  0  0  0  0  0
  -28.2570  -38.0108   24.7519 H   0  0  0  0  0  0
  -28.1076  -36.2644   24.6258 H   0  0  0  0  0  0
  -27.2322  -37.1404   25.8881 H   0  0  0  0  0  0
  -20.9401  -29.8894   21.6860 H   0  0  0  0  0  0
  -26.0150  -38.2857   24.1440 H   0  0  0  0  0  0
  -27.9470  -20.6160   25.2285 H   0  0  0  0  0  0
  -28.8541  -19.4137   23.3593 H   0  0  0  0  0  0
  -27.6765  -24.1409   22.9729 H   0  0  0  0  0  0
  -29.1076  -23.3958   26.4388 H   0  0  0  0  0  0
  -28.0177  -22.1259   27.0219 H   0  0  0  0  0  0
  -27.7021  -23.7995   27.4234 H   0  0  0  0  0  0
  -25.1411  -23.1931   24.7218 H   0  0  0  0  0  0
  -25.3536  -23.7324   26.3780 H   0  0  0  0  0  0
  -25.5761  -22.0362   26.0069 H   0  0  0  0  0  0
  -29.7136  -23.5236   20.2613 H   0  0  0  0  0  0
  -28.0831  -23.1926   19.7460 H   0  0  0  0  0  0
  -30.6946  -17.5066   21.9470 H   0  0  0  0  0  0
  -30.8918  -17.6210   20.2227 H   0  0  0  0  0  0
  -28.8332  -25.4077   21.7688 H   0  0  0  0  0  0
  -27.1928  -25.1059   21.2408 H   0  0  0  0  0  0
  -28.2592  -18.3471   21.7039 H   0  0  0  0  0  0
  -28.4489  -18.4275   20.0303 H   0  0  0  0  0  0
  -27.3058  -24.3665   25.0987 H   0  0  0  0  0  0
  -28.8440  -15.6800   21.1500 H   0  0  0  0  0  0
  1 25  1  0  0  0
  1 30  2  0  0  0
  1 84  1  0  0  0
  2  3  1  0  0  0
  2 25  1  0  0  0
  2 86  1  0  0  0
  2 87  1  0  0  0
  3  4  1  0  0  0
  3 88  1  0  0  0
  3 89  1  0  0  0
  4  5  1  0  0  0
  4 90  1  0  0  0
  4 91  1  0  0  0
  5  6  1  0  0  0
  5 26  1  0  0  0
  5 92  1  0  0  0
  6 25  1  0  0  0
  6 93  1  0  0  0
  6 94  1  0  0  0
  7  8  2  0  0  0
  7 26  1  0  0  0
  7 29  1  0  0  0
  8  9  1  0  0  0
  8 22  1  0  0  0
  9 10  1  0  0  0
  9 27  2  0  0  0
 10 11  2  0  0  0
 10 15  1  0  0  0
 11 12  1  0  0  0
 11 95  1  0  0  0
 12 13  2  0  0  0
 12 96  1  0  0  0
 13 14  1  0  0  0
 13 31  1  0  0  0
 14 15  2  0  0  0
 14 97  1  0  0  0
 15 98  1  0  0  0
 16 17  2  0  0  0
 16 21  1  0  0  0
 16 31  1  0  0  0
 17 18  1  0  0  0
 17 99  1  0  0  0
 18 19  2  0  0  0
 18100  1  0  0  0
 19 20  1  0  0  0
 19 24  1  0  0  0
 20 21  2  0  0  0
 20101  1  0  0  0
 21 23  1  0  0  0
 22 28  1  0  0  0
 22 32  2  0  0  0
 26 27  1  0  0  0
 28102  1  0  0  0
 28103  1  0  0  0
 29104  1  0  0  0
 29105  1  0  0  0
 33 34  1  0  0  0
 33 66  1  0  0  0
 33 70  2  0  0  0
 34 36  1  0  0  0
 34 59  1  0  0  0
 34106  1  0  0  0
 35 44  2  0  0  0
 35 45  1  0  0  0
 35 68  1  0  0  0
 36 56  1  0  0  0
 36107  1  0  0  0
 37 39  1  0  0  0
 37 47  1  0  0  0
 37 66  1  0  0  0
 37108  1  0  0  0
 38 43  2  0  0  0
 38 46  1  0  0  0
 38 47  1  0  0  0
 39 64  1  0  0  0
 39 67  2  0  0  0
 40 52  1  0  0  0
 40 53  2  0  0  0
 40 58  1  0  0  0
 41109  1  0  0  0
 41110  1  0  0  0
 41111  1  0  0  0
 41 48  1  0  0  0
 42 43  1  0  0  0
 42 66  1  0  0  0
 42112  1  0  0  0
 42113  1  0  0  0
 43 44  1  0  0  0
 44114  1  0  0  0
 45 46  2  0  0  0
 45115  1  0  0  0
 46116  1  0  0  0
 47117  1  0  0  0
 47118  1  0  0  0
 48 56  1  0  0  0
 48 65  1  0  0  0
 48119  1  0  0  0
 49 50  1  0  0  0
 49 53  1  0  0  0
 49 64  1  0  0  0
 49120  1  0  0  0
 50 51  1  0  0  0
 50121  1  0  0  0
 50122  1  0  0  0
 51 52  1  0  0  0
 51123  1  0  0  0
 51124  1  0  0  0
 52125  1  0  0  0
 52126  1  0  0  0
 53 54  1  0  0  0
 54 55  2  0  0  0
 54127  1  0  0  0
 55 57  1  0  0  0
 55128  1  0  0  0
 56 69  2  0  0  0
 57 58  2  0  0  0
 57129  1  0  0  0
 58130  1  0  0  0
 59 60  1  0  0  0
 59 61  1  0  0  0
 59 62  1  0  0  0
 60131  1  0  0  0
 60132  1  0  0  0
 60133  1  0  0  0
 61134  1  0  0  0
 61135  1  0  0  0
 61136  1  0  0  0
 62137  1  0  0  0
 62138  1  0  0  0
 62139  1  0  0  0
 63 65  1  0  0  0
 63140  1  0  0  0
 63141  1  0  0  0
 63142  1  0  0  0
 64143  1  0  0  0
 65144  1  0  0  0
 68 81  1  0  0  0
 71 72  2  0  0  0
 71 74  1  0  0  0
 71145  1  0  0  0
 72 76  1  0  0  0
 72146  1  0  0  0
 73 74  2  0  0  0
 73 75  1  0  0  0
 73147  1  0  0  0
 74 83  1  0  0  0
 75 76  2  0  0  0
 75 79  1  0  0  0
 76 85  1  0  0  0
 77148  1  0  0  0
 77149  1  0  0  0
 77150  1  0  0  0
 77 83  1  0  0  0
 78 83  1  0  0  0
 78151  1  0  0  0
 78152  1  0  0  0
 78153  1  0  0  0
 79 81  1  0  0  0
 79154  1  0  0  0
 79155  1  0  0  0
 80 82  1  0  0  0
 80 84  1  0  0  0
 80156  1  0  0  0
 80157  1  0  0  0
 81158  1  0  0  0
 81159  1  0  0  0
 82 85  1  0  0  0
 82160  1  0  0  0
 82161  1  0  0  0
 83162  1  0  0  0
 84163  1  0  0  0
M  ISO  4   1 100  68 101  81 101  84 100
M  END
> <chiral flag>
0

> <version>
0

> <s_m_source_file>
/data/baiqing/PycharmProjects/Reinvent-master-3.2/result/LINK_invent/BTK/process_docking_weight1_custom_sum_contain_oxygen_bond_distance_aromatic_linkinvent_7_9_3/rearranged_h_0139.sdf

> <i_m_source_file_index>
53

> <r_mmod_Potential_Energy-OPLS-2005>
268.460968017578

> <r_mmod_Stretch_Energy-OPLS-2005>
180.189086914062

> <r_mmod_Bend_Energy-OPLS-2005>
248.574905395508

> <r_mmod_Torsional_Energy-OPLS-2005>
229.275344848633

> <r_mmod_Improper_Torsional_Energy-OPLS-2005>
3.51136374473572

> <r_mmod_Van_der_Waal_Energy-OPLS-2005>
157.901489257812

> <r_mmod_Electrostatic_Energy-OPLS-2005>
-430.483001708984

> <r_mmod_Solvation_Energy-OPLS-2005>
-212.031997680664

> <b_mmod_Minimization_Converged-OPLS-2005>
0

> <r_mmod_RMS_Derivative-OPLS-2005>
6.24256086349487

$$$$
53
                    3D
 Structure written by MMmdl.
175185  0  0  1  0            999 V2000
  -30.8181  -14.2975   20.8056 C   0  0  0  0  0  0
  -30.4325  -12.3086   19.3973 C   0  0  0  0  0  0
  -29.4928  -12.5583   18.2048 C   0  0  0  0  0  0
  -28.0216  -12.3863   18.6219 C   0  0  0  0  0  0
  -27.6764  -13.2030   19.8948 C   0  0  2  0  0  0
  -28.7076  -12.9456   21.0134 C   0  0  0  0  0  0
  -25.2686  -13.8190   20.5735 C   0  0  0  0  0  0
  -24.1882  -13.0482   20.9111 C   0  0  0  0  0  0
  -24.6402  -11.6941   20.8686 C   0  0  0  0  0  0
  -23.9056  -10.4334   21.0370 C   0  0  0  0  0  0
  -24.3625   -9.4248   21.9143 C   0  0  0  0  0  0
  -23.6300   -8.2283   22.0736 C   0  0  0  0  0  0
  -22.4280   -8.0310   21.3533 C   0  0  0  0  0  0
  -21.9913   -9.0268   20.4631 C   0  0  0  0  0  0
  -22.7237  -10.2146   20.3015 C   0  0  0  0  0  0
  -21.6872   -6.0743   22.5278 C   0  0  0  0  0  0
  -21.4023   -6.5634   23.8210 C   0  0  0  0  0  0
  -21.3661   -5.6774   24.9169 C   0  0  0  0  0  0
  -21.6051   -4.3038   24.7205 C   0  0  0  0  0  0
  -21.8824   -3.8147   23.4330 C   0  0  0  0  0  0
  -21.9181   -4.6967   22.3388 C   0  0  0  0  0  0
  -22.7913  -13.5288   21.1789 C   0  0  0  0  0  0
  -22.1658   -4.2165   21.0963 F   0  0  0  0  0  0
  -21.5623   -3.4511   25.7712 F   0  0  0  0  0  0
  -30.0641  -13.2134   20.4942 N   0  0  0  0  0  0
  -26.3110  -12.9344   20.3454 N   0  0  0  0  0  0
  -25.9337  -11.6500   20.5735 N   0  0  0  0  0  0
  -22.0544  -12.8263   22.0345 N   0  0  0  0  0  0
  -25.4568  -15.1909   20.4409 N   0  0  0  0  0  0
  -31.7351  -14.7160   20.0930 O   0  0  0  0  0  0
  -21.6665   -6.8888   21.4244 O   0  0  0  0  0  0
  -22.3616  -14.5610   20.6683 O   0  0  0  0  0  0
  -24.6112  -31.8701   23.2084 C   0  0  0  0  0  0
  -25.9013  -32.4846   23.8428 C   0  0  1  0  0  0
  -27.2329  -27.4723   20.0978 C   0  0  0  0  0  0
  -25.5891  -33.8669   24.2359 N   0  0  0  0  0  0
  -23.4002  -30.4905   21.5476 C   0  0  2  0  0  0
  -24.8475  -28.9623   20.1167 C   0  0  0  0  0  0
  -22.7426  -29.4639   22.4975 C   0  0  0  0  0  0
  -18.0281  -28.1375   22.8488 C   0  0  0  0  0  0
  -24.1477  -36.7343   23.2620 C   0  0  0  0  0  0
  -25.9245  -30.8500   21.3546 C   0  0  0  0  0  0
  -26.0051  -29.4863   20.7079 C   0  0  0  0  0  0
  -27.2033  -28.7439   20.7040 C   0  0  0  0  0  0
  -26.0737  -26.9651   19.4828 C   0  0  0  0  0  0
  -24.8730  -27.6933   19.5097 C   0  0  0  0  0  0
  -23.6111  -29.8268   20.1626 C   0  0  0  0  0  0
  -25.4077  -36.3157   24.0368 C   0  0  1  0  0  0
  -20.5866  -28.3660   23.1314 C   0  0  2  0  0  0
  -20.6726  -26.9401   22.5409 C   0  0  0  0  0  0
  -19.5714  -26.6354   21.5198 C   0  0  0  0  0  0
  -18.1903  -26.7912   22.1617 C   0  0  0  0  0  0
  -19.1541  -28.8827   23.2883 C   0  0  0  0  0  0
  -18.9455  -30.1408   23.8924 C   0  0  0  0  0  0
  -17.6465  -30.6575   24.0563 C   0  0  0  0  0  0
  -25.9014  -34.9530   23.5166 C   0  0  0  0  0  0
  -16.5362  -29.9104   23.6296 C   0  0  0  0  0  0
  -16.7252  -28.6502   23.0337 C   0  0  0  0  0  0
  -26.4436  -31.6607   25.0734 C   0  0  0  0  0  0
  -25.3696  -31.3722   26.1463 C   0  0  0  0  0  0
  -27.0193  -30.3035   24.6039 C   0  0  0  0  0  0
  -27.6014  -32.4332   25.7494 C   0  0  0  0  0  0
  -27.5575  -37.1801   24.8450 C   0  0  0  0  0  0
  -21.4141  -29.3038   22.3761 N   0  0  0  0  0  0
  -26.4242  -37.3867   23.9463 N   0  0  0  0  0  0
  -24.6643  -31.0857   22.0968 N   0  0  0  0  0  0
  -23.4234  -28.8137   23.2955 O   0  0  0  0  0  0
  -28.3873  -26.7358   20.0902 O   0  0  0  0  0  0
  -26.5540  -34.8991   22.4703 O   0  0  0  0  0  0
  -23.5313  -32.1441   23.7485 O   0  0  0  0  0  0
  -26.6591  -19.1346   21.1807 C   0  0  0  0  0  0
  -26.2771  -20.3574   20.5987 C   0  0  0  0  0  0
  -27.0804  -21.5494   22.5577 C   0  0  0  0  0  0
  -27.4265  -20.3309   23.1772 C   0  0  0  0  0  0
  -27.2639  -19.1186   22.4596 C   0  0  0  0  0  0
  -26.5116  -21.5752   21.2604 C   0  0  0  0  0  0
  -28.6214  -17.1235   22.4368 C   0  0  0  0  0  0
  -31.3305  -16.3776   25.0552 C   0  0  0  0  0  0
  -27.4520  -19.4969   25.6930 C   0  0  0  0  0  0
  -27.1369  -20.9760   25.6906 C   0  0  0  0  0  0
  -29.8686  -16.5751   24.6598 C   0  0  0  0  0  0
  -31.9963  -15.7386   23.8259 C   0  0  0  0  0  0
  -27.9769  -20.3818   24.5793 C   0  0  0  0  0  0
  -29.9685  -16.9558   23.1804 C   0  0  1  0  0  0
  -31.0809  -16.0344   22.6074 C   0  0  1  0  0  0
  -27.9636  -24.3601   20.6437 C   0  0  0  0  0  0
  -28.4544  -25.7429   21.1160 C   0  0  0  0  0  0
  -26.5350  -23.9936   21.0953 C   0  0  0  0  0  0
  -27.7410  -17.9242   23.0510 N   0  0  0  0  0  0
  -30.5691  -14.7877   22.0331 N   0  0  0  0  0  0
  -28.3975  -16.5902   21.3469 O   0  0  0  0  0  0
  -26.1528  -22.7198   20.5838 O   0  0  0  0  0  0
  -31.4717  -12.4423   19.0918 H   0  0  0  0  0  0
  -30.3580  -11.2749   19.7398 H   0  0  0  0  0  0
  -29.7314  -11.8795   17.3850 H   0  0  0  0  0  0
  -29.6521  -13.5717   17.8294 H   0  0  0  0  0  0
  -27.8387  -11.3232   18.7914 H   0  0  0  0  0  0
  -27.3634  -12.6827   17.8039 H   0  0  0  0  0  0
  -27.7385  -14.2600   19.6336 H   0  0  0  0  0  0
  -28.6492  -11.9114   21.3543 H   0  0  0  0  0  0
  -28.4419  -13.5544   21.8793 H   0  0  0  0  0  0
  -25.2784   -9.5731   22.4681 H   0  0  0  0  0  0
  -24.0020   -7.4689   22.7458 H   0  0  0  0  0  0
  -21.0843   -8.8788   19.8936 H   0  0  0  0  0  0
  -22.3715  -10.9666   19.6100 H   0  0  0  0  0  0
  -21.2041   -7.6141   23.9723 H   0  0  0  0  0  0
  -21.1474   -6.0494   25.9064 H   0  0  0  0  0  0
  -22.0604   -2.7611   23.2815 H   0  0  0  0  0  0
  -22.4160  -11.9921   22.4711 H   0  0  0  0  0  0
  -21.1182  -13.1324   22.2619 H   0  0  0  0  0  0
  -24.7295  -15.8627   20.6494 H   0  0  0  0  0  0
  -26.3787  -15.6110   20.3712 H   0  0  0  0  0  0
  -26.7129  -32.5544   23.1252 H   0  0  0  0  0  0
  -25.0159  -33.9907   25.0576 H   0  0  0  0  0  0
  -22.6891  -31.3068   21.4059 H   0  0  0  0  0  0
  -23.3783  -35.9640   23.3260 H   0  0  0  0  0  0
  -24.3536  -36.8928   22.2018 H   0  0  0  0  0  0
  -23.7247  -37.6558   23.6624 H   0  0  0  0  0  0
  -26.0358  -31.6149   20.5832 H   0  0  0  0  0  0
  -26.8135  -30.9044   21.9709 H   0  0  0  0  0  0
  -28.0971  -29.1465   21.1605 H   0  0  0  0  0  0
  -26.0897  -26.0082   18.9800 H   0  0  0  0  0  0
  -23.9820  -27.2836   19.0531 H   0  0  0  0  0  0
  -23.7458  -30.6059   19.4111 H   0  0  0  0  0  0
  -22.7325  -29.2542   19.8513 H   0  0  0  0  0  0
  -25.1261  -36.2010   25.0868 H   0  0  0  0  0  0
  -20.9953  -28.3196   24.1428 H   0  0  0  0  0  0
  -20.5533  -26.2292   23.3591 H   0  0  0  0  0  0
  -21.6593  -26.7367   22.1245 H   0  0  0  0  0  0
  -19.6850  -25.6250   21.1222 H   0  0  0  0  0  0
  -19.6648  -27.3175   20.6733 H   0  0  0  0  0  0
  -17.4147  -26.6686   21.4029 H   0  0  0  0  0  0
  -18.0300  -26.0067   22.9020 H   0  0  0  0  0  0
  -19.7927  -30.7205   24.2358 H   0  0  0  0  0  0
  -17.5029  -31.6256   24.5162 H   0  0  0  0  0  0
  -15.5369  -30.3027   23.7559 H   0  0  0  0  0  0
  -15.8648  -28.0816   22.7066 H   0  0  0  0  0  0
  -24.5920  -30.7017   25.7791 H   0  0  0  0  0  0
  -24.8810  -32.2859   26.4831 H   0  0  0  0  0  0
  -25.7996  -30.8944   27.0276 H   0  0  0  0  0  0
  -26.2654  -29.6874   24.1069 H   0  0  0  0  0  0
  -27.3973  -29.7218   25.4468 H   0  0  0  0  0  0
  -27.8558  -30.4360   23.9173 H   0  0  0  0  0  0
  -27.2631  -33.3670   26.2042 H   0  0  0  0  0  0
  -28.3812  -32.6815   25.0278 H   0  0  0  0  0  0
  -28.0716  -31.8464   26.5395 H   0  0  0  0  0  0
  -28.2595  -38.0094   24.7515 H   0  0  0  0  0  0
  -28.1089  -36.2632   24.6260 H   0  0  0  0  0  0
  -27.2267  -37.1394   25.8840 H   0  0  0  0  0  0
  -20.9297  -29.8947   21.7164 H   0  0  0  0  0  0
  -26.0146  -38.2977   24.1446 H   0  0  0  0  0  0
  -26.4930  -18.2218   20.6275 H   0  0  0  0  0  0
  -25.8185  -20.3661   19.6180 H   0  0  0  0  0  0
  -27.2678  -22.4555   23.1132 H   0  0  0  0  0  0
  -31.4486  -15.7704   25.9532 H   0  0  0  0  0  0
  -31.7868  -17.3508   25.2546 H   0  0  0  0  0  0
  -26.6224  -18.8193   25.4886 H   0  0  0  0  0  0
  -28.1690  -19.1386   26.4302 H   0  0  0  0  0  0
  -27.6283  -21.5814   26.4523 H   0  0  0  0  0  0
  -26.1111  -21.2693   25.4599 H   0  0  0  0  0  0
  -29.3906  -17.3437   25.2665 H   0  0  0  0  0  0
  -29.3160  -15.6439   24.7918 H   0  0  0  0  0  0
  -32.1198  -14.6660   23.9940 H   0  0  0  0  0  0
  -32.9968  -16.1525   23.6839 H   0  0  0  0  0  0
  -29.0393  -20.6277   24.5792 H   0  0  0  0  0  0
  -30.3915  -17.9609   23.1590 H   0  0  0  0  0  0
  -31.6338  -16.5924   21.8466 H   0  0  0  0  0  0
  -28.6431  -23.6049   21.0358 H   0  0  0  0  0  0
  -28.0532  -24.3015   19.5592 H   0  0  0  0  0  0
  -27.9404  -26.0662   22.0246 H   0  0  0  0  0  0
  -29.5054  -25.6549   21.3929 H   0  0  0  0  0  0
  -25.8129  -24.6988   20.7050 H   0  0  0  0  0  0
  -26.4119  -24.0753   22.1716 H   0  0  0  0  0  0
  -27.9352  -18.0341   24.0363 H   0  0  0  0  0  0
  -29.8625  -14.3024   22.5636 H   0  0  0  0  0  0
  1 25  1  0  0  0
  1 30  2  0  0  0
  1 90  1  0  0  0
  2  3  1  0  0  0
  2 25  1  0  0  0
  2 93  1  0  0  0
  2 94  1  0  0  0
  3  4  1  0  0  0
  3 95  1  0  0  0
  3 96  1  0  0  0
  4  5  1  0  0  0
  4 97  1  0  0  0
  4 98  1  0  0  0
  5  6  1  0  0  0
  5 26  1  0  0  0
  5 99  1  0  0  0
  6 25  1  0  0  0
  6100  1  0  0  0
  6101  1  0  0  0
  7  8  2  0  0  0
  7 26  1  0  0  0
  7 29  1  0  0  0
  8  9  1  0  0  0
  8 22  1  0  0  0
  9 10  1  0  0  0
  9 27  2  0  0  0
 10 11  2  0  0  0
 10 15  1  0  0  0
 11 12  1  0  0  0
 11102  1  0  0  0
 12 13  2  0  0  0
 12103  1  0  0  0
 13 14  1  0  0  0
 13 31  1  0  0  0
 14 15  2  0  0  0
 14104  1  0  0  0
 15105  1  0  0  0
 16 17  2  0  0  0
 16 21  1  0  0  0
 16 31  1  0  0  0
 17 18  1  0  0  0
 17106  1  0  0  0
 18 19  2  0  0  0
 18107  1  0  0  0
 19 20  1  0  0  0
 19 24  1  0  0  0
 20 21  2  0  0  0
 20108  1  0  0  0
 21 23  1  0  0  0
 22 28  1  0  0  0
 22 32  2  0  0  0
 26 27  1  0  0  0
 28109  1  0  0  0
 28110  1  0  0  0
 29111  1  0  0  0
 29112  1  0  0  0
 33 34  1  0  0  0
 33 66  1  0  0  0
 33 70  2  0  0  0
 34 36  1  0  0  0
 34 59  1  0  0  0
 34113  1  0  0  0
 35 44  2  0  0  0
 35 45  1  0  0  0
 35 68  1  0  0  0
 36 56  1  0  0  0
 36114  1  0  0  0
 37 39  1  0  0  0
 37 47  1  0  0  0
 37 66  1  0  0  0
 37115  1  0  0  0
 38 43  2  0  0  0
 38 46  1  0  0  0
 38 47  1  0  0  0
 39 64  1  0  0  0
 39 67  2  0  0  0
 40 52  1  0  0  0
 40 53  2  0  0  0
 40 58  1  0  0  0
 41116  1  0  0  0
 41117  1  0  0  0
 41118  1  0  0  0
 41 48  1  0  0  0
 42 43  1  0  0  0
 42 66  1  0  0  0
 42119  1  0  0  0
 42120  1  0  0  0
 43 44  1  0  0  0
 44121  1  0  0  0
 45 46  2  0  0  0
 45122  1  0  0  0
 46123  1  0  0  0
 47124  1  0  0  0
 47125  1  0  0  0
 48 56  1  0  0  0
 48 65  1  0  0  0
 48126  1  0  0  0
 49 50  1  0  0  0
 49 53  1  0  0  0
 49 64  1  0  0  0
 49127  1  0  0  0
 50 51  1  0  0  0
 50128  1  0  0  0
 50129  1  0  0  0
 51 52  1  0  0  0
 51130  1  0  0  0
 51131  1  0  0  0
 52132  1  0  0  0
 52133  1  0  0  0
 53 54  1  0  0  0
 54 55  2  0  0  0
 54134  1  0  0  0
 55 57  1  0  0  0
 55135  1  0  0  0
 56 69  2  0  0  0
 57 58  2  0  0  0
 57136  1  0  0  0
 58137  1  0  0  0
 59 60  1  0  0  0
 59 61  1  0  0  0
 59 62  1  0  0  0
 60138  1  0  0  0
 60139  1  0  0  0
 60140  1  0  0  0
 61141  1  0  0  0
 61142  1  0  0  0
 61143  1  0  0  0
 62144  1  0  0  0
 62145  1  0  0  0
 62146  1  0  0  0
 63 65  1  0  0  0
 63147  1  0  0  0
 63148  1  0  0  0
 63149  1  0  0  0
 64150  1  0  0  0
 65151  1  0  0  0
 68 87  1  0  0  0
 71 72  2  0  0  0
 71 75  1  0  0  0
 71152  1  0  0  0
 72 76  1  0  0  0
 72153  1  0  0  0
 73 74  1  0  0  0
 73 76  2  0  0  0
 73154  1  0  0  0
 74 75  2  0  0  0
 74 83  1  0  0  0
 75 89  1  0  0  0
 76 92  1  0  0  0
 77 89  1  0  0  0
 77 91  2  0  0  0
 77 84  1  0  0  0
 78 81  1  0  0  0
 78 82  1  0  0  0
 78155  1  0  0  0
 78156  1  0  0  0
 79 80  1  0  0  0
 79 83  1  0  0  0
 79157  1  0  0  0
 79158  1  0  0  0
 80 83  1  0  0  0
 80159  1  0  0  0
 80160  1  0  0  0
 81 84  1  0  0  0
 81161  1  0  0  0
 81162  1  0  0  0
 82 85  1  0  0  0
 82163  1  0  0  0
 82164  1  0  0  0
 83165  1  0  0  0
 84 85  1  0  0  0
 84166  1  0  0  0
 85 90  1  0  0  0
 85167  1  0  0  0
 86 87  1  0  0  0
 86 88  1  0  0  0
 86168  1  0  0  0
 86169  1  0  0  0
 87170  1  0  0  0
 87171  1  0  0  0
 88 92  1  0  0  0
 88172  1  0  0  0
 88173  1  0  0  0
 89174  1  0  0  0
 90175  1  0  0  0
M  ISO  4   1 100  68 101  87 101  90 100
M  END
> <chiral flag>
0

> <version>
0

> <s_m_source_file>
/data/baiqing/PycharmProjects/Reinvent-master-3.2/result/LINK_invent/BTK/process_docking_weight1_custom_sum_contain_oxygen_bond_distance_aromatic_linkinvent_7_9_3/rearranged_h_0139.sdf

> <i_m_source_file_index>
54

> <r_mmod_Potential_Energy-OPLS-2005>
61.6909370422363

> <r_mmod_Stretch_Energy-OPLS-2005>
35.4105415344238

> <r_mmod_Bend_Energy-OPLS-2005>
140.231109619141

> <r_mmod_Torsional_Energy-OPLS-2005>
342.237884521484

> <r_mmod_Improper_Torsional_Energy-OPLS-2005>
7.22072172164917

> <r_mmod_Van_der_Waal_Energy-OPLS-2005>
143.758346557617

> <r_mmod_Electrostatic_Energy-OPLS-2005>
-399.955871582031

> <r_mmod_Solvation_Energy-OPLS-2005>
-217.899642944336

> <b_mmod_Minimization_Converged-OPLS-2005>
0

> <r_mmod_RMS_Derivative-OPLS-2005>
5.97314786911011

$$$$
54
                    3D
 Structure written by MMmdl.
177187  0  0  1  0            999 V2000
  -30.6970  -14.7029   20.4390 C   0  0  0  0  0  0
  -30.4098  -12.4366   19.4532 C   0  0  0  0  0  0
  -29.4899  -12.5023   18.2189 C   0  0  0  0  0  0
  -28.0171  -12.3476   18.6408 C   0  0  0  0  0  0
  -27.6318  -13.2533   19.8441 C   0  0  2  0  0  0
  -28.6876  -13.2299   20.9715 C   0  0  0  0  0  0
  -25.2420  -13.8277   20.5755 C   0  0  0  0  0  0
  -24.1735  -13.0479   20.9208 C   0  0  0  0  0  0
  -24.6397  -11.6971   20.8775 C   0  0  0  0  0  0
  -23.9096  -10.4321   21.0434 C   0  0  0  0  0  0
  -24.3647   -9.4218   21.9200 C   0  0  0  0  0  0
  -23.6304   -8.2268   22.0784 C   0  0  0  0  0  0
  -22.4301   -8.0293   21.3567 C   0  0  0  0  0  0
  -21.9941   -9.0269   20.4677 C   0  0  0  0  0  0
  -22.7278  -10.2143   20.3068 C   0  0  0  0  0  0
  -21.6841   -6.0742   22.5282 C   0  0  0  0  0  0
  -21.4007   -6.5641   23.8216 C   0  0  0  0  0  0
  -21.3668   -5.6790   24.9178 C   0  0  0  0  0  0
  -21.6062   -4.3055   24.7242 C   0  0  0  0  0  0
  -21.8804   -3.8147   23.4359 C   0  0  0  0  0  0
  -21.9198   -4.6967   22.3414 C   0  0  0  0  0  0
  -22.7721  -13.5155   21.1894 C   0  0  0  0  0  0
  -22.1633   -4.2138   21.0983 F   0  0  0  0  0  0
  -21.5686   -3.4538   25.7765 F   0  0  0  0  0  0
  -29.9875  -13.5258   20.3608 N   0  0  0  0  0  0
  -26.2897  -12.9543   20.3358 N   0  0  0  0  0  0
  -25.9325  -11.6660   20.5794 N   0  0  0  0  0  0
  -22.0438  -12.8097   22.0472 N   0  0  0  0  0  0
  -25.4027  -15.2020   20.4134 N   0  0  0  0  0  0
  -31.9088  -14.6916   20.2158 O   0  0  0  0  0  0
  -21.6672   -6.8881   21.4242 O   0  0  0  0  0  0
  -22.3344  -14.5440   20.6734 O   0  0  0  0  0  0
  -24.6213  -31.8637   23.2062 C   0  0  0  0  0  0
  -25.9062  -32.4801   23.8386 C   0  0  1  0  0  0
  -27.2101  -27.3367   20.1346 C   0  0  0  0  0  0
  -25.5913  -33.8609   24.2322 N   0  0  0  0  0  0
  -23.4149  -30.4862   21.5488 C   0  0  2  0  0  0
  -24.8642  -28.9567   20.1050 C   0  0  0  0  0  0
  -22.7474  -29.4603   22.4951 C   0  0  0  0  0  0
  -18.0272  -28.1351   22.8496 C   0  0  0  0  0  0
  -24.1500  -36.7324   23.2637 C   0  0  0  0  0  0
  -25.9518  -30.8050   21.3713 C   0  0  0  0  0  0
  -26.0313  -29.4317   20.7199 C   0  0  0  0  0  0
  -27.2110  -28.6332   20.7289 C   0  0  0  0  0  0
  -26.0299  -26.9173   19.4833 C   0  0  0  0  0  0
  -24.8696  -27.7058   19.4698 C   0  0  0  0  0  0
  -23.6307  -29.8336   20.1582 C   0  0  0  0  0  0
  -25.4111  -36.3102   24.0341 C   0  0  1  0  0  0
  -20.5888  -28.3655   23.1328 C   0  0  2  0  0  0
  -20.6774  -26.9384   22.5435 C   0  0  0  0  0  0
  -19.5746  -26.6362   21.5230 C   0  0  0  0  0  0
  -18.1919  -26.7896   22.1632 C   0  0  0  0  0  0
  -19.1529  -28.8813   23.2899 C   0  0  0  0  0  0
  -18.9446  -30.1416   23.8908 C   0  0  0  0  0  0
  -17.6448  -30.6556   24.0555 C   0  0  0  0  0  0
  -25.9044  -34.9469   23.5133 C   0  0  0  0  0  0
  -16.5345  -29.9066   23.6305 C   0  0  0  0  0  0
  -16.7263  -28.6486   23.0330 C   0  0  0  0  0  0
  -26.4476  -31.6565   25.0708 C   0  0  0  0  0  0
  -25.3752  -31.3660   26.1463 C   0  0  0  0  0  0
  -27.0294  -30.3010   24.6060 C   0  0  0  0  0  0
  -27.6050  -32.4285   25.7485 C   0  0  0  0  0  0
  -27.5590  -37.1814   24.8451 C   0  0  0  0  0  0
  -21.4181  -29.3033   22.3734 N   0  0  0  0  0  0
  -26.4289  -37.3792   23.9414 N   0  0  0  0  0  0
  -24.6813  -31.0686   22.1000 N   0  0  0  0  0  0
  -23.4230  -28.8108   23.2960 O   0  0  0  0  0  0
  -28.2967  -26.4628   20.1745 O   0  0  0  0  0  0
  -26.5603  -34.8930   22.4691 O   0  0  0  0  0  0
  -23.5387  -32.1439   23.7405 O   0  0  0  0  0  0
  -27.0428  -23.2724   17.1118 C   0  0  0  0  0  0
  -27.7239  -23.7903   18.2050 C   0  0  0  0  0  0
  -27.0578  -21.8987   16.9107 C   0  0  0  0  0  0
  -28.3602  -22.9730   19.1675 C   0  0  0  0  0  0
  -28.4601  -21.5129   18.9500 C   0  0  0  0  0  0
  -27.7953  -21.0333   17.7597 C   0  0  0  0  0  0
  -32.4337  -21.4502   21.5511 C   0  0  0  0  0  0
  -33.0449  -21.8188   20.2255 C   0  0  0  0  0  0
  -28.8036  -18.0336   21.2230 C   0  0  0  0  0  0
  -29.4577  -17.9067   18.7965 C   0  0  0  0  0  0
  -29.8163  -16.8377   21.4624 C   0  0  0  0  0  0
  -30.4965  -16.8365   19.2464 C   0  0  0  0  0  0
  -31.5483  -21.6771   20.3386 C   0  0  0  0  0  0
  -28.8490  -18.8635   19.8810 C   0  0  0  0  0  0
  -27.4904  -19.2843   16.1014 C   0  0  0  0  0  0
  -28.8814  -23.8532   20.3457 C   0  0  0  0  0  0
  -30.8170  -20.5443   19.6357 C   0  0  0  0  0  0
  -28.0295  -25.1362   20.7774 C   0  0  0  0  0  0
  -29.2740  -20.4540   19.8693 C   0  0  1  0  0  0
  -30.0205  -15.9154   20.3111 N   0  0  0  0  0  0
  -27.8681  -19.7050   17.4117 O   0  0  0  0  0  0
  -31.4536  -12.5216   19.1427 H   0  0  0  0  0  0
  -30.3235  -11.4700   19.9514 H   0  0  0  0  0  0
  -29.7585  -11.7277   17.4951 H   0  0  0  0  0  0
  -29.6211  -13.4565   17.7058 H   0  0  0  0  0  0
  -27.8561  -11.2991   18.8970 H   0  0  0  0  0  0
  -27.3582  -12.5592   17.7970 H   0  0  0  0  0  0
  -27.6086  -14.2704   19.4512 H   0  0  0  0  0  0
  -28.7116  -12.2662   21.4772 H   0  0  0  0  0  0
  -28.4439  -13.9786   21.7299 H   0  0  0  0  0  0
  -25.2815   -9.5670   22.4731 H   0  0  0  0  0  0
  -24.0029   -7.4619   22.7452 H   0  0  0  0  0  0
  -21.0904   -8.8764   19.8923 H   0  0  0  0  0  0
  -22.3771  -10.9667   19.6131 H   0  0  0  0  0  0
  -21.1959   -7.6141   23.9725 H   0  0  0  0  0  0
  -21.1514   -6.0529   25.9079 H   0  0  0  0  0  0
  -22.0590   -2.7617   23.2864 H   0  0  0  0  0  0
  -22.4151  -11.9754   22.4765 H   0  0  0  0  0  0
  -21.1081  -13.1050   22.2827 H   0  0  0  0  0  0
  -24.6232  -15.8431   20.5110 H   0  0  0  0  0  0
  -26.2595  -15.6577   20.1192 H   0  0  0  0  0  0
  -26.7135  -32.5496   23.1152 H   0  0  0  0  0  0
  -25.0048  -33.9769   25.0458 H   0  0  0  0  0  0
  -22.7048  -31.3034   21.4125 H   0  0  0  0  0  0
  -23.3762  -35.9651   23.3264 H   0  0  0  0  0  0
  -24.3600  -36.8981   22.2056 H   0  0  0  0  0  0
  -23.7260  -37.6527   23.6681 H   0  0  0  0  0  0
  -26.0668  -31.5648   20.5965 H   0  0  0  0  0  0
  -26.8374  -30.8667   21.9919 H   0  0  0  0  0  0
  -28.0998  -28.9865   21.2377 H   0  0  0  0  0  0
  -25.9860  -25.9560   18.9980 H   0  0  0  0  0  0
  -23.9832  -27.3464   18.9656 H   0  0  0  0  0  0
  -23.7518  -30.6199   19.4111 H   0  0  0  0  0  0
  -22.7505  -29.2699   19.8452 H   0  0  0  0  0  0
  -25.1283  -36.1966   25.0834 H   0  0  0  0  0  0
  -20.9957  -28.3212   24.1461 H   0  0  0  0  0  0
  -20.5705  -26.2249   23.3618 H   0  0  0  0  0  0
  -21.6636  -26.7431   22.1213 H   0  0  0  0  0  0
  -19.6921  -25.6285   21.1228 H   0  0  0  0  0  0
  -19.6683  -27.3199   20.6782 H   0  0  0  0  0  0
  -17.4209  -26.6658   21.4011 H   0  0  0  0  0  0
  -18.0293  -26.0019   22.9006 H   0  0  0  0  0  0
  -19.7920  -30.7199   24.2336 H   0  0  0  0  0  0
  -17.5003  -31.6239   24.5136 H   0  0  0  0  0  0
  -15.5351  -30.2956   23.7604 H   0  0  0  0  0  0
  -15.8675  -28.0790   22.7040 H   0  0  0  0  0  0
  -24.5913  -30.7022   25.7802 H   0  0  0  0  0  0
  -24.8945  -32.2799   26.4964 H   0  0  0  0  0  0
  -25.8099  -30.8796   27.0201 H   0  0  0  0  0  0
  -26.2818  -29.6792   24.1123 H   0  0  0  0  0  0
  -27.4096  -29.7206   25.4474 H   0  0  0  0  0  0
  -27.8643  -30.4330   23.9174 H   0  0  0  0  0  0
  -27.2666  -33.3579   26.2087 H   0  0  0  0  0  0
  -28.3849  -32.6867   25.0304 H   0  0  0  0  0  0
  -28.0734  -31.8397   26.5390 H   0  0  0  0  0  0
  -28.2570  -38.0148   24.7543 H   0  0  0  0  0  0
  -28.1131  -36.2687   24.6213 H   0  0  0  0  0  0
  -27.2317  -37.1380   25.8854 H   0  0  0  0  0  0
  -20.9339  -29.8865   21.7057 H   0  0  0  0  0  0
  -26.0180  -38.2874   24.1412 H   0  0  0  0  0  0
  -26.5181  -23.9259   16.4261 H   0  0  0  0  0  0
  -27.7283  -24.8656   18.2986 H   0  0  0  0  0  0
  -26.5054  -21.5415   16.0535 H   0  0  0  0  0  0
  -32.4488  -22.2132   22.3290 H   0  0  0  0  0  0
  -32.5997  -20.4310   21.8970 H   0  0  0  0  0  0
  -33.5867  -21.0468   19.6852 H   0  0  0  0  0  0
  -33.4388  -22.8300   20.1214 H   0  0  0  0  0  0
  -28.8163  -18.7145   22.0730 H   0  0  0  0  0  0
  -27.8164  -17.5675   21.2714 H   0  0  0  0  0  0
  -28.6320  -17.3551   18.3465 H   0  0  0  0  0  0
  -29.8941  -18.4824   17.9824 H   0  0  0  0  0  0
  -29.4839  -16.2540   22.3231 H   0  0  0  0  0  0
  -30.7792  -17.2622   21.7590 H   0  0  0  0  0  0
  -31.4162  -17.3332   19.5649 H   0  0  0  0  0  0
  -30.7861  -16.2562   18.3666 H   0  0  0  0  0  0
  -31.0696  -22.6332   20.2434 H   0  0  0  0  0  0
  -27.7838  -18.9349   19.6561 H   0  0  0  0  0  0
  -27.8988  -18.2892   15.9157 H   0  0  0  0  0  0
  -27.8841  -19.9359   15.3183 H   0  0  0  0  0  0
  -26.4043  -19.2237   16.0096 H   0  0  0  0  0  0
  -29.8502  -24.2620   20.0703 H   0  0  0  0  0  0
  -29.0319  -23.2084   21.2132 H   0  0  0  0  0  0
  -31.2952  -19.6273   19.9812 H   0  0  0  0  0  0
  -31.0220  -20.6035   18.5648 H   0  0  0  0  0  0
  -28.2127  -25.2924   21.8412 H   0  0  0  0  0  0
  -26.9726  -24.8656   20.7363 H   0  0  0  0  0  0
  -29.0777  -20.7957   20.8830 H   0  0  0  0  0  0
  1 25  1  0  0  0
  1 30  2  0  0  0
  1 90  1  0  0  0
  2  3  1  0  0  0
  2 25  1  0  0  0
  2 92  1  0  0  0
  2 93  1  0  0  0
  3  4  1  0  0  0
  3 94  1  0  0  0
  3 95  1  0  0  0
  4  5  1  0  0  0
  4 96  1  0  0  0
  4 97  1  0  0  0
  5  6  1  0  0  0
  5 26  1  0  0  0
  5 98  1  0  0  0
  6 25  1  0  0  0
  6 99  1  0  0  0
  6100  1  0  0  0
  7  8  2  0  0  0
  7 26  1  0  0  0
  7 29  1  0  0  0
  8  9  1  0  0  0
  8 22  1  0  0  0
  9 10  1  0  0  0
  9 27  2  0  0  0
 10 11  2  0  0  0
 10 15  1  0  0  0
 11 12  1  0  0  0
 11101  1  0  0  0
 12 13  2  0  0  0
 12102  1  0  0  0
 13 14  1  0  0  0
 13 31  1  0  0  0
 14 15  2  0  0  0
 14103  1  0  0  0
 15104  1  0  0  0
 16 17  2  0  0  0
 16 21  1  0  0  0
 16 31  1  0  0  0
 17 18  1  0  0  0
 17105  1  0  0  0
 18 19  2  0  0  0
 18106  1  0  0  0
 19 20  1  0  0  0
 19 24  1  0  0  0
 20 21  2  0  0  0
 20107  1  0  0  0
 21 23  1  0  0  0
 22 28  1  0  0  0
 22 32  2  0  0  0
 26 27  1  0  0  0
 28108  1  0  0  0
 28109  1  0  0  0
 29110  1  0  0  0
 29111  1  0  0  0
 33 34  1  0  0  0
 33 66  1  0  0  0
 33 70  2  0  0  0
 34 36  1  0  0  0
 34 59  1  0  0  0
 34112  1  0  0  0
 35 44  2  0  0  0
 35 45  1  0  0  0
 35 68  1  0  0  0
 36 56  1  0  0  0
 36113  1  0  0  0
 37 39  1  0  0  0
 37 47  1  0  0  0
 37 66  1  0  0  0
 37114  1  0  0  0
 38 43  2  0  0  0
 38 46  1  0  0  0
 38 47  1  0  0  0
 39 64  1  0  0  0
 39 67  2  0  0  0
 40 52  1  0  0  0
 40 53  2  0  0  0
 40 58  1  0  0  0
 41115  1  0  0  0
 41116  1  0  0  0
 41117  1  0  0  0
 41 48  1  0  0  0
 42 43  1  0  0  0
 42 66  1  0  0  0
 42118  1  0  0  0
 42119  1  0  0  0
 43 44  1  0  0  0
 44120  1  0  0  0
 45 46  2  0  0  0
 45121  1  0  0  0
 46122  1  0  0  0
 47123  1  0  0  0
 47124  1  0  0  0
 48 56  1  0  0  0
 48 65  1  0  0  0
 48125  1  0  0  0
 49 50  1  0  0  0
 49 53  1  0  0  0
 49 64  1  0  0  0
 49126  1  0  0  0
 50 51  1  0  0  0
 50127  1  0  0  0
 50128  1  0  0  0
 51 52  1  0  0  0
 51129  1  0  0  0
 51130  1  0  0  0
 52131  1  0  0  0
 52132  1  0  0  0
 53 54  1  0  0  0
 54 55  2  0  0  0
 54133  1  0  0  0
 55 57  1  0  0  0
 55134  1  0  0  0
 56 69  2  0  0  0
 57 58  2  0  0  0
 57135  1  0  0  0
 58136  1  0  0  0
 59 60  1  0  0  0
 59 61  1  0  0  0
 59 62  1  0  0  0
 60137  1  0  0  0
 60138  1  0  0  0
 60139  1  0  0  0
 61140  1  0  0  0
 61141  1  0  0  0
 61142  1  0  0  0
 62143  1  0  0  0
 62144  1  0  0  0
 62145  1  0  0  0
 63 65  1  0  0  0
 63146  1  0  0  0
 63147  1  0  0  0
 63148  1  0  0  0
 64149  1  0  0  0
 65150  1  0  0  0
 68 88  1  0  0  0
 71 72  2  0  0  0
 71 73  1  0  0  0
 71151  1  0  0  0
 72 74  1  0  0  0
 72152  1  0  0  0
 73 76  2  0  0  0
 73153  1  0  0  0
 74 75  2  0  0  0
 74 86  1  0  0  0
 75 76  1  0  0  0
 75 89  1  0  0  0
 76 91  1  0  0  0
 77 78  1  0  0  0
 77 83  1  0  0  0
 77154  1  0  0  0
 77155  1  0  0  0
 78 83  1  0  0  0
 78156  1  0  0  0
 78157  1  0  0  0
 79 81  1  0  0  0
 79158  1  0  0  0
 79159  1  0  0  0
 79 84  1  0  0  0
 80 82  1  0  0  0
 80 84  1  0  0  0
 80160  1  0  0  0
 80161  1  0  0  0
 81 90  1  0  0  0
 81162  1  0  0  0
 81163  1  0  0  0
 82 90  1  0  0  0
 82164  1  0  0  0
 82165  1  0  0  0
 83 87  1  0  0  0
 83166  1  0  0  0
 84 89  1  0  0  0
 84167  1  0  0  0
 85 91  1  0  0  0
 85168  1  0  0  0
 85169  1  0  0  0
 85170  1  0  0  0
 86 88  1  0  0  0
 86171  1  0  0  0
 86172  1  0  0  0
 87173  1  0  0  0
 87174  1  0  0  0
 87 89  1  0  0  0
 88175  1  0  0  0
 88176  1  0  0  0
 89177  1  0  0  0
M  ISO  4   1 100  68 101  88 101  90 100
M  END
> <chiral flag>
0

> <version>
0

> <s_m_source_file>
/data/baiqing/PycharmProjects/Reinvent-master-3.2/result/LINK_invent/BTK/process_docking_weight1_custom_sum_contain_oxygen_bond_distance_aromatic_linkinvent_7_9_3/rearranged_h_0139.sdf

> <i_m_source_file_index>
55

> <r_mmod_Potential_Energy-OPLS-2005>
562.195434570312

> <r_mmod_Stretch_Energy-OPLS-2005>
124.725601196289

> <r_mmod_Bend_Energy-OPLS-2005>
221.078842163086

> <r_mmod_Torsional_Energy-OPLS-2005>
421.667022705078

> <r_mmod_Improper_Torsional_Energy-OPLS-2005>
18.6045761108398

> <r_mmod_Van_der_Waal_Energy-OPLS-2005>
168.053421020508

> <r_mmod_Electrostatic_Energy-OPLS-2005>
-276.109313964844

> <r_mmod_Solvation_Energy-OPLS-2005>
-186.108474731445

> <b_mmod_Minimization_Converged-OPLS-2005>
0

> <r_mmod_RMS_Derivative-OPLS-2005>
5.80409479141235

$$$$
55
                    3D
 Structure written by MMmdl.
173182  0  0  1  0            999 V2000
  -30.5763  -14.6297   20.5630 C   0  0  0  0  0  0
  -30.4414  -12.3997   19.4665 C   0  0  0  0  0  0
  -29.5151  -12.5170   18.2341 C   0  0  0  0  0  0
  -28.0360  -12.3218   18.6356 C   0  0  0  0  0  0
  -27.6434  -13.1987   19.8558 C   0  0  2  0  0  0
  -28.6712  -13.0238   20.9928 C   0  0  0  0  0  0
  -25.2514  -13.8118   20.5540 C   0  0  0  0  0  0
  -24.1771  -13.0410   20.9143 C   0  0  0  0  0  0
  -24.6333  -11.6893   20.8741 C   0  0  0  0  0  0
  -23.8990  -10.4276   21.0428 C   0  0  0  0  0  0
  -24.3565   -9.4208   21.9226 C   0  0  0  0  0  0
  -23.6244   -8.2247   22.0767 C   0  0  0  0  0  0
  -22.4238   -8.0271   21.3529 C   0  0  0  0  0  0
  -21.9859   -9.0265   20.4650 C   0  0  0  0  0  0
  -22.7170  -10.2142   20.3078 C   0  0  0  0  0  0
  -21.6840   -6.0764   22.5297 C   0  0  0  0  0  0
  -21.4002   -6.5647   23.8242 C   0  0  0  0  0  0
  -21.3654   -5.6797   24.9184 C   0  0  0  0  0  0
  -21.6047   -4.3071   24.7226 C   0  0  0  0  0  0
  -21.8805   -3.8156   23.4343 C   0  0  0  0  0  0
  -21.9157   -4.6979   22.3384 C   0  0  0  0  0  0
  -22.7830  -13.5272   21.1826 C   0  0  0  0  0  0
  -22.1630   -4.2179   21.0983 F   0  0  0  0  0  0
  -21.5630   -3.4522   25.7740 F   0  0  0  0  0  0
  -29.9890  -13.3962   20.4545 N   0  0  0  0  0  0
  -26.2879  -12.9274   20.3202 N   0  0  0  0  0  0
  -25.9229  -11.6434   20.5697 N   0  0  0  0  0  0
  -22.0401  -12.8332   22.0394 N   0  0  0  0  0  0
  -25.4215  -15.1800   20.3843 N   0  0  0  0  0  0
  -31.7265  -14.8348   20.1526 O   0  0  0  0  0  0
  -21.6597   -6.8893   21.4259 O   0  0  0  0  0  0
  -22.3532  -14.5570   20.6636 O   0  0  0  0  0  0
  -24.6246  -31.8609   23.2101 C   0  0  0  0  0  0
  -25.9118  -32.4795   23.8405 C   0  0  1  0  0  0
  -27.2249  -27.3773   20.0618 C   0  0  0  0  0  0
  -25.5980  -33.8594   24.2331 N   0  0  0  0  0  0
  -23.4105  -30.4944   21.5483 C   0  0  2  0  0  0
  -24.8475  -28.9494   20.1226 C   0  0  0  0  0  0
  -22.7439  -29.4643   22.4903 C   0  0  0  0  0  0
  -18.0252  -28.1433   22.8445 C   0  0  0  0  0  0
  -24.1485  -36.7335   23.2636 C   0  0  0  0  0  0
  -25.9495  -30.8102   21.3674 C   0  0  0  0  0  0
  -26.0190  -29.4398   20.7101 C   0  0  0  0  0  0
  -27.2061  -28.6612   20.6733 C   0  0  0  0  0  0
  -26.0130  -26.8964   19.5072 C   0  0  0  0  0  0
  -24.8383  -27.6753   19.5294 C   0  0  0  0  0  0
  -23.6252  -29.8428   20.1607 C   0  0  0  0  0  0
  -25.4101  -36.3104   24.0354 C   0  0  1  0  0  0
  -20.5861  -28.3728   23.1283 C   0  0  2  0  0  0
  -20.6770  -26.9422   22.5456 C   0  0  0  0  0  0
  -19.5708  -26.6272   21.5331 C   0  0  0  0  0  0
  -18.1880  -26.7913   22.1715 C   0  0  0  0  0  0
  -19.1522  -28.8877   23.2904 C   0  0  0  0  0  0
  -18.9413  -30.1405   23.9046 C   0  0  0  0  0  0
  -17.6397  -30.6521   24.0699 C   0  0  0  0  0  0
  -25.9042  -34.9466   23.5129 C   0  0  0  0  0  0
  -16.5308  -29.9102   23.6329 C   0  0  0  0  0  0
  -16.7223  -28.6563   23.0314 C   0  0  0  0  0  0
  -26.4455  -31.6595   25.0782 C   0  0  0  0  0  0
  -25.3737  -31.3806   26.1592 C   0  0  0  0  0  0
  -27.0217  -30.2971   24.6258 C   0  0  0  0  0  0
  -27.6059  -32.4325   25.7512 C   0  0  0  0  0  0
  -27.5578  -37.1848   24.8470 C   0  0  0  0  0  0
  -21.4169  -29.3099   22.3665 N   0  0  0  0  0  0
  -26.4273  -37.3829   23.9447 N   0  0  0  0  0  0
  -24.6811  -31.0699   22.1000 N   0  0  0  0  0  0
  -23.4200  -28.8172   23.2944 O   0  0  0  0  0  0
  -28.4122  -26.6440   20.0335 O   0  0  0  0  0  0
  -26.5580  -34.8919   22.4683 O   0  0  0  0  0  0
  -23.5425  -32.1399   23.7489 O   0  0  0  0  0  0
  -26.8188  -21.8223   21.0352 C   0  0  0  0  0  0
  -26.4377  -20.8084   21.9209 C   0  0  0  0  0  0
  -27.3150  -19.7130   22.1333 C   0  0  0  0  0  0
  -28.3472  -19.4915   21.1521 C   0  0  0  0  0  0
  -28.0530  -21.7291   20.3825 C   0  0  0  0  0  0
  -27.5769  -21.3382   26.7495 C   0  0  0  0  0  0
  -26.6603  -21.9060   25.7018 C   0  0  0  0  0  0
  -27.0025  -20.4239   25.6754 C   0  0  0  0  0  0
  -25.0885  -20.9213   22.6072 C   0  0  0  0  0  0
  -27.6816  -17.5248   23.5194 C   0  0  0  0  0  0
  -28.7037  -18.0354   20.6279 C   0  0  0  0  0  0
  -29.9598  -17.1451   21.0599 C   0  0  0  0  0  0
  -28.5158  -25.3643   19.3422 C   0  0  0  0  0  0
  -28.4563  -24.1239   20.2901 C   0  0  0  0  0  0
  -27.1799  -18.9637   23.4919 C   0  0  1  0  0  0
  -27.9087  -19.7392   24.6508 C   0  0  1  0  0  0
  -28.7397  -20.5419   20.3548 N   0  0  0  0  0  0
  -29.7558  -15.6444   20.9806 N   0  0  0  0  0  0
  -28.8173  -20.6524   24.0665 O   0  0  0  0  0  0
  -28.5651  -22.8083   19.6654 O   0  0  0  0  0  0
  -31.4838  -12.5580   19.1778 H   0  0  0  0  0  0
  -30.3955  -11.4009   19.8984 H   0  0  0  0  0  0
  -29.8155  -11.8103   17.4605 H   0  0  0  0  0  0
  -29.6314  -13.5087   17.7973 H   0  0  0  0  0  0
  -27.8871  -11.2675   18.8786 H   0  0  0  0  0  0
  -27.3835  -12.5294   17.7870 H   0  0  0  0  0  0
  -27.6767  -14.2363   19.5246 H   0  0  0  0  0  0
  -28.6786  -11.9810   21.3156 H   0  0  0  0  0  0
  -28.4028  -13.6010   21.8779 H   0  0  0  0  0  0
  -25.2715   -9.5696   22.4814 H   0  0  0  0  0  0
  -23.9964   -7.4630   22.7462 H   0  0  0  0  0  0
  -21.0807   -8.8788   19.8943 H   0  0  0  0  0  0
  -22.3638  -10.9712   19.6197 H   0  0  0  0  0  0
  -21.2018   -7.6167   23.9741 H   0  0  0  0  0  0
  -21.1484   -6.0535   25.9106 H   0  0  0  0  0  0
  -22.0572   -2.7619   23.2827 H   0  0  0  0  0  0
  -22.3936  -12.0027   22.4922 H   0  0  0  0  0  0
  -21.1019  -13.1473   22.2491 H   0  0  0  0  0  0
  -24.6391  -15.8204   20.4461 H   0  0  0  0  0  0
  -26.2481  -15.6043   19.9872 H   0  0  0  0  0  0
  -26.7230  -32.5439   23.1187 H   0  0  0  0  0  0
  -25.0174  -33.9724   25.0508 H   0  0  0  0  0  0
  -22.7014  -31.3143   21.4155 H   0  0  0  0  0  0
  -23.3734  -35.9681   23.3298 H   0  0  0  0  0  0
  -24.3576  -36.8953   22.2041 H   0  0  0  0  0  0
  -23.7244  -37.6558   23.6639 H   0  0  0  0  0  0
  -26.0760  -31.5718   20.5980 H   0  0  0  0  0  0
  -26.8320  -30.8569   21.9951 H   0  0  0  0  0  0
  -28.1169  -29.0411   21.1203 H   0  0  0  0  0  0
  -25.9313  -25.9159   19.0608 H   0  0  0  0  0  0
  -23.9336  -27.2761   19.0926 H   0  0  0  0  0  0
  -23.7817  -30.6324   19.4254 H   0  0  0  0  0  0
  -22.7363  -29.3063   19.8266 H   0  0  0  0  0  0
  -25.1239  -36.1984   25.0846 H   0  0  0  0  0  0
  -21.0024  -28.3369   24.1392 H   0  0  0  0  0  0
  -20.5751  -26.2371   23.3727 H   0  0  0  0  0  0
  -21.6615  -26.7508   22.1168 H   0  0  0  0  0  0
  -19.6927  -25.6133   21.1506 H   0  0  0  0  0  0
  -19.6629  -27.2961   20.6744 H   0  0  0  0  0  0
  -17.4096  -26.6553   21.4164 H   0  0  0  0  0  0
  -18.0254  -26.0142   22.9218 H   0  0  0  0  0  0
  -19.7865  -30.7166   24.2581 H   0  0  0  0  0  0
  -17.4897  -31.6119   24.5452 H   0  0  0  0  0  0
  -15.5284  -30.2980   23.7681 H   0  0  0  0  0  0
  -15.8621  -28.0953   22.6867 H   0  0  0  0  0  0
  -24.5768  -30.7347   25.7959 H   0  0  0  0  0  0
  -24.9098  -32.2974   26.5193 H   0  0  0  0  0  0
  -25.8070  -30.8839   27.0275 H   0  0  0  0  0  0
  -26.2685  -29.6778   24.1402 H   0  0  0  0  0  0
  -27.3896  -29.7247   25.4791 H   0  0  0  0  0  0
  -27.8608  -30.4139   23.9401 H   0  0  0  0  0  0
  -27.2674  -33.3617   26.2130 H   0  0  0  0  0  0
  -28.3815  -32.6971   25.0295 H   0  0  0  0  0  0
  -28.0772  -31.8425   26.5397 H   0  0  0  0  0  0
  -28.2582  -38.0141   24.7482 H   0  0  0  0  0  0
  -28.1047  -36.2673   24.6281 H   0  0  0  0  0  0
  -27.2298  -37.1519   25.8866 H   0  0  0  0  0  0
  -20.9328  -29.8933   21.6976 H   0  0  0  0  0  0
  -26.0141  -38.2907   24.1470 H   0  0  0  0  0  0
  -26.1743  -22.6796   20.8918 H   0  0  0  0  0  0
  -27.1649  -21.2602   27.7541 H   0  0  0  0  0  0
  -28.6203  -21.6485   26.6981 H   0  0  0  0  0  0
  -27.1020  -22.5635   24.9564 H   0  0  0  0  0  0
  -25.6682  -22.1889   26.0425 H   0  0  0  0  0  0
  -26.2529  -19.7350   26.0599 H   0  0  0  0  0  0
  -24.5680  -19.9665   22.5515 H   0  0  0  0  0  0
  -24.4483  -21.6490   22.1086 H   0  0  0  0  0  0
  -25.1687  -21.2114   23.6510 H   0  0  0  0  0  0
  -27.2983  -16.9298   22.6968 H   0  0  0  0  0  0
  -27.3570  -17.0491   24.4434 H   0  0  0  0  0  0
  -28.7669  -17.5086   23.5337 H   0  0  0  0  0  0
  -28.8069  -18.1431   19.5465 H   0  0  0  0  0  0
  -27.7981  -17.4406   20.7202 H   0  0  0  0  0  0
  -30.2617  -17.3765   22.0769 H   0  0  0  0  0  0
  -30.8078  -17.4251   20.4346 H   0  0  0  0  0  0
  -29.4849  -25.3568   18.8434 H   0  0  0  0  0  0
  -27.8093  -25.2709   18.5197 H   0  0  0  0  0  0
  -27.5632  -24.2391   20.9003 H   0  0  0  0  0  0
  -29.2938  -24.1903   20.9835 H   0  0  0  0  0  0
  -26.1254  -18.8776   23.7506 H   0  0  0  0  0  0
  -28.4869  -19.0309   25.2503 H   0  0  0  0  0  0
  -28.8467  -15.3259   21.2919 H   0  0  0  0  0  0
  -28.4402  -20.8045   23.2006 H   0  0  0  0  0  0
  1 25  1  0  0  0
  1 30  2  0  0  0
  1 88  1  0  0  0
  2  3  1  0  0  0
  2 25  1  0  0  0
  2 91  1  0  0  0
  2 92  1  0  0  0
  3  4  1  0  0  0
  3 93  1  0  0  0
  3 94  1  0  0  0
  4  5  1  0  0  0
  4 95  1  0  0  0
  4 96  1  0  0  0
  5  6  1  0  0  0
  5 26  1  0  0  0
  5 97  1  0  0  0
  6 25  1  0  0  0
  6 98  1  0  0  0
  6 99  1  0  0  0
  7  8  2  0  0  0
  7 26  1  0  0  0
  7 29  1  0  0  0
  8  9  1  0  0  0
  8 22  1  0  0  0
  9 10  1  0  0  0
  9 27  2  0  0  0
 10 11  2  0  0  0
 10 15  1  0  0  0
 11 12  1  0  0  0
 11100  1  0  0  0
 12 13  2  0  0  0
 12101  1  0  0  0
 13 14  1  0  0  0
 13 31  1  0  0  0
 14 15  2  0  0  0
 14102  1  0  0  0
 15103  1  0  0  0
 16 17  2  0  0  0
 16 21  1  0  0  0
 16 31  1  0  0  0
 17 18  1  0  0  0
 17104  1  0  0  0
 18 19  2  0  0  0
 18105  1  0  0  0
 19 20  1  0  0  0
 19 24  1  0  0  0
 20 21  2  0  0  0
 20106  1  0  0  0
 21 23  1  0  0  0
 22 28  1  0  0  0
 22 32  2  0  0  0
 26 27  1  0  0  0
 28107  1  0  0  0
 28108  1  0  0  0
 29109  1  0  0  0
 29110  1  0  0  0
 33 34  1  0  0  0
 33 66  1  0  0  0
 33 70  2  0  0  0
 34 36  1  0  0  0
 34 59  1  0  0  0
 34111  1  0  0  0
 35 44  2  0  0  0
 35 45  1  0  0  0
 35 68  1  0  0  0
 36 56  1  0  0  0
 36112  1  0  0  0
 37 39  1  0  0  0
 37 47  1  0  0  0
 37 66  1  0  0  0
 37113  1  0  0  0
 38 43  2  0  0  0
 38 46  1  0  0  0
 38 47  1  0  0  0
 39 64  1  0  0  0
 39 67  2  0  0  0
 40 52  1  0  0  0
 40 53  2  0  0  0
 40 58  1  0  0  0
 41114  1  0  0  0
 41115  1  0  0  0
 41116  1  0  0  0
 41 48  1  0  0  0
 42 43  1  0  0  0
 42 66  1  0  0  0
 42117  1  0  0  0
 42118  1  0  0  0
 43 44  1  0  0  0
 44119  1  0  0  0
 45 46  2  0  0  0
 45120  1  0  0  0
 46121  1  0  0  0
 47122  1  0  0  0
 47123  1  0  0  0
 48 56  1  0  0  0
 48 65  1  0  0  0
 48124  1  0  0  0
 49 50  1  0  0  0
 49 53  1  0  0  0
 49 64  1  0  0  0
 49125  1  0  0  0
 50 51  1  0  0  0
 50126  1  0  0  0
 50127  1  0  0  0
 51 52  1  0  0  0
 51128  1  0  0  0
 51129  1  0  0  0
 52130  1  0  0  0
 52131  1  0  0  0
 53 54  1  0  0  0
 54 55  2  0  0  0
 54132  1  0  0  0
 55 57  1  0  0  0
 55133  1  0  0  0
 56 69  2  0  0  0
 57 58  2  0  0  0
 57134  1  0  0  0
 58135  1  0  0  0
 59 60  1  0  0  0
 59 61  1  0  0  0
 59 62  1  0  0  0
 60136  1  0  0  0
 60137  1  0  0  0
 60138  1  0  0  0
 61139  1  0  0  0
 61140  1  0  0  0
 61141  1  0  0  0
 62142  1  0  0  0
 62143  1  0  0  0
 62144  1  0  0  0
 63 65  1  0  0  0
 63145  1  0  0  0
 63146  1  0  0  0
 63147  1  0  0  0
 64148  1  0  0  0
 65149  1  0  0  0
 68 83  1  0  0  0
 71 72  2  0  0  0
 71 75  1  0  0  0
 71150  1  0  0  0
 72 73  1  0  0  0
 72 79  1  0  0  0
 73 74  2  0  0  0
 73 85  1  0  0  0
 74 81  1  0  0  0
 74 87  1  0  0  0
 75 87  2  0  0  0
 75 90  1  0  0  0
 76 77  1  0  0  0
 76151  1  0  0  0
 76152  1  0  0  0
 76 78  1  0  0  0
 77 78  1  0  0  0
 77153  1  0  0  0
 77154  1  0  0  0
 78 86  1  0  0  0
 78155  1  0  0  0
 79156  1  0  0  0
 79157  1  0  0  0
 79158  1  0  0  0
 80159  1  0  0  0
 80160  1  0  0  0
 80161  1  0  0  0
 80 85  1  0  0  0
 81 82  1  0  0  0
 81162  1  0  0  0
 81163  1  0  0  0
 82 88  1  0  0  0
 82164  1  0  0  0
 82165  1  0  0  0
 83 84  1  0  0  0
 83166  1  0  0  0
 83167  1  0  0  0
 84 90  1  0  0  0
 84168  1  0  0  0
 84169  1  0  0  0
 85 86  1  0  0  0
 85170  1  0  0  0
 86 89  1  0  0  0
 86171  1  0  0  0
 88172  1  0  0  0
 89173  1  0  0  0
M  ISO  4   1 100  68 101  83 101  88 100
M  END
> <chiral flag>
0

> <version>
0

> <s_m_source_file>
/data/baiqing/PycharmProjects/Reinvent-master-3.2/result/LINK_invent/BTK/process_docking_weight1_custom_sum_contain_oxygen_bond_distance_aromatic_linkinvent_7_9_3/rearranged_h_0139.sdf

> <i_m_source_file_index>
56

> <r_mmod_Potential_Energy-OPLS-2005>
-21.9555034637451

> <r_mmod_Stretch_Energy-OPLS-2005>
82.816032409668

> <r_mmod_Bend_Energy-OPLS-2005>
168.695159912109

> <r_mmod_Torsional_Energy-OPLS-2005>
357.17431640625

> <r_mmod_Improper_Torsional_Energy-OPLS-2005>
8.821852684021

> <r_mmod_Van_der_Waal_Energy-OPLS-2005>
167.457000732422

> <r_mmod_Electrostatic_Energy-OPLS-2005>
-606.054870605469

> <r_mmod_Solvation_Energy-OPLS-2005>
-238.976119995117

> <b_mmod_Minimization_Converged-OPLS-2005>
0

> <r_mmod_RMS_Derivative-OPLS-2005>
8.36488723754883

$$$$
56
                    3D
 Structure written by MMmdl.
169178  0  0  1  0            999 V2000
  -30.7035  -14.4574   20.5757 C   0  0  0  0  0  0
  -30.4210  -12.3018   19.4183 C   0  0  0  0  0  0
  -29.4864  -12.4953   18.2070 C   0  0  0  0  0  0
  -28.0085  -12.3586   18.6250 C   0  0  0  0  0  0
  -27.6594  -13.2038   19.8792 C   0  0  2  0  0  0
  -28.7049  -12.9870   20.9978 C   0  0  0  0  0  0
  -25.2558  -13.8144   20.5680 C   0  0  0  0  0  0
  -24.1820  -13.0432   20.9188 C   0  0  0  0  0  0
  -24.6382  -11.6899   20.8772 C   0  0  0  0  0  0
  -23.9055  -10.4287   21.0447 C   0  0  0  0  0  0
  -24.3626   -9.4189   21.9211 C   0  0  0  0  0  0
  -23.6317   -8.2214   22.0753 C   0  0  0  0  0  0
  -22.4297   -8.0247   21.3550 C   0  0  0  0  0  0
  -21.9931   -9.0220   20.4661 C   0  0  0  0  0  0
  -22.7236  -10.2118   20.3087 C   0  0  0  0  0  0
  -21.6829   -6.0728   22.5287 C   0  0  0  0  0  0
  -21.3979   -6.5654   23.8211 C   0  0  0  0  0  0
  -21.3659   -5.6822   24.9183 C   0  0  0  0  0  0
  -21.6060   -4.3076   24.7246 C   0  0  0  0  0  0
  -21.8808   -3.8154   23.4371 C   0  0  0  0  0  0
  -21.9181   -4.6962   22.3416 C   0  0  0  0  0  0
  -22.7858  -13.5240   21.1890 C   0  0  0  0  0  0
  -22.1639   -4.2143   21.0988 F   0  0  0  0  0  0
  -21.5662   -3.4559   25.7757 F   0  0  0  0  0  0
  -30.0322  -13.2863   20.4360 N   0  0  0  0  0  0
  -26.3000  -12.9318   20.3426 N   0  0  0  0  0  0
  -25.9306  -11.6480   20.5823 N   0  0  0  0  0  0
  -22.0533  -12.8222   22.0452 N   0  0  0  0  0  0
  -25.4286  -15.1856   20.3938 N   0  0  0  0  0  0
  -31.8440  -14.6430   20.1465 O   0  0  0  0  0  0
  -21.6646   -6.8856   21.4244 O   0  0  0  0  0  0
  -22.3520  -14.5527   20.6710 O   0  0  0  0  0  0
  -24.6137  -31.8674   23.2118 C   0  0  0  0  0  0
  -25.9042  -32.4821   23.8396 C   0  0  1  0  0  0
  -27.2360  -27.4584   20.0858 C   0  0  0  0  0  0
  -25.5904  -33.8620   24.2337 N   0  0  0  0  0  0
  -23.4008  -30.4931   21.5511 C   0  0  2  0  0  0
  -24.8466  -28.9605   20.1145 C   0  0  0  0  0  0
  -22.7394  -29.4674   22.4999 C   0  0  0  0  0  0
  -18.0271  -28.1377   22.8488 C   0  0  0  0  0  0
  -24.1505  -36.7333   23.2639 C   0  0  0  0  0  0
  -25.9280  -30.8394   21.3620 C   0  0  0  0  0  0
  -26.0054  -29.4735   20.7129 C   0  0  0  0  0  0
  -27.2022  -28.7271   20.7020 C   0  0  0  0  0  0
  -26.0655  -26.9557   19.4767 C   0  0  0  0  0  0
  -24.8690  -27.6978   19.4960 C   0  0  0  0  0  0
  -23.6066  -29.8243   20.1652 C   0  0  0  0  0  0
  -25.4123  -36.3120   24.0348 C   0  0  1  0  0  0
  -20.5862  -28.3672   23.1325 C   0  0  2  0  0  0
  -20.6772  -26.9414   22.5417 C   0  0  0  0  0  0
  -19.5752  -26.6397   21.5212 C   0  0  0  0  0  0
  -18.1927  -26.7920   22.1627 C   0  0  0  0  0  0
  -19.1514  -28.8839   23.2905 C   0  0  0  0  0  0
  -18.9436  -30.1443   23.8913 C   0  0  0  0  0  0
  -17.6435  -30.6573   24.0571 C   0  0  0  0  0  0
  -25.9030  -34.9477   23.5135 C   0  0  0  0  0  0
  -16.5330  -29.9078   23.6322 C   0  0  0  0  0  0
  -16.7257  -28.6505   23.0327 C   0  0  0  0  0  0
  -26.4465  -31.6564   25.0700 C   0  0  0  0  0  0
  -25.3733  -31.3628   26.1445 C   0  0  0  0  0  0
  -27.0292  -30.3015   24.6046 C   0  0  0  0  0  0
  -27.6069  -32.4244   25.7451 C   0  0  0  0  0  0
  -27.5589  -37.1829   24.8465 C   0  0  0  0  0  0
  -21.4125  -29.3046   22.3734 N   0  0  0  0  0  0
  -26.4316  -37.3799   23.9382 N   0  0  0  0  0  0
  -24.6658  -31.0803   22.1006 N   0  0  0  0  0  0
  -23.4166  -28.8231   23.3047 O   0  0  0  0  0  0
  -28.4003  -26.7286   20.0657 O   0  0  0  0  0  0
  -26.5592  -34.8934   22.4694 O   0  0  0  0  0  0
  -23.5325  -32.1440   23.7509 O   0  0  0  0  0  0
  -28.1899  -23.0457   20.2838 C   0  0  0  0  0  0
  -28.3104  -24.3403   19.7431 C   0  0  0  0  0  0
  -28.3126  -25.2665   21.9873 C   0  0  0  0  0  0
  -28.0905  -22.8399   21.6823 C   0  0  0  0  0  0
  -28.1875  -23.9707   22.5426 C   0  0  0  0  0  0
  -28.3432  -25.4611   20.5928 C   0  0  0  0  0  0
  -30.5277  -18.6160   23.0121 C   0  0  0  0  0  0
  -28.1977  -18.0506   22.1270 C   0  0  0  0  0  0
  -30.9399  -17.4709   22.0651 C   0  0  0  0  0  0
  -28.5810  -16.6389   22.6100 C   0  0  0  0  0  0
  -29.0893  -19.1500   22.7648 C   0  0  2  0  0  0
  -30.0089  -16.2315   22.1754 C   0  0  1  0  0  0
  -28.1548  -23.8518   24.0599 C   0  0  0  0  0  0
  -29.0792  -20.4909   21.9772 C   0  0  0  0  0  0
  -27.8506  -21.4126   22.2085 C   0  0  2  0  0  0
  -29.9370  -15.5099   20.9030 N   0  0  0  0  0  0
  -26.6098  -20.8755   21.6244 N   0  3  0  0  0  0
  -31.4625  -12.4067   19.1094 H   0  0  0  0  0  0
  -30.3271  -11.2931   19.8204 H   0  0  0  0  0  0
  -29.7243  -11.7614   17.4378 H   0  0  0  0  0  0
  -29.6506  -13.4771   17.7589 H   0  0  0  0  0  0
  -27.8227  -11.3039   18.8318 H   0  0  0  0  0  0
  -27.3505  -12.6213   17.7946 H   0  0  0  0  0  0
  -27.7037  -14.2515   19.5815 H   0  0  0  0  0  0
  -28.6784  -11.9571   21.3565 H   0  0  0  0  0  0
  -28.4798  -13.6080   21.8645 H   0  0  0  0  0  0
  -25.2768   -9.5631   22.4796 H   0  0  0  0  0  0
  -24.0017   -7.4594   22.7469 H   0  0  0  0  0  0
  -21.0853   -8.8722   19.8986 H   0  0  0  0  0  0
  -22.3673  -10.9652   19.6200 H   0  0  0  0  0  0
  -21.1914   -7.6151   23.9688 H   0  0  0  0  0  0
  -21.1524   -6.0569   25.9089 H   0  0  0  0  0  0
  -22.0590   -2.7616   23.2879 H   0  0  0  0  0  0
  -22.4196  -11.9868   22.4750 H   0  0  0  0  0  0
  -21.1138  -13.1167   22.2703 H   0  0  0  0  0  0
  -24.6610  -15.8444   20.4688 H   0  0  0  0  0  0
  -26.2855  -15.6042   20.0567 H   0  0  0  0  0  0
  -26.7121  -32.5534   23.1164 H   0  0  0  0  0  0
  -25.0056  -33.9769   25.0489 H   0  0  0  0  0  0
  -22.6910  -31.3119   21.4154 H   0  0  0  0  0  0
  -23.3741  -35.9681   23.3300 H   0  0  0  0  0  0
  -24.3601  -36.8930   22.2043 H   0  0  0  0  0  0
  -23.7284  -37.6567   23.6633 H   0  0  0  0  0  0
  -26.0374  -31.6019   20.5896 H   0  0  0  0  0  0
  -26.8176  -30.8933   21.9772 H   0  0  0  0  0  0
  -28.0988  -29.1182   21.1618 H   0  0  0  0  0  0
  -26.0769  -25.9927   18.9855 H   0  0  0  0  0  0
  -23.9815  -27.2997   19.0229 H   0  0  0  0  0  0
  -23.7097  -30.5993   19.4051 H   0  0  0  0  0  0
  -22.7299  -29.2413   19.8747 H   0  0  0  0  0  0
  -25.1293  -36.1999   25.0845 H   0  0  0  0  0  0
  -20.9961  -28.3226   24.1443 H   0  0  0  0  0  0
  -20.5706  -26.2261   23.3592 H   0  0  0  0  0  0
  -21.6639  -26.7484   22.1189 H   0  0  0  0  0  0
  -19.6918  -25.6318   21.1213 H   0  0  0  0  0  0
  -19.6681  -27.3234   20.6761 H   0  0  0  0  0  0
  -17.4203  -26.6661   21.4026 H   0  0  0  0  0  0
  -18.0336  -26.0061   22.9026 H   0  0  0  0  0  0
  -19.7906  -30.7264   24.2290 H   0  0  0  0  0  0
  -17.4984  -31.6257   24.5164 H   0  0  0  0  0  0
  -15.5334  -30.2979   23.7637 H   0  0  0  0  0  0
  -15.8664  -28.0845   22.7003 H   0  0  0  0  0  0
  -24.5937  -30.6956   25.7744 H   0  0  0  0  0  0
  -24.8897  -32.2761   26.4918 H   0  0  0  0  0  0
  -25.8097  -30.8770   27.0182 H   0  0  0  0  0  0
  -26.2827  -29.6772   24.1139 H   0  0  0  0  0  0
  -27.4110  -29.7249   25.4475 H   0  0  0  0  0  0
  -27.8631  -30.4330   23.9155 H   0  0  0  0  0  0
  -27.2733  -33.3528   26.2095 H   0  0  0  0  0  0
  -28.3853  -32.6809   25.0251 H   0  0  0  0  0  0
  -28.0774  -31.8314   26.5308 H   0  0  0  0  0  0
  -28.2634  -38.0102   24.7479 H   0  0  0  0  0  0
  -28.1068  -36.2634   24.6336 H   0  0  0  0  0  0
  -27.2296  -37.1533   25.8871 H   0  0  0  0  0  0
  -20.9277  -29.8742   21.6946 H   0  0  0  0  0  0
  -26.0207  -38.2889   24.1328 H   0  0  0  0  0  0
  -28.1481  -22.2087   19.6006 H   0  0  0  0  0  0
  -28.3453  -24.4786   18.6713 H   0  0  0  0  0  0
  -28.3699  -26.1311   22.6335 H   0  0  0  0  0  0
  -31.2653  -19.4193   22.9619 H   0  0  0  0  0  0
  -30.5847  -18.2431   24.0353 H   0  0  0  0  0  0
  -27.1489  -18.2321   22.3618 H   0  0  0  0  0  0
  -28.2784  -18.0744   21.0386 H   0  0  0  0  0  0
  -31.9709  -17.1752   22.2713 H   0  0  0  0  0  0
  -30.9412  -17.8628   21.0474 H   0  0  0  0  0  0
  -28.5257  -16.6241   23.6987 H   0  0  0  0  0  0
  -27.8439  -15.9064   22.2769 H   0  0  0  0  0  0
  -28.6860  -19.3668   23.7570 H   0  0  0  0  0  0
  -30.4040  -15.5589   22.9399 H   0  0  0  0  0  0
  -28.8070  -23.0525   24.4146 H   0  0  0  0  0  0
  -27.1400  -23.6624   24.4128 H   0  0  0  0  0  0
  -28.5023  -24.7745   24.5303 H   0  0  0  0  0  0
  -29.2494  -20.3201   20.9144 H   0  0  0  0  0  0
  -29.9391  -21.0734   22.3112 H   0  0  0  0  0  0
  -27.6671  -21.4607   23.2814 H   0  0  0  0  0  0
  -29.8668  -16.1529   20.1286 H   0  0  0  0  0  0
  -25.8681  -21.5335   21.7831 H   0  0  0  0  0  0
  -26.3575  -20.0062   22.0591 H   0  0  0  0  0  0
  -26.7015  -20.7323   20.6369 H   0  0  0  0  0  0
  1 25  1  0  0  0
  1 30  2  0  0  0
  1 86  1  0  0  0
  2  3  1  0  0  0
  2 25  1  0  0  0
  2 88  1  0  0  0
  2 89  1  0  0  0
  3  4  1  0  0  0
  3 90  1  0  0  0
  3 91  1  0  0  0
  4  5  1  0  0  0
  4 92  1  0  0  0
  4 93  1  0  0  0
  5  6  1  0  0  0
  5 26  1  0  0  0
  5 94  1  0  0  0
  6 25  1  0  0  0
  6 95  1  0  0  0
  6 96  1  0  0  0
  7  8  2  0  0  0
  7 26  1  0  0  0
  7 29  1  0  0  0
  8  9  1  0  0  0
  8 22  1  0  0  0
  9 10  1  0  0  0
  9 27  2  0  0  0
 10 11  2  0  0  0
 10 15  1  0  0  0
 11 12  1  0  0  0
 11 97  1  0  0  0
 12 13  2  0  0  0
 12 98  1  0  0  0
 13 14  1  0  0  0
 13 31  1  0  0  0
 14 15  2  0  0  0
 14 99  1  0  0  0
 15100  1  0  0  0
 16 17  2  0  0  0
 16 21  1  0  0  0
 16 31  1  0  0  0
 17 18  1  0  0  0
 17101  1  0  0  0
 18 19  2  0  0  0
 18102  1  0  0  0
 19 20  1  0  0  0
 19 24  1  0  0  0
 20 21  2  0  0  0
 20103  1  0  0  0
 21 23  1  0  0  0
 22 28  1  0  0  0
 22 32  2  0  0  0
 26 27  1  0  0  0
 28104  1  0  0  0
 28105  1  0  0  0
 29106  1  0  0  0
 29107  1  0  0  0
 33 34  1  0  0  0
 33 66  1  0  0  0
 33 70  2  0  0  0
 34 36  1  0  0  0
 34 59  1  0  0  0
 34108  1  0  0  0
 35 44  2  0  0  0
 35 45  1  0  0  0
 35 68  1  0  0  0
 36 56  1  0  0  0
 36109  1  0  0  0
 37 39  1  0  0  0
 37 47  1  0  0  0
 37 66  1  0  0  0
 37110  1  0  0  0
 38 43  2  0  0  0
 38 46  1  0  0  0
 38 47  1  0  0  0
 39 64  1  0  0  0
 39 67  2  0  0  0
 40 52  1  0  0  0
 40 53  2  0  0  0
 40 58  1  0  0  0
 41111  1  0  0  0
 41112  1  0  0  0
 41113  1  0  0  0
 41 48  1  0  0  0
 42 43  1  0  0  0
 42 66  1  0  0  0
 42114  1  0  0  0
 42115  1  0  0  0
 43 44  1  0  0  0
 44116  1  0  0  0
 45 46  2  0  0  0
 45117  1  0  0  0
 46118  1  0  0  0
 47119  1  0  0  0
 47120  1  0  0  0
 48 56  1  0  0  0
 48 65  1  0  0  0
 48121  1  0  0  0
 49 50  1  0  0  0
 49 53  1  0  0  0
 49 64  1  0  0  0
 49122  1  0  0  0
 50 51  1  0  0  0
 50123  1  0  0  0
 50124  1  0  0  0
 51 52  1  0  0  0
 51125  1  0  0  0
 51126  1  0  0  0
 52127  1  0  0  0
 52128  1  0  0  0
 53 54  1  0  0  0
 54 55  2  0  0  0
 54129  1  0  0  0
 55 57  1  0  0  0
 55130  1  0  0  0
 56 69  2  0  0  0
 57 58  2  0  0  0
 57131  1  0  0  0
 58132  1  0  0  0
 59 60  1  0  0  0
 59 61  1  0  0  0
 59 62  1  0  0  0
 60133  1  0  0  0
 60134  1  0  0  0
 60135  1  0  0  0
 61136  1  0  0  0
 61137  1  0  0  0
 61138  1  0  0  0
 62139  1  0  0  0
 62140  1  0  0  0
 62141  1  0  0  0
 63 65  1  0  0  0
 63142  1  0  0  0
 63143  1  0  0  0
 63144  1  0  0  0
 64145  1  0  0  0
 65146  1  0  0  0
 68 76  1  0  0  0
 71 72  2  0  0  0
 71 74  1  0  0  0
 71147  1  0  0  0
 72 76  1  0  0  0
 72148  1  0  0  0
 73 75  1  0  0  0
 73 76  2  0  0  0
 73149  1  0  0  0
 74 75  2  0  0  0
 74 85  1  0  0  0
 75 83  1  0  0  0
 77 79  1  0  0  0
 77 81  1  0  0  0
 77150  1  0  0  0
 77151  1  0  0  0
 78 80  1  0  0  0
 78 81  1  0  0  0
 78152  1  0  0  0
 78153  1  0  0  0
 79 82  1  0  0  0
 79154  1  0  0  0
 79155  1  0  0  0
 80 82  1  0  0  0
 80156  1  0  0  0
 80157  1  0  0  0
 81 84  1  0  0  0
 81158  1  0  0  0
 82 86  1  0  0  0
 82159  1  0  0  0
 83160  1  0  0  0
 83161  1  0  0  0
 83162  1  0  0  0
 84 85  1  0  0  0
 84163  1  0  0  0
 84164  1  0  0  0
 85 87  1  0  0  0
 85165  1  0  0  0
 86166  1  0  0  0
 87167  1  0  0  0
 87168  1  0  0  0
 87169  1  0  0  0
M  CHG  1  87   1
M  ISO  4   1 100  68 101  76 101  86 100
M  END
> <chiral flag>
0

> <version>
0

> <s_m_source_file>
/data/baiqing/PycharmProjects/Reinvent-master-3.2/result/LINK_invent/BTK/process_docking_weight1_custom_sum_contain_oxygen_bond_distance_aromatic_linkinvent_7_9_3/rearranged_h_0139.sdf

> <i_m_source_file_index>
57

> <r_mmod_Potential_Energy-OPLS-2005>
-198.78450012207

> <r_mmod_Stretch_Energy-OPLS-2005>
37.4581871032715

> <r_mmod_Bend_Energy-OPLS-2005>
98.1996002197266

> <r_mmod_Torsional_Energy-OPLS-2005>
318.445007324219

> <r_mmod_Improper_Torsional_Energy-OPLS-2005>
12.3148555755615

> <r_mmod_Van_der_Waal_Energy-OPLS-2005>
150.947387695312

> <r_mmod_Electrostatic_Energy-OPLS-2005>
-344.107482910156

> <r_mmod_Solvation_Energy-OPLS-2005>
-483.522338867188

> <b_mmod_Minimization_Converged-OPLS-2005>
0

> <r_mmod_RMS_Derivative-OPLS-2005>
3.49627137184143

$$$$
57
                    3D
 Structure written by MMmdl.
164173  0  0  1  0            999 V2000
  -30.6848  -14.4543   20.5631 C   0  0  0  0  0  0
  -30.4175  -12.2967   19.4122 C   0  0  0  0  0  0
  -29.4891  -12.4974   18.1987 C   0  0  0  0  0  0
  -28.0099  -12.3576   18.6130 C   0  0  0  0  0  0
  -27.6568  -13.1981   19.8714 C   0  0  2  0  0  0
  -28.6955  -12.9639   20.9910 C   0  0  0  0  0  0
  -25.2563  -13.8137   20.5658 C   0  0  0  0  0  0
  -24.1803  -13.0431   20.9173 C   0  0  0  0  0  0
  -24.6351  -11.6897   20.8735 C   0  0  0  0  0  0
  -23.9032  -10.4291   21.0405 C   0  0  0  0  0  0
  -24.3585   -9.4216   21.9192 C   0  0  0  0  0  0
  -23.6272   -8.2245   22.0764 C   0  0  0  0  0  0
  -22.4260   -8.0282   21.3557 C   0  0  0  0  0  0
  -21.9888   -9.0255   20.4669 C   0  0  0  0  0  0
  -22.7204  -10.2142   20.3075 C   0  0  0  0  0  0
  -21.6846   -6.0742   22.5283 C   0  0  0  0  0  0
  -21.4010   -6.5641   23.8224 C   0  0  0  0  0  0
  -21.3663   -5.6794   24.9179 C   0  0  0  0  0  0
  -21.6035   -4.3056   24.7226 C   0  0  0  0  0  0
  -21.8812   -3.8156   23.4342 C   0  0  0  0  0  0
  -21.9184   -4.6968   22.3403 C   0  0  0  0  0  0
  -22.7836  -13.5253   21.1845 C   0  0  0  0  0  0
  -22.1648   -4.2154   21.0979 F   0  0  0  0  0  0
  -21.5623   -3.4548   25.7740 F   0  0  0  0  0  0
  -30.0266  -13.2721   20.4385 N   0  0  0  0  0  0
  -26.2972  -12.9278   20.3317 N   0  0  0  0  0  0
  -25.9261  -11.6455   20.5734 N   0  0  0  0  0  0
  -22.0476  -12.8274   22.0411 N   0  0  0  0  0  0
  -25.4315  -15.1850   20.4066 N   0  0  0  0  0  0
  -31.8063  -14.6577   20.0935 O   0  0  0  0  0  0
  -21.6627   -6.8880   21.4253 O   0  0  0  0  0  0
  -22.3536  -14.5573   20.6701 O   0  0  0  0  0  0
  -24.6163  -31.8672   23.2092 C   0  0  0  0  0  0
  -25.9051  -32.4821   23.8402 C   0  0  1  0  0  0
  -27.2342  -27.4196   20.1003 C   0  0  0  0  0  0
  -25.5917  -33.8622   24.2349 N   0  0  0  0  0  0
  -23.4025  -30.4900   21.5496 C   0  0  2  0  0  0
  -24.8493  -28.9476   20.1189 C   0  0  0  0  0  0
  -22.7412  -29.4668   22.5003 C   0  0  0  0  0  0
  -18.0272  -28.1384   22.8499 C   0  0  0  0  0  0
  -24.1485  -36.7299   23.2633 C   0  0  0  0  0  0
  -25.9306  -30.8285   21.3630 C   0  0  0  0  0  0
  -26.0085  -29.4586   20.7144 C   0  0  0  0  0  0
  -27.2069  -28.7038   20.6954 C   0  0  0  0  0  0
  -26.0571  -26.9257   19.4977 C   0  0  0  0  0  0
  -24.8681  -27.6804   19.5083 C   0  0  0  0  0  0
  -23.6116  -29.8161   20.1664 C   0  0  0  0  0  0
  -25.4103  -36.3106   24.0336 C   0  0  1  0  0  0
  -20.5863  -28.3676   23.1325 C   0  0  2  0  0  0
  -20.6757  -26.9419   22.5409 C   0  0  0  0  0  0
  -19.5730  -26.6400   21.5210 C   0  0  0  0  0  0
  -18.1916  -26.7929   22.1632 C   0  0  0  0  0  0
  -19.1520  -28.8846   23.2917 C   0  0  0  0  0  0
  -18.9444  -30.1448   23.8932 C   0  0  0  0  0  0
  -17.6446  -30.6600   24.0564 C   0  0  0  0  0  0
  -25.9025  -34.9470   23.5133 C   0  0  0  0  0  0
  -16.5342  -29.9091   23.6329 C   0  0  0  0  0  0
  -16.7258  -28.6501   23.0362 C   0  0  0  0  0  0
  -26.4488  -31.6596   25.0722 C   0  0  0  0  0  0
  -25.3756  -31.3693   26.1468 C   0  0  0  0  0  0
  -27.0316  -30.3044   24.6089 C   0  0  0  0  0  0
  -27.6074  -32.4307   25.7474 C   0  0  0  0  0  0
  -27.5584  -37.1799   24.8475 C   0  0  0  0  0  0
  -21.4144  -29.3046   22.3738 N   0  0  0  0  0  0
  -26.4290  -37.3791   23.9423 N   0  0  0  0  0  0
  -24.6667  -31.0762   22.0991 N   0  0  0  0  0  0
  -23.4179  -28.8235   23.3067 O   0  0  0  0  0  0
  -28.4099  -26.6963   20.0913 O   0  0  0  0  0  0
  -26.5578  -34.8921   22.4693 O   0  0  0  0  0  0
  -23.5355  -32.1438   23.7486 O   0  0  0  0  0  0
  -30.1941  -22.6360   20.4203 C   0  0  0  0  0  0
  -28.5721  -21.9119   18.7786 C   0  0  0  0  0  0
  -30.6038  -21.2970   20.6165 C   0  0  0  0  0  0
  -29.1903  -22.9644   19.4892 C   0  0  0  0  0  0
  -28.9522  -20.5605   18.9708 C   0  0  0  0  0  0
  -29.9813  -20.2392   19.9036 C   0  0  0  0  0  0
  -32.8301  -21.9666   21.9122 C   0  0  0  0  0  0
  -33.1204  -20.7689   21.0415 C   0  0  0  0  0  0
  -31.7253  -20.9871   21.5710 C   0  0  0  0  0  0
  -28.2860  -19.5145   18.0890 C   0  0  0  0  0  0
  -28.8678  -24.4358   19.1790 C   0  0  0  0  0  0
  -30.3834  -16.8549   21.2258 C   0  0  0  0  0  0
  -28.3521  -25.2810   20.3682 C   0  0  0  0  0  0
  -29.7177  -17.7973   20.1915 C   0  0  0  0  0  0
  -29.9652  -15.4490   21.1073 N   0  0  0  0  0  0
  -30.5219  -18.9788   20.1102 O   0  0  0  0  0  0
  -31.4629  -12.3993   19.1133 H   0  0  0  0  0  0
  -30.3201  -11.2849   19.8035 H   0  0  0  0  0  0
  -29.7318  -11.7728   17.4212 H   0  0  0  0  0  0
  -29.6556  -13.4799   17.7541 H   0  0  0  0  0  0
  -27.8220  -11.3004   18.8101 H   0  0  0  0  0  0
  -27.3581  -12.6296   17.7810 H   0  0  0  0  0  0
  -27.7079  -14.2474   19.5794 H   0  0  0  0  0  0
  -28.6609  -11.9234   21.3193 H   0  0  0  0  0  0
  -28.4567  -13.5546   21.8761 H   0  0  0  0  0  0
  -25.2742   -9.5673   22.4750 H   0  0  0  0  0  0
  -23.9986   -7.4628   22.7468 H   0  0  0  0  0  0
  -21.0829   -8.8778   19.8965 H   0  0  0  0  0  0
  -22.3679  -10.9676   19.6174 H   0  0  0  0  0  0
  -21.2018   -7.6153   23.9726 H   0  0  0  0  0  0
  -21.1486   -6.0527   25.9080 H   0  0  0  0  0  0
  -22.0591   -2.7615   23.2852 H   0  0  0  0  0  0
  -22.4077  -11.9938   22.4822 H   0  0  0  0  0  0
  -21.1100  -13.1336   22.2616 H   0  0  0  0  0  0
  -24.6694  -15.8456   20.5208 H   0  0  0  0  0  0
  -26.2852  -15.6231   20.0853 H   0  0  0  0  0  0
  -26.7107  -32.5553   23.1159 H   0  0  0  0  0  0
  -25.0106  -33.9790   25.0516 H   0  0  0  0  0  0
  -22.6909  -31.3055   21.4090 H   0  0  0  0  0  0
  -23.3755  -35.9627   23.3301 H   0  0  0  0  0  0
  -24.3561  -36.8908   22.2044 H   0  0  0  0  0  0
  -23.7241  -37.6503   23.6638 H   0  0  0  0  0  0
  -26.0365  -31.5910   20.5907 H   0  0  0  0  0  0
  -26.8213  -30.8875   21.9759 H   0  0  0  0  0  0
  -28.1073  -29.0906   21.1511 H   0  0  0  0  0  0
  -26.0619  -25.9614   19.0093 H   0  0  0  0  0  0
  -23.9768  -27.2835   19.0406 H   0  0  0  0  0  0
  -23.7167  -30.5852   19.4003 H   0  0  0  0  0  0
  -22.7344  -29.2331   19.8790 H   0  0  0  0  0  0
  -25.1276  -36.1951   25.0824 H   0  0  0  0  0  0
  -20.9948  -28.3231   24.1446 H   0  0  0  0  0  0
  -20.5657  -26.2293   23.3594 H   0  0  0  0  0  0
  -21.6628  -26.7458   22.1209 H   0  0  0  0  0  0
  -19.6882  -25.6310   21.1236 H   0  0  0  0  0  0
  -19.6656  -27.3214   20.6741 H   0  0  0  0  0  0
  -17.4179  -26.6684   21.4040 H   0  0  0  0  0  0
  -18.0321  -26.0062   22.9023 H   0  0  0  0  0  0
  -19.7918  -30.7261   24.2316 H   0  0  0  0  0  0
  -17.4999  -31.6276   24.5171 H   0  0  0  0  0  0
  -15.5340  -30.3012   23.7624 H   0  0  0  0  0  0
  -15.8655  -28.0823   22.7081 H   0  0  0  0  0  0
  -24.5923  -30.7055   25.7801 H   0  0  0  0  0  0
  -24.8951  -32.2837   26.4947 H   0  0  0  0  0  0
  -25.8093  -30.8834   27.0217 H   0  0  0  0  0  0
  -26.2849  -29.6804   24.1163 H   0  0  0  0  0  0
  -27.4115  -29.7284   25.4539 H   0  0  0  0  0  0
  -27.8677  -30.4375   23.9221 H   0  0  0  0  0  0
  -27.2718  -33.3610   26.2078 H   0  0  0  0  0  0
  -28.3866  -32.6869   25.0280 H   0  0  0  0  0  0
  -28.0770  -31.8417   26.5367 H   0  0  0  0  0  0
  -28.2602  -38.0097   24.7521 H   0  0  0  0  0  0
  -28.1072  -36.2623   24.6288 H   0  0  0  0  0  0
  -27.2297  -37.1447   25.8879 H   0  0  0  0  0  0
  -20.9292  -29.8752   21.6961 H   0  0  0  0  0  0
  -26.0173  -38.2867   24.1432 H   0  0  0  0  0  0
  -30.6875  -23.4296   20.9628 H   0  0  0  0  0  0
  -27.8262  -22.1456   18.0313 H   0  0  0  0  0  0
  -32.8492  -22.9442   21.4342 H   0  0  0  0  0  0
  -33.2511  -21.9365   22.9148 H   0  0  0  0  0  0
  -33.6995  -19.9613   21.4796 H   0  0  0  0  0  0
  -33.2981  -20.9461   19.9821 H   0  0  0  0  0  0
  -31.3862  -20.3208   22.3633 H   0  0  0  0  0  0
  -27.5167  -18.9733   18.6399 H   0  0  0  0  0  0
  -29.0137  -18.8022   17.7037 H   0  0  0  0  0  0
  -27.8024  -19.9711   17.2255 H   0  0  0  0  0  0
  -28.1539  -24.4975   18.3564 H   0  0  0  0  0  0
  -29.7906  -24.8835   18.8064 H   0  0  0  0  0  0
  -30.1601  -17.2101   22.2326 H   0  0  0  0  0  0
  -31.4683  -16.9241   21.1309 H   0  0  0  0  0  0
  -29.0028  -25.1132   21.2270 H   0  0  0  0  0  0
  -27.3629  -24.9436   20.6838 H   0  0  0  0  0  0
  -28.6880  -18.0124   20.4830 H   0  0  0  0  0  0
  -29.6978  -17.3060   19.2177 H   0  0  0  0  0  0
  -29.0341  -15.2092   21.4176 H   0  0  0  0  0  0
  1 25  1  0  0  0
  1 30  2  0  0  0
  1 85  1  0  0  0
  2  3  1  0  0  0
  2 25  1  0  0  0
  2 87  1  0  0  0
  2 88  1  0  0  0
  3  4  1  0  0  0
  3 89  1  0  0  0
  3 90  1  0  0  0
  4  5  1  0  0  0
  4 91  1  0  0  0
  4 92  1  0  0  0
  5  6  1  0  0  0
  5 26  1  0  0  0
  5 93  1  0  0  0
  6 25  1  0  0  0
  6 94  1  0  0  0
  6 95  1  0  0  0
  7  8  2  0  0  0
  7 26  1  0  0  0
  7 29  1  0  0  0
  8  9  1  0  0  0
  8 22  1  0  0  0
  9 10  1  0  0  0
  9 27  2  0  0  0
 10 11  2  0  0  0
 10 15  1  0  0  0
 11 12  1  0  0  0
 11 96  1  0  0  0
 12 13  2  0  0  0
 12 97  1  0  0  0
 13 14  1  0  0  0
 13 31  1  0  0  0
 14 15  2  0  0  0
 14 98  1  0  0  0
 15 99  1  0  0  0
 16 17  2  0  0  0
 16 21  1  0  0  0
 16 31  1  0  0  0
 17 18  1  0  0  0
 17100  1  0  0  0
 18 19  2  0  0  0
 18101  1  0  0  0
 19 20  1  0  0  0
 19 24  1  0  0  0
 20 21  2  0  0  0
 20102  1  0  0  0
 21 23  1  0  0  0
 22 28  1  0  0  0
 22 32  2  0  0  0
 26 27  1  0  0  0
 28103  1  0  0  0
 28104  1  0  0  0
 29105  1  0  0  0
 29106  1  0  0  0
 33 34  1  0  0  0
 33 66  1  0  0  0
 33 70  2  0  0  0
 34 36  1  0  0  0
 34 59  1  0  0  0
 34107  1  0  0  0
 35 44  2  0  0  0
 35 45  1  0  0  0
 35 68  1  0  0  0
 36 56  1  0  0  0
 36108  1  0  0  0
 37 39  1  0  0  0
 37 47  1  0  0  0
 37 66  1  0  0  0
 37109  1  0  0  0
 38 43  2  0  0  0
 38 46  1  0  0  0
 38 47  1  0  0  0
 39 64  1  0  0  0
 39 67  2  0  0  0
 40 52  1  0  0  0
 40 53  2  0  0  0
 40 58  1  0  0  0
 41110  1  0  0  0
 41111  1  0  0  0
 41112  1  0  0  0
 41 48  1  0  0  0
 42 43  1  0  0  0
 42 66  1  0  0  0
 42113  1  0  0  0
 42114  1  0  0  0
 43 44  1  0  0  0
 44115  1  0  0  0
 45 46  2  0  0  0
 45116  1  0  0  0
 46117  1  0  0  0
 47118  1  0  0  0
 47119  1  0  0  0
 48 56  1  0  0  0
 48 65  1  0  0  0
 48120  1  0  0  0
 49 50  1  0  0  0
 49 53  1  0  0  0
 49 64  1  0  0  0
 49121  1  0  0  0
 50 51  1  0  0  0
 50122  1  0  0  0
 50123  1  0  0  0
 51 52  1  0  0  0
 51124  1  0  0  0
 51125  1  0  0  0
 52126  1  0  0  0
 52127  1  0  0  0
 53 54  1  0  0  0
 54 55  2  0  0  0
 54128  1  0  0  0
 55 57  1  0  0  0
 55129  1  0  0  0
 56 69  2  0  0  0
 57 58  2  0  0  0
 57130  1  0  0  0
 58131  1  0  0  0
 59 60  1  0  0  0
 59 61  1  0  0  0
 59 62  1  0  0  0
 60132  1  0  0  0
 60133  1  0  0  0
 60134  1  0  0  0
 61135  1  0  0  0
 61136  1  0  0  0
 61137  1  0  0  0
 62138  1  0  0  0
 62139  1  0  0  0
 62140  1  0  0  0
 63 65  1  0  0  0
 63141  1  0  0  0
 63142  1  0  0  0
 63143  1  0  0  0
 64144  1  0  0  0
 65145  1  0  0  0
 68 83  1  0  0  0
 71 73  2  0  0  0
 71 74  1  0  0  0
 71146  1  0  0  0
 72 74  2  0  0  0
 72 75  1  0  0  0
 72147  1  0  0  0
 73 76  1  0  0  0
 73 79  1  0  0  0
 74 81  1  0  0  0
 75 76  2  0  0  0
 75 80  1  0  0  0
 76 86  1  0  0  0
 77 78  1  0  0  0
 77 79  1  0  0  0
 77148  1  0  0  0
 77149  1  0  0  0
 78 79  1  0  0  0
 78150  1  0  0  0
 78151  1  0  0  0
 79152  1  0  0  0
 80153  1  0  0  0
 80154  1  0  0  0
 80155  1  0  0  0
 81 83  1  0  0  0
 81156  1  0  0  0
 81157  1  0  0  0
 82 84  1  0  0  0
 82 85  1  0  0  0
 82158  1  0  0  0
 82159  1  0  0  0
 83160  1  0  0  0
 83161  1  0  0  0
 84 86  1  0  0  0
 84162  1  0  0  0
 84163  1  0  0  0
 85164  1  0  0  0
M  ISO  4   1 100  68 101  83 101  85 100
M  END
> <chiral flag>
0

> <version>
0

> <s_m_source_file>
/data/baiqing/PycharmProjects/Reinvent-master-3.2/result/LINK_invent/BTK/process_docking_weight1_custom_sum_contain_oxygen_bond_distance_aromatic_linkinvent_7_9_3/rearranged_h_0139.sdf

> <i_m_source_file_index>
58

> <r_mmod_Potential_Energy-OPLS-2005>
-65.4520111083984

> <r_mmod_Stretch_Energy-OPLS-2005>
39.2546119689941

> <r_mmod_Bend_Energy-OPLS-2005>
112.721961975098

> <r_mmod_Torsional_Energy-OPLS-2005>
250.610046386719

> <r_mmod_Improper_Torsional_Energy-OPLS-2005>
4.1441330909729

> <r_mmod_Van_der_Waal_Energy-OPLS-2005>
150.002731323242

> <r_mmod_Electrostatic_Energy-OPLS-2005>
-423.281311035156

> <r_mmod_Solvation_Energy-OPLS-2005>
-211.186126708984

> <b_mmod_Minimization_Converged-OPLS-2005>
0

> <r_mmod_RMS_Derivative-OPLS-2005>
3.39742183685303

$$$$
58
                    3D
 Structure written by MMmdl.
154162  0  0  1  0            999 V2000
  -30.5610  -14.7601   20.4864 C   0  0  0  0  0  0
  -30.4386  -12.4638   19.4873 C   0  0  0  0  0  0
  -29.5136  -12.5111   18.2505 C   0  0  0  0  0  0
  -28.0363  -12.3317   18.6579 C   0  0  0  0  0  0
  -27.6370  -13.2319   19.8570 C   0  0  2  0  0  0
  -28.6795  -13.1361   20.9922 C   0  0  0  0  0  0
  -25.2489  -13.8225   20.5693 C   0  0  0  0  0  0
  -24.1766  -13.0435   20.9206 C   0  0  0  0  0  0
  -24.6373  -11.6923   20.8753 C   0  0  0  0  0  0
  -23.9029  -10.4289   21.0397 C   0  0  0  0  0  0
  -24.3575   -9.4221   21.9180 C   0  0  0  0  0  0
  -23.6274   -8.2238   22.0738 C   0  0  0  0  0  0
  -22.4260   -8.0281   21.3539 C   0  0  0  0  0  0
  -21.9865   -9.0247   20.4642 C   0  0  0  0  0  0
  -22.7183  -10.2131   20.3061 C   0  0  0  0  0  0
  -21.6825   -6.0724   22.5297 C   0  0  0  0  0  0
  -21.4012   -6.5636   23.8227 C   0  0  0  0  0  0
  -21.3649   -5.6788   24.9198 C   0  0  0  0  0  0
  -21.6031   -4.3042   24.7233 C   0  0  0  0  0  0
  -21.8827   -3.8136   23.4353 C   0  0  0  0  0  0
  -21.9179   -4.6951   22.3409 C   0  0  0  0  0  0
  -22.7792  -13.5193   21.1855 C   0  0  0  0  0  0
  -22.1655   -4.2143   21.0980 F   0  0  0  0  0  0
  -21.5614   -3.4531   25.7744 F   0  0  0  0  0  0
  -29.9786  -13.5135   20.4260 N   0  0  0  0  0  0
  -26.2893  -12.9403   20.3288 N   0  0  0  0  0  0
  -25.9299  -11.6544   20.5745 N   0  0  0  0  0  0
  -22.0421  -12.8216   22.0450 N   0  0  0  0  0  0
  -25.4216  -15.1943   20.4140 N   0  0  0  0  0  0
  -31.7393  -14.8993   20.1423 O   0  0  0  0  0  0
  -21.6644   -6.8871   21.4244 O   0  0  0  0  0  0
  -22.3446  -14.5442   20.6647 O   0  0  0  0  0  0
  -24.6332  -31.8525   23.1905 C   0  0  0  0  0  0
  -25.9147  -32.4731   23.8269 C   0  0  1  0  0  0
  -27.2049  -27.2327   20.1444 C   0  0  0  0  0  0
  -25.5945  -33.8531   24.2203 N   0  0  0  0  0  0
  -23.4310  -30.4743   21.5337 C   0  0  2  0  0  0
  -24.8767  -28.9049   20.1184 C   0  0  0  0  0  0
  -22.7502  -29.4605   22.4850 C   0  0  0  0  0  0
  -18.0306  -28.1405   22.8478 C   0  0  0  0  0  0
  -24.1495  -36.7272   23.2632 C   0  0  0  0  0  0
  -25.9768  -30.7587   21.3729 C   0  0  0  0  0  0
  -26.0482  -29.3729   20.7259 C   0  0  0  0  0  0
  -27.2187  -28.5449   20.7307 C   0  0  0  0  0  0
  -26.0147  -26.8309   19.5125 C   0  0  0  0  0  0
  -24.8603  -27.6402   19.5058 C   0  0  0  0  0  0
  -23.6515  -29.7984   20.1554 C   0  0  0  0  0  0
  -25.4129  -36.3026   24.0305 C   0  0  1  0  0  0
  -20.5907  -28.3708   23.1252 C   0  0  2  0  0  0
  -20.6796  -26.9420   22.5402 C   0  0  0  0  0  0
  -19.5767  -26.6393   21.5222 C   0  0  0  0  0  0
  -18.1953  -26.7952   22.1630 C   0  0  0  0  0  0
  -19.1557  -28.8878   23.2865 C   0  0  0  0  0  0
  -18.9475  -30.1496   23.8866 C   0  0  0  0  0  0
  -17.6471  -30.6589   24.0576 C   0  0  0  0  0  0
  -25.9071  -34.9410   23.5056 C   0  0  0  0  0  0
  -16.5365  -29.9084   23.6341 C   0  0  0  0  0  0
  -16.7300  -28.6512   23.0339 C   0  0  0  0  0  0
  -26.4508  -31.6563   25.0671 C   0  0  0  0  0  0
  -25.3724  -31.3724   26.1392 C   0  0  0  0  0  0
  -27.0346  -30.2961   24.6184 C   0  0  0  0  0  0
  -27.6046  -32.4305   25.7443 C   0  0  0  0  0  0
  -27.5575  -37.1794   24.8463 C   0  0  0  0  0  0
  -21.4213  -29.3051   22.3618 N   0  0  0  0  0  0
  -26.4294  -37.3750   23.9393 N   0  0  0  0  0  0
  -24.6999  -31.0472   22.0889 N   0  0  0  0  0  0
  -23.4204  -28.8159   23.2963 O   0  0  0  0  0  0
  -28.2786  -26.3174   20.1243 O   0  0  0  0  0  0
  -26.5643  -34.8892   22.4627 O   0  0  0  0  0  0
  -23.5483  -32.1340   23.7207 O   0  0  0  0  0  0
  -26.9478  -18.7580   18.9034 C   0  0  0  0  0  0
  -27.8973  -17.7605   19.2332 C   0  0  0  0  0  0
  -27.3037  -19.8990   19.5529 C   0  0  0  0  0  0
  -28.8346  -18.2738   20.0972 C   0  0  0  0  0  0
  -29.9785  -17.3716   20.7081 C   0  0  0  0  0  0
  -29.0878  -22.3914   20.3120 C   0  0  0  0  0  0
  -27.9275  -23.4997   20.5522 C   0  0  0  0  0  0
  -29.1125  -20.8783   20.9464 C   0  0  0  0  0  0
  -28.2025  -25.0653   20.9557 C   0  0  0  0  0  0
  -28.5044  -19.6955   20.2200 N   0  0  0  0  0  0
  -29.7432  -15.8524   20.7511 N   0  0  0  0  0  0
  -31.4803  -12.6007   19.1901 H   0  0  0  0  0  0
  -30.3961  -11.4836   19.9667 H   0  0  0  0  0  0
  -29.8041  -11.7406   17.5356 H   0  0  0  0  0  0
  -29.6432  -13.4655   17.7377 H   0  0  0  0  0  0
  -27.8930  -11.2848   18.9329 H   0  0  0  0  0  0
  -27.3754  -12.5090   17.8094 H   0  0  0  0  0  0
  -27.6351  -14.2568   19.4883 H   0  0  0  0  0  0
  -28.7223  -12.1207   21.3834 H   0  0  0  0  0  0
  -28.4165  -13.7706   21.8365 H   0  0  0  0  0  0
  -25.2719   -9.5708   22.4747 H   0  0  0  0  0  0
  -23.9983   -7.4597   22.7445 H   0  0  0  0  0  0
  -21.0775   -8.8718   19.8961 H   0  0  0  0  0  0
  -22.3579  -10.9645   19.6172 H   0  0  0  0  0  0
  -21.2040   -7.6156   23.9727 H   0  0  0  0  0  0
  -21.1458   -6.0539   25.9082 H   0  0  0  0  0  0
  -22.0624   -2.7601   23.2863 H   0  0  0  0  0  0
  -22.3970  -11.9881   22.4909 H   0  0  0  0  0  0
  -21.1021  -13.1230   22.2584 H   0  0  0  0  0  0
  -24.6660  -15.8575   20.5440 H   0  0  0  0  0  0
  -26.2805  -15.6403   20.1232 H   0  0  0  0  0  0
  -26.7199  -32.5348   23.1003 H   0  0  0  0  0  0
  -25.0070  -33.9667   25.0333 H   0  0  0  0  0  0
  -22.7275  -31.2952   21.3768 H   0  0  0  0  0  0
  -23.3740  -35.9626   23.3304 H   0  0  0  0  0  0
  -24.3577  -36.8907   22.2042 H   0  0  0  0  0  0
  -23.7290  -37.6489   23.6672 H   0  0  0  0  0  0
  -26.1142  -31.5125   20.5951 H   0  0  0  0  0  0
  -26.8569  -30.8146   22.0031 H   0  0  0  0  0  0
  -28.1147  -28.8961   21.2205 H   0  0  0  0  0  0
  -25.9736  -25.8627   19.0341 H   0  0  0  0  0  0
  -23.9594  -27.2771   19.0299 H   0  0  0  0  0  0
  -23.7833  -30.5644   19.3921 H   0  0  0  0  0  0
  -22.7699  -29.2321   19.8463 H   0  0  0  0  0  0
  -25.1320  -36.1851   25.0802 H   0  0  0  0  0  0
  -21.0037  -28.3328   24.1363 H   0  0  0  0  0  0
  -20.5712  -26.2336   23.3628 H   0  0  0  0  0  0
  -21.6664  -26.7453   22.1190 H   0  0  0  0  0  0
  -19.6932  -25.6304   21.1257 H   0  0  0  0  0  0
  -19.6713  -27.3194   20.6743 H   0  0  0  0  0  0
  -17.4232  -26.6705   21.4027 H   0  0  0  0  0  0
  -18.0342  -26.0107   22.9019 H   0  0  0  0  0  0
  -19.7949  -30.7339   24.2206 H   0  0  0  0  0  0
  -17.5011  -31.6261   24.5188 H   0  0  0  0  0  0
  -15.5362  -30.2969   23.7681 H   0  0  0  0  0  0
  -15.8704  -28.0834   22.7039 H   0  0  0  0  0  0
  -24.5902  -30.7086   25.7706 H   0  0  0  0  0  0
  -24.8935  -32.2899   26.4786 H   0  0  0  0  0  0
  -25.8042  -30.8900   27.0173 H   0  0  0  0  0  0
  -26.2929  -29.6702   24.1215 H   0  0  0  0  0  0
  -27.4003  -29.7225   25.4709 H   0  0  0  0  0  0
  -27.8806  -30.4184   23.9427 H   0  0  0  0  0  0
  -27.2647  -33.3602   26.2009 H   0  0  0  0  0  0
  -28.3866  -32.6899   25.0293 H   0  0  0  0  0  0
  -28.0722  -31.8460   26.5379 H   0  0  0  0  0  0
  -28.2588  -38.0085   24.7483 H   0  0  0  0  0  0
  -28.1067  -36.2617   24.6316 H   0  0  0  0  0  0
  -27.2283  -37.1466   25.8862 H   0  0  0  0  0  0
  -20.9412  -29.8714   21.6757 H   0  0  0  0  0  0
  -26.0143  -38.2815   24.1407 H   0  0  0  0  0  0
  -26.0825  -18.6410   18.2629 H   0  0  0  0  0  0
  -27.8733  -16.7426   18.8708 H   0  0  0  0  0  0
  -26.7997  -20.8577   19.5821 H   0  0  0  0  0  0
  -30.1864  -17.7031   21.7263 H   0  0  0  0  0  0
  -30.9049  -17.5597   20.1620 H   0  0  0  0  0  0
  -29.9913  -22.8566   20.7044 H   0  0  0  0  0  0
  -29.2799  -22.3186   19.2413 H   0  0  0  0  0  0
  -27.4108  -23.1097   21.4321 H   0  0  0  0  0  0
  -27.1820  -23.4335   19.7608 H   0  0  0  0  0  0
  -28.6981  -20.9126   21.9516 H   0  0  0  0  0  0
  -30.1560  -20.6071   21.0942 H   0  0  0  0  0  0
  -29.1287  -25.0603   21.5254 H   0  0  0  0  0  0
  -27.4350  -25.2844   21.6985 H   0  0  0  0  0  0
  -28.8089  -15.6005   21.0338 H   0  0  0  0  0  0
  1 25  1  0  0  0
  1 30  2  0  0  0
  1 81  1  0  0  0
  2  3  1  0  0  0
  2 25  1  0  0  0
  2 82  1  0  0  0
  2 83  1  0  0  0
  3  4  1  0  0  0
  3 84  1  0  0  0
  3 85  1  0  0  0
  4  5  1  0  0  0
  4 86  1  0  0  0
  4 87  1  0  0  0
  5  6  1  0  0  0
  5 26  1  0  0  0
  5 88  1  0  0  0
  6 25  1  0  0  0
  6 89  1  0  0  0
  6 90  1  0  0  0
  7  8  2  0  0  0
  7 26  1  0  0  0
  7 29  1  0  0  0
  8  9  1  0  0  0
  8 22  1  0  0  0
  9 10  1  0  0  0
  9 27  2  0  0  0
 10 11  2  0  0  0
 10 15  1  0  0  0
 11 12  1  0  0  0
 11 91  1  0  0  0
 12 13  2  0  0  0
 12 92  1  0  0  0
 13 14  1  0  0  0
 13 31  1  0  0  0
 14 15  2  0  0  0
 14 93  1  0  0  0
 15 94  1  0  0  0
 16 17  2  0  0  0
 16 21  1  0  0  0
 16 31  1  0  0  0
 17 18  1  0  0  0
 17 95  1  0  0  0
 18 19  2  0  0  0
 18 96  1  0  0  0
 19 20  1  0  0  0
 19 24  1  0  0  0
 20 21  2  0  0  0
 20 97  1  0  0  0
 21 23  1  0  0  0
 22 28  1  0  0  0
 22 32  2  0  0  0
 26 27  1  0  0  0
 28 98  1  0  0  0
 28 99  1  0  0  0
 29100  1  0  0  0
 29101  1  0  0  0
 33 34  1  0  0  0
 33 66  1  0  0  0
 33 70  2  0  0  0
 34 36  1  0  0  0
 34 59  1  0  0  0
 34102  1  0  0  0
 35 44  2  0  0  0
 35 45  1  0  0  0
 35 68  1  0  0  0
 36 56  1  0  0  0
 36103  1  0  0  0
 37 39  1  0  0  0
 37 47  1  0  0  0
 37 66  1  0  0  0
 37104  1  0  0  0
 38 43  2  0  0  0
 38 46  1  0  0  0
 38 47  1  0  0  0
 39 64  1  0  0  0
 39 67  2  0  0  0
 40 52  1  0  0  0
 40 53  2  0  0  0
 40 58  1  0  0  0
 41105  1  0  0  0
 41106  1  0  0  0
 41107  1  0  0  0
 41 48  1  0  0  0
 42 43  1  0  0  0
 42 66  1  0  0  0
 42108  1  0  0  0
 42109  1  0  0  0
 43 44  1  0  0  0
 44110  1  0  0  0
 45 46  2  0  0  0
 45111  1  0  0  0
 46112  1  0  0  0
 47113  1  0  0  0
 47114  1  0  0  0
 48 56  1  0  0  0
 48 65  1  0  0  0
 48115  1  0  0  0
 49 50  1  0  0  0
 49 53  1  0  0  0
 49 64  1  0  0  0
 49116  1  0  0  0
 50 51  1  0  0  0
 50117  1  0  0  0
 50118  1  0  0  0
 51 52  1  0  0  0
 51119  1  0  0  0
 51120  1  0  0  0
 52121  1  0  0  0
 52122  1  0  0  0
 53 54  1  0  0  0
 54 55  2  0  0  0
 54123  1  0  0  0
 55 57  1  0  0  0
 55124  1  0  0  0
 56 69  2  0  0  0
 57 58  2  0  0  0
 57125  1  0  0  0
 58126  1  0  0  0
 59 60  1  0  0  0
 59 61  1  0  0  0
 59 62  1  0  0  0
 60127  1  0  0  0
 60128  1  0  0  0
 60129  1  0  0  0
 61130  1  0  0  0
 61131  1  0  0  0
 61132  1  0  0  0
 62133  1  0  0  0
 62134  1  0  0  0
 62135  1  0  0  0
 63 65  1  0  0  0
 63136  1  0  0  0
 63137  1  0  0  0
 63138  1  0  0  0
 64139  1  0  0  0
 65140  1  0  0  0
 68 79  1  0  0  0
 71 72  1  0  0  0
 71 73  2  0  0  0
 71141  1  0  0  0
 72 74  2  0  0  0
 72142  1  0  0  0
 73 80  1  0  0  0
 73143  1  0  0  0
 74 75  1  0  0  0
 74 80  1  0  0  0
 75 81  1  0  0  0
 75144  1  0  0  0
 75145  1  0  0  0
 76 77  1  0  0  0
 76 78  1  0  0  0
 76146  1  0  0  0
 76147  1  0  0  0
 77 79  1  0  0  0
 77148  1  0  0  0
 77149  1  0  0  0
 78 80  1  0  0  0
 78150  1  0  0  0
 78151  1  0  0  0
 79152  1  0  0  0
 79153  1  0  0  0
 81154  1  0  0  0
M  ISO  4   1 100  68 101  79 101  81 100
M  END
> <chiral flag>
0

> <version>
0

> <s_m_source_file>
/data/baiqing/PycharmProjects/Reinvent-master-3.2/result/LINK_invent/BTK/process_docking_weight1_custom_sum_contain_oxygen_bond_distance_aromatic_linkinvent_7_9_3/rearranged_h_0139.sdf

> <i_m_source_file_index>
59

> <r_mmod_Potential_Energy-OPLS-2005>
211.605880737305

> <r_mmod_Stretch_Energy-OPLS-2005>
139.647552490234

> <r_mmod_Bend_Energy-OPLS-2005>
231.211624145508

> <r_mmod_Torsional_Energy-OPLS-2005>
251.286483764648

> <r_mmod_Improper_Torsional_Energy-OPLS-2005>
4.26799631118774

> <r_mmod_Van_der_Waal_Energy-OPLS-2005>
106.362731933594

> <r_mmod_Electrostatic_Energy-OPLS-2005>
-409.088470458984

> <r_mmod_Solvation_Energy-OPLS-2005>
-209.411636352539

> <b_mmod_Minimization_Converged-OPLS-2005>
0

> <r_mmod_RMS_Derivative-OPLS-2005>
5.47985792160034

$$$$
59
                    3D
 Structure written by MMmdl.
194203  0  0  1  0            999 V2000
  -29.3203  -16.6267   20.0796 C   0  0  0  0  0  0
  -30.1496  -13.8904   19.4809 C   0  0  0  0  0  0
  -29.4929  -12.9291   18.4086 C   0  0  0  0  0  0
  -28.1974  -12.3063   18.9244 C   0  0  0  0  0  0
  -27.4791  -13.3500   19.7843 C   0  0  2  0  0  0
  -28.3570  -14.0502   20.8482 C   0  0  0  0  0  0
  -25.1506  -13.7756   20.5801 C   0  0  0  0  0  0
  -24.1188  -12.9915   20.9537 C   0  0  0  0  0  0
  -24.6174  -11.6584   20.8893 C   0  0  0  0  0  0
  -23.9017  -10.3999   21.0471 C   0  0  0  0  0  0
  -24.3579   -9.3947   21.9239 C   0  0  0  0  0  0
  -23.6226   -8.2029   22.0771 C   0  0  0  0  0  0
  -22.4211   -8.0149   21.3542 C   0  0  0  0  0  0
  -21.9867   -9.0108   20.4627 C   0  0  0  0  0  0
  -22.7234  -10.1945   20.3056 C   0  0  0  0  0  0
  -21.6774   -6.0670   22.5311 C   0  0  0  0  0  0
  -21.3954   -6.5602   23.8233 C   0  0  0  0  0  0
  -21.3640   -5.6771   24.9195 C   0  0  0  0  0  0
  -21.6032   -4.3035   24.7256 C   0  0  0  0  0  0
  -21.8823   -3.8116   23.4387 C   0  0  0  0  0  0
  -21.9173   -4.6915   22.3429 C   0  0  0  0  0  0
  -22.7252  -13.4752   21.2117 C   0  0  0  0  0  0
  -22.1650   -4.2138   21.0993 F   0  0  0  0  0  0
  -21.5655   -3.4508   25.7753 F   0  0  0  0  0  0
  -29.2091  -15.0427   20.0937 N   0  0  0  0  0  0
  -26.2093  -12.9373   20.3214 N   0  0  0  0  0  0
  -25.9087  -11.6407   20.5686 N   0  0  0  0  0  0
  -21.9912  -12.7850   22.0713 N   0  0  0  0  0  0
  -25.2262  -15.1300   20.3920 N   0  0  0  0  0  0
  -30.5995  -16.5822   19.9780 O   0  0  0  0  0  0
  -21.6528   -6.8798   21.4271 O   0  0  0  0  0  0
  -22.3010  -14.5058   20.6896 O   0  0  0  0  0  0
  -24.5341  -31.6114   22.8898 C   0  0  0  0  0  0
  -25.8215  -32.3358   23.5972 C   0  0  1  0  0  0
  -28.0662  -27.5697   19.5077 C   0  0  0  0  0  0
  -25.4413  -33.7423   23.9523 N   0  0  0  0  0  0
  -23.5138  -29.2552   21.7552 C   0  0  2  0  0  0
  -26.0968  -27.4308   21.0406 C   0  0  0  0  0  0
  -22.4742  -29.4279   22.8124 C   0  0  0  0  0  0
  -17.9355  -28.1161   22.8824 C   0  0  0  0  0  0
  -24.1421  -36.6832   23.2698 C   0  0  0  0  0  0
  -25.6438  -30.4089   20.7400 C   0  0  0  0  0  0
  -26.4013  -28.8921   20.4280 C   0  0  0  0  0  0
  -27.6712  -28.8361   19.9537 C   0  0  0  0  0  0
  -27.1299  -26.5972   19.2404 C   0  0  0  0  0  0
  -26.5359  -26.3636   20.4101 C   0  0  0  0  0  0
  -24.1652  -27.4343   21.9993 C   0  0  0  0  0  0
  -25.4175  -36.2346   24.0011 C   0  0  1  0  0  0
  -20.4432  -28.3050   23.2067 C   0  0  2  0  0  0
  -20.5535  -26.8459   22.7171 C   0  0  0  0  0  0
  -19.4365  -26.3912   21.7799 C   0  0  0  0  0  0
  -18.0519  -26.7146   22.3072 C   0  0  0  0  0  0
  -19.0531  -28.8605   23.3112 C   0  0  0  0  0  0
  -18.8855  -30.1311   23.9028 C   0  0  0  0  0  0
  -17.5942  -30.6623   24.0637 C   0  0  0  0  0  0
  -25.9039  -34.8820   23.4092 C   0  0  0  0  0  0
  -16.4806  -29.9227   23.6306 C   0  0  0  0  0  0
  -16.6505  -28.6579   23.0404 C   0  0  0  0  0  0
  -26.4050  -31.7666   25.0031 C   0  0  0  0  0  0
  -25.2953  -31.4695   26.0492 C   0  0  0  0  0  0
  -27.2066  -30.5020   24.8573 C   0  0  0  0  0  0
  -27.4703  -32.7014   25.6557 C   0  0  0  0  0  0
  -27.5477  -37.1427   24.8469 C   0  0  0  0  0  0
  -21.2584  -29.1731   22.3940 N   0  0  0  0  0  0
  -26.4194  -37.3316   23.9393 N   0  0  0  0  0  0
  -24.4816  -30.6171   21.7991 N   0  0  0  0  0  0
  -22.7881  -29.4555   24.0204 O   0  0  0  0  0  0
  -29.2962  -27.1553   19.9120 O   0  0  0  0  0  0
  -26.6756  -34.8881   22.4494 O   0  0  0  0  0  0
  -23.4931  -32.0153   23.4223 O   0  0  0  0  0  0
  -26.5679  -22.1174   19.9118 C   0  0  0  0  0  0
  -25.7178  -18.1796   20.2967 C   0  0  0  0  0  0
  -26.0290  -19.6182   20.5488 C   0  0  0  0  0  0
  -20.9492  -27.0899   18.6221 C   0  0  0  0  0  0
  -22.6698  -27.8596   17.0414 C   0  0  0  0  0  0
  -21.8126  -25.9305   19.2555 C   0  0  0  0  0  0
  -23.2654  -26.3913   17.1936 C   0  0  0  0  0  0
  -26.9919  -17.3361   20.3326 C   0  0  0  0  0  0
  -27.2449  -19.9847   19.6937 C   0  0  2  0  0  0
  -21.6575  -28.3389   18.0824 C   0  0  1  0  0  0
  -23.1302  -25.4821   18.5039 C   0  0  1  0  0  0
  -20.6447  -29.4086   17.6350 C   0  0  0  0  0  0
  -28.7705  -26.0170   24.0095 C   0  0  0  0  0  0
  -27.6366  -26.6024   23.1316 C   0  0  0  0  0  0
  -29.4997  -24.8149   23.3466 C   0  0  0  0  0  0
  -26.6714  -27.7379   23.6528 C   0  0  0  0  0  0
  -30.3267  -25.1123   22.0718 C   0  0  0  0  0  0
  -25.7548  -28.7833   22.7076 C   0  0  0  0  0  0
  -29.5678  -24.8572   20.7476 C   0  0  0  0  0  0
  -24.3161  -27.5935   19.8304 C   0  0  0  0  0  0
  -29.8475  -25.8672   19.6135 C   0  0  0  0  0  0
  -24.5010  -25.3572   19.3649 C   0  0  2  0  0  0
  -28.1952  -18.0698   20.0592 N   0  0  0  0  0  0
  -25.4413  -23.4437   19.5009 N   0  0  0  0  0  0
  -27.3574  -22.6179   20.7095 O   0  0  0  0  0  0
  -30.9819  -14.3739   18.9688 H   0  0  0  0  0  0
  -30.6425  -13.3119   20.2652 H   0  0  0  0  0  0
  -30.1899  -12.1531   18.0939 H   0  0  0  0  0  0
  -29.2588  -13.5063   17.5138 H   0  0  0  0  0  0
  -28.4469  -11.4470   19.5482 H   0  0  0  0  0  0
  -27.5698  -11.9385   18.1143 H   0  0  0  0  0  0
  -27.2076  -14.1129   19.0497 H   0  0  0  0  0  0
  -28.8981  -13.3288   21.4670 H   0  0  0  0  0  0
  -27.7336  -14.6164   21.5407 H   0  0  0  0  0  0
  -25.2707   -9.5432   22.4828 H   0  0  0  0  0  0
  -23.9890   -7.4398   22.7512 H   0  0  0  0  0  0
  -21.0768   -8.8616   19.8952 H   0  0  0  0  0  0
  -22.3693  -10.9467   19.6158 H   0  0  0  0  0  0
  -21.1895   -7.6100   23.9729 H   0  0  0  0  0  0
  -21.1472   -6.0488   25.9101 H   0  0  0  0  0  0
  -22.0625   -2.7588   23.2861 H   0  0  0  0  0  0
  -22.3497  -11.9504   22.5111 H   0  0  0  0  0  0
  -21.0537  -13.0876   22.2940 H   0  0  0  0  0  0
  -24.3750  -15.6770   20.4184 H   0  0  0  0  0  0
  -25.9563  -15.5650   19.8490 H   0  0  0  0  0  0
  -26.6248  -32.3522   22.8627 H   0  0  0  0  0  0
  -24.7404  -33.8253   24.6758 H   0  0  0  0  0  0
  -23.4963  -28.5328   22.4953 H   0  0  0  0  0  0
  -23.3750  -35.9099   23.3146 H   0  0  0  0  0  0
  -24.3303  -36.8886   22.2154 H   0  0  0  0  0  0
  -23.7122  -37.5817   23.7115 H   0  0  0  0  0  0
  -25.2000  -30.7044   19.7868 H   0  0  0  0  0  0
  -26.4228  -31.1526   20.9009 H   0  0  0  0  0  0
  -28.3539  -29.6678   19.8736 H   0  0  0  0  0  0
  -27.4233  -25.6647   18.7762 H   0  0  0  0  0  0
  -26.3733  -25.3643   20.8047 H   0  0  0  0  0  0
  -24.2879  -27.0040   23.0357 H   0  0  0  0  0  0
  -23.4944  -26.6368   21.7143 H   0  0  0  0  0  0
  -25.1531  -36.0796   25.0501 H   0  0  0  0  0  0
  -20.7734  -28.2847   24.2504 H   0  0  0  0  0  0
  -20.4702  -26.2060   23.6022 H   0  0  0  0  0  0
  -21.5297  -26.5885   22.3264 H   0  0  0  0  0  0
  -19.5394  -25.3176   21.6265 H   0  0  0  0  0  0
  -19.4514  -26.8365   20.8195 H   0  0  0  0  0  0
  -17.3154  -26.5795   21.5089 H   0  0  0  0  0  0
  -17.7963  -26.0006   23.0957 H   0  0  0  0  0  0
  -19.7537  -30.6710   24.2606 H   0  0  0  0  0  0
  -17.4557  -31.6222   24.5385 H   0  0  0  0  0  0
  -15.4809  -30.2955   23.7657 H   0  0  0  0  0  0
  -15.7848  -28.0790   22.7334 H   0  0  0  0  0  0
  -24.5793  -30.7328   25.6791 H   0  0  0  0  0  0
  -24.7239  -32.3606   26.3054 H   0  0  0  0  0  0
  -25.6998  -31.0753   26.9810 H   0  0  0  0  0  0
  -26.5138  -29.7001   25.0484 H   0  0  0  0  0  0
  -27.9390  -30.3690   25.6548 H   0  0  0  0  0  0
  -27.7906  -30.4638   23.9364 H   0  0  0  0  0  0
  -27.0623  -33.6722   25.9417 H   0  0  0  0  0  0
  -28.2926  -32.8906   24.9614 H   0  0  0  0  0  0
  -27.9034  -32.3014   26.5753 H   0  0  0  0  0  0
  -28.2495  -37.9753   24.7615 H   0  0  0  0  0  0
  -28.0972  -36.2254   24.6257 H   0  0  0  0  0  0
  -27.2091  -37.0974   25.8845 H   0  0  0  0  0  0
  -21.1559  -29.0723   21.4012 H   0  0  0  0  0  0
  -25.9899  -38.2308   24.1520 H   0  0  0  0  0  0
  -25.2307  -18.0882   19.3226 H   0  0  0  0  0  0
  -25.0137  -17.8238   21.0466 H   0  0  0  0  0  0
  -26.2511  -19.7775   21.6062 H   0  0  0  0  0  0
  -25.1212  -20.1834   20.3364 H   0  0  0  0  0  0
  -20.2926  -27.5518   19.3339 H   0  0  0  0  0  0
  -20.3130  -26.6517   17.8483 H   0  0  0  0  0  0
  -22.2182  -27.9531   16.0574 H   0  0  0  0  0  0
  -23.4624  -28.6039   17.0283 H   0  0  0  0  0  0
  -21.1634  -25.0657   19.3564 H   0  0  0  0  0  0
  -21.9958  -26.2206   20.2744 H   0  0  0  0  0  0
  -24.3052  -26.4465   16.8611 H   0  0  0  0  0  0
  -22.7739  -25.8208   16.4041 H   0  0  0  0  0  0
  -26.9174  -16.6203   19.5114 H   0  0  0  0  0  0
  -27.0729  -16.8263   21.2956 H   0  0  0  0  0  0
  -27.0377  -19.8756   18.6250 H   0  0  0  0  0  0
  -22.1637  -28.9515   18.8354 H   0  0  0  0  0  0
  -22.9306  -24.4838   18.1189 H   0  0  0  0  0  0
  -19.8863  -29.0122   16.9678 H   0  0  0  0  0  0
  -21.1415  -30.2595   17.1644 H   0  0  0  0  0  0
  -20.1355  -29.8021   18.5198 H   0  0  0  0  0  0
  -28.3355  -25.6496   24.9409 H   0  0  0  0  0  0
  -29.5076  -26.7855   24.2548 H   0  0  0  0  0  0
  -27.0128  -25.7604   22.8265 H   0  0  0  0  0  0
  -28.1751  -26.9849   22.2654 H   0  0  0  0  0  0
  -28.7899  -24.0196   23.1355 H   0  0  0  0  0  0
  -30.1815  -24.3866   24.0803 H   0  0  0  0  0  0
  -27.4817  -28.2880   24.0956 H   0  0  0  0  0  0
  -26.0678  -27.3694   24.4911 H   0  0  0  0  0  0
  -31.1878  -24.4411   22.0519 H   0  0  0  0  0  0
  -30.7479  -26.1193   22.1116 H   0  0  0  0  0  0
  -26.5088  -29.5558   22.6565 H   0  0  0  0  0  0
  -25.1487  -29.1029   23.5488 H   0  0  0  0  0  0
  -28.4992  -24.8519   20.9284 H   0  0  0  0  0  0
  -29.8025  -23.8493   20.3975 H   0  0  0  0  0  0
  -24.6136  -28.1681   18.9509 H   0  0  0  0  0  0
  -23.2772  -27.7972   19.8767 H   0  0  0  0  0  0
  -29.4911  -25.4873   18.6559 H   0  0  0  0  0  0
  -30.9257  -25.9836   19.4956 H   0  0  0  0  0  0
  -25.1297  -25.4335   18.4841 H   0  0  0  0  0  0
  -24.8044  -22.9425   18.8980 H   0  0  0  0  0  0
  1 25  1  0  0  0
  1 30  2  0  0  0
  1 93  1  0  0  0
  2  3  1  0  0  0
  2 25  1  0  0  0
  2 96  1  0  0  0
  2 97  1  0  0  0
  3  4  1  0  0  0
  3 98  1  0  0  0
  3 99  1  0  0  0
  4  5  1  0  0  0
  4100  1  0  0  0
  4101  1  0  0  0
  5  6  1  0  0  0
  5 26  1  0  0  0
  5102  1  0  0  0
  6 25  1  0  0  0
  6103  1  0  0  0
  6104  1  0  0  0
  7  8  2  0  0  0
  7 26  1  0  0  0
  7 29  1  0  0  0
  8  9  1  0  0  0
  8 22  1  0  0  0
  9 10  1  0  0  0
  9 27  2  0  0  0
 10 11  2  0  0  0
 10 15  1  0  0  0
 11 12  1  0  0  0
 11105  1  0  0  0
 12 13  2  0  0  0
 12106  1  0  0  0
 13 14  1  0  0  0
 13 31  1  0  0  0
 14 15  2  0  0  0
 14107  1  0  0  0
 15108  1  0  0  0
 16 17  2  0  0  0
 16 21  1  0  0  0
 16 31  1  0  0  0
 17 18  1  0  0  0
 17109  1  0  0  0
 18 19  2  0  0  0
 18110  1  0  0  0
 19 20  1  0  0  0
 19 24  1  0  0  0
 20 21  2  0  0  0
 20111  1  0  0  0
 21 23  1  0  0  0
 22 28  1  0  0  0
 22 32  2  0  0  0
 26 27  1  0  0  0
 28112  1  0  0  0
 28113  1  0  0  0
 29114  1  0  0  0
 29115  1  0  0  0
 33 34  1  0  0  0
 33 66  1  0  0  0
 33 70  2  0  0  0
 34 36  1  0  0  0
 34 59  1  0  0  0
 34116  1  0  0  0
 35 44  2  0  0  0
 35 45  1  0  0  0
 35 68  1  0  0  0
 36 56  1  0  0  0
 36117  1  0  0  0
 37 39  1  0  0  0
 37 47  1  0  0  0
 37 66  1  0  0  0
 37118  1  0  0  0
 38 43  2  0  0  0
 38 46  1  0  0  0
 38 47  1  0  0  0
 39 64  1  0  0  0
 39 67  2  0  0  0
 40 52  1  0  0  0
 40 53  2  0  0  0
 40 58  1  0  0  0
 41119  1  0  0  0
 41120  1  0  0  0
 41121  1  0  0  0
 41 48  1  0  0  0
 42 43  1  0  0  0
 42 66  1  0  0  0
 42122  1  0  0  0
 42123  1  0  0  0
 43 44  1  0  0  0
 44124  1  0  0  0
 45 46  2  0  0  0
 45125  1  0  0  0
 46126  1  0  0  0
 47127  1  0  0  0
 47128  1  0  0  0
 48 56  1  0  0  0
 48 65  1  0  0  0
 48129  1  0  0  0
 49 50  1  0  0  0
 49 53  1  0  0  0
 49 64  1  0  0  0
 49130  1  0  0  0
 50 51  1  0  0  0
 50131  1  0  0  0
 50132  1  0  0  0
 51 52  1  0  0  0
 51133  1  0  0  0
 51134  1  0  0  0
 52135  1  0  0  0
 52136  1  0  0  0
 53 54  1  0  0  0
 54 55  2  0  0  0
 54137  1  0  0  0
 55 57  1  0  0  0
 55138  1  0  0  0
 56 69  2  0  0  0
 57 58  2  0  0  0
 57139  1  0  0  0
 58140  1  0  0  0
 59 60  1  0  0  0
 59 61  1  0  0  0
 59 62  1  0  0  0
 60141  1  0  0  0
 60142  1  0  0  0
 60143  1  0  0  0
 61144  1  0  0  0
 61145  1  0  0  0
 61146  1  0  0  0
 62147  1  0  0  0
 62148  1  0  0  0
 62149  1  0  0  0
 63 65  1  0  0  0
 63150  1  0  0  0
 63151  1  0  0  0
 63152  1  0  0  0
 64153  1  0  0  0
 65154  1  0  0  0
 68 91  1  0  0  0
 71 94  1  0  0  0
 71 95  2  0  0  0
 71 79  1  0  0  0
 72 73  1  0  0  0
 72 78  1  0  0  0
 72155  1  0  0  0
 72156  1  0  0  0
 73 79  1  0  0  0
 73157  1  0  0  0
 73158  1  0  0  0
 74 76  1  0  0  0
 74 80  1  0  0  0
 74159  1  0  0  0
 74160  1  0  0  0
 75 77  1  0  0  0
 75 80  1  0  0  0
 75161  1  0  0  0
 75162  1  0  0  0
 76163  1  0  0  0
 76164  1  0  0  0
 76 81  1  0  0  0
 77 81  1  0  0  0
 77165  1  0  0  0
 77166  1  0  0  0
 78 93  1  0  0  0
 78167  1  0  0  0
 78168  1  0  0  0
 79 93  1  0  0  0
 79169  1  0  0  0
 80 82  1  0  0  0
 80170  1  0  0  0
 81 92  1  0  0  0
 81171  1  0  0  0
 82172  1  0  0  0
 82173  1  0  0  0
 82174  1  0  0  0
 83 84  1  0  0  0
 83 85  1  0  0  0
 83175  1  0  0  0
 83176  1  0  0  0
 84 86  1  0  0  0
 84177  1  0  0  0
 84178  1  0  0  0
 85 87  1  0  0  0
 85179  1  0  0  0
 85180  1  0  0  0
 86 88  1  0  0  0
 86181  1  0  0  0
 86182  1  0  0  0
 87 89  1  0  0  0
 87183  1  0  0  0
 87184  1  0  0  0
 88 90  1  0  0  0
 88185  1  0  0  0
 88186  1  0  0  0
 89 91  1  0  0  0
 89187  1  0  0  0
 89188  1  0  0  0
 90189  1  0  0  0
 90190  1  0  0  0
 90 92  1  0  0  0
 91191  1  0  0  0
 91192  1  0  0  0
 92 94  1  0  0  0
 92193  1  0  0  0
 94194  1  0  0  0
M  ISO  4   1 100  68 101  91 101  93 100
M  END
> <chiral flag>
0

> <version>
0

> <s_m_source_file>
/data/baiqing/PycharmProjects/Reinvent-master-3.2/result/LINK_invent/BTK/process_docking_weight1_custom_sum_contain_oxygen_bond_distance_aromatic_linkinvent_7_9_3/rearranged_h_0139.sdf

> <i_m_source_file_index>
60

> <r_mmod_Potential_Energy-OPLS-2005>
18727.833984375

> <r_mmod_Stretch_Energy-OPLS-2005>
9091.3515625

> <r_mmod_Bend_Energy-OPLS-2005>
2118.55737304688

> <r_mmod_Torsional_Energy-OPLS-2005>
665.346862792969

> <r_mmod_Improper_Torsional_Energy-OPLS-2005>
47.3859214782715

> <r_mmod_Van_der_Waal_Energy-OPLS-2005>
2326.17602539062

> <r_mmod_Electrostatic_Energy-OPLS-2005>
-361.800262451172

> <r_mmod_Solvation_Energy-OPLS-2005>
-243.561996459961

> <b_mmod_Minimization_Converged-OPLS-2005>
0

> <r_mmod_RMS_Derivative-OPLS-2005>
30.3008861541748

$$$$
60
                    3D
 Structure written by MMmdl.
156165  0  0  1  0            999 V2000
  -30.6066  -15.0361   20.3594 C   0  0  0  0  0  0
  -30.4157  -12.6702   19.4584 C   0  0  0  0  0  0
  -29.4935  -12.5207   18.2304 C   0  0  0  0  0  0
  -28.0407  -12.3021   18.6763 C   0  0  0  0  0  0
  -27.6091  -13.2679   19.8118 C   0  0  2  0  0  0
  -28.6668  -13.3917   20.9269 C   0  0  0  0  0  0
  -25.2385  -13.8228   20.5829 C   0  0  0  0  0  0
  -24.1721  -13.0453   20.9291 C   0  0  0  0  0  0
  -24.6357  -11.6938   20.8779 C   0  0  0  0  0  0
  -23.9042  -10.4306   21.0424 C   0  0  0  0  0  0
  -24.3599   -9.4211   21.9193 C   0  0  0  0  0  0
  -23.6290   -8.2241   22.0740 C   0  0  0  0  0  0
  -22.4270   -8.0271   21.3533 C   0  0  0  0  0  0
  -21.9911   -9.0244   20.4626 C   0  0  0  0  0  0
  -22.7224  -10.2138   20.3055 C   0  0  0  0  0  0
  -21.6862   -6.0717   22.5268 C   0  0  0  0  0  0
  -21.4020   -6.5617   23.8199 C   0  0  0  0  0  0
  -21.3676   -5.6783   24.9171 C   0  0  0  0  0  0
  -21.6053   -4.3038   24.7237 C   0  0  0  0  0  0
  -21.8809   -3.8122   23.4352 C   0  0  0  0  0  0
  -21.9191   -4.6938   22.3406 C   0  0  0  0  0  0
  -22.7728  -13.5201   21.1969 C   0  0  0  0  0  0
  -22.1655   -4.2113   21.0987 F   0  0  0  0  0  0
  -21.5650   -3.4532   25.7752 F   0  0  0  0  0  0
  -29.9045  -13.8257   20.2624 N   0  0  0  0  0  0
  -26.2822  -12.9538   20.3290 N   0  0  0  0  0  0
  -25.9301  -11.6629   20.5748 N   0  0  0  0  0  0
  -22.0388  -12.8180   22.0492 N   0  0  0  0  0  0
  -25.4123  -15.1971   20.4326 N   0  0  0  0  0  0
  -31.8342  -14.9083   20.2929 O   0  0  0  0  0  0
  -21.6639   -6.8868   21.4230 O   0  0  0  0  0  0
  -22.3420  -14.5554   20.6857 O   0  0  0  0  0  0
  -24.6445  -31.8490   23.1851 C   0  0  0  0  0  0
  -25.9230  -32.4671   23.8324 C   0  0  1  0  0  0
  -27.2194  -27.1146   20.1530 C   0  0  0  0  0  0
  -25.6003  -33.8499   24.2252 N   0  0  0  0  0  0
  -23.4472  -30.4659   21.5225 C   0  0  2  0  0  0
  -24.8997  -28.8935   20.1065 C   0  0  0  0  0  0
  -22.7580  -29.4559   22.4765 C   0  0  0  0  0  0
  -18.0433  -28.1069   22.8556 C   0  0  0  0  0  0
  -24.1482  -36.7256   23.2650 C   0  0  0  0  0  0
  -26.0087  -30.7151   21.3875 C   0  0  0  0  0  0
  -26.0762  -29.3225   20.7327 C   0  0  0  0  0  0
  -27.2262  -28.4419   20.7570 C   0  0  0  0  0  0
  -26.0232  -26.8208   19.4507 C   0  0  0  0  0  0
  -24.8862  -27.6530   19.4571 C   0  0  0  0  0  0
  -23.6766  -29.7907   20.1433 C   0  0  0  0  0  0
  -25.4105  -36.3037   24.0342 C   0  0  1  0  0  0
  -20.6030  -28.3553   23.1049 C   0  0  2  0  0  0
  -20.6950  -26.9237   22.5189 C   0  0  0  0  0  0
  -19.5838  -26.6182   21.5027 C   0  0  0  0  0  0
  -18.2199  -26.7518   22.1899 C   0  0  0  0  0  0
  -19.1688  -28.8673   23.2721 C   0  0  0  0  0  0
  -18.9500  -30.1433   23.8437 C   0  0  0  0  0  0
  -17.6480  -30.6487   24.0201 C   0  0  0  0  0  0
  -25.9066  -34.9389   23.5077 C   0  0  0  0  0  0
  -16.5410  -29.8792   23.6243 C   0  0  0  0  0  0
  -16.7427  -28.6148   23.0455 C   0  0  0  0  0  0
  -26.4481  -31.6563   25.0796 C   0  0  0  0  0  0
  -25.3664  -31.3775   26.1492 C   0  0  0  0  0  0
  -27.0411  -30.2974   24.6448 C   0  0  0  0  0  0
  -27.6004  -32.4360   25.7570 C   0  0  0  0  0  0
  -27.5592  -37.1791   24.8478 C   0  0  0  0  0  0
  -21.4283  -29.2911   22.3383 N   0  0  0  0  0  0
  -26.4288  -37.3758   23.9423 N   0  0  0  0  0  0
  -24.7192  -31.0397   22.0830 N   0  0  0  0  0  0
  -23.4127  -28.8315   23.3131 O   0  0  0  0  0  0
  -28.2661  -26.1108   20.2741 O   0  0  0  0  0  0
  -26.5619  -34.8882   22.4632 O   0  0  0  0  0  0
  -23.5583  -32.1360   23.7054 O   0  0  0  0  0  0
  -29.2415  -18.9643   20.1115 C   0  0  0  0  0  0
  -27.3581  -17.9470   21.7009 C   0  0  0  0  0  0
  -28.1788  -19.9828   20.4651 C   0  0  0  0  0  0
  -27.1238  -19.1755   21.0601 C   0  0  0  0  0  0
  -29.2720  -17.5004   20.5233 C   0  0  0  0  0  0
  -26.4291  -22.1268   20.3264 C   0  0  0  0  0  0
  -26.8929  -21.7502   18.9309 C   0  0  0  0  0  0
  -27.8671  -21.6548   20.0730 C   0  0  0  0  0  0
  -25.6094  -19.3298   20.8493 C   0  0  0  0  0  0
  -28.6874  -23.0902   20.4301 C   0  0  0  0  0  0
  -28.1781  -24.6192   19.7815 C   0  0  0  0  0  0
  -28.3817  -17.1303   21.4472 N   0  0  0  0  0  0
  -30.1285  -16.3467   19.9925 N   0  0  0  0  0  0
  -31.4483  -12.8103   19.1330 H   0  0  0  0  0  0
  -30.4334  -11.7567   20.0535 H   0  0  0  0  0  0
  -29.8244  -11.6869   17.6104 H   0  0  0  0  0  0
  -29.5530  -13.4162   17.6089 H   0  0  0  0  0  0
  -27.9636  -11.2763   19.0294 H   0  0  0  0  0  0
  -27.3627  -12.3947   17.8271 H   0  0  0  0  0  0
  -27.5404  -14.2484   19.3408 H   0  0  0  0  0  0
  -28.8039  -12.4446   21.4529 H   0  0  0  0  0  0
  -28.3697  -14.1285   21.6755 H   0  0  0  0  0  0
  -25.2742   -9.5701   22.4763 H   0  0  0  0  0  0
  -23.9999   -7.4625   22.7449 H   0  0  0  0  0  0
  -21.0854   -8.8748   19.8917 H   0  0  0  0  0  0
  -22.3670  -10.9675   19.6151 H   0  0  0  0  0  0
  -21.1999   -7.6123   23.9702 H   0  0  0  0  0  0
  -21.1525   -6.0510   25.9084 H   0  0  0  0  0  0
  -22.0576   -2.7576   23.2869 H   0  0  0  0  0  0
  -22.4016  -11.9822   22.4840 H   0  0  0  0  0  0
  -21.0970  -13.1118   22.2709 H   0  0  0  0  0  0
  -24.6752  -15.8655   20.6181 H   0  0  0  0  0  0
  -26.2967  -15.6256   20.1914 H   0  0  0  0  0  0
  -26.7312  -32.5237   23.1073 H   0  0  0  0  0  0
  -25.0204  -33.9616   25.0445 H   0  0  0  0  0  0
  -22.7485  -31.2902   21.3670 H   0  0  0  0  0  0
  -23.3784  -35.9562   23.3243 H   0  0  0  0  0  0
  -24.3588  -36.8907   22.2090 H   0  0  0  0  0  0
  -23.7232  -37.6436   23.6693 H   0  0  0  0  0  0
  -26.1975  -31.4723   20.6218 H   0  0  0  0  0  0
  -26.8644  -30.7524   22.0460 H   0  0  0  0  0  0
  -28.1072  -28.7713   21.2869 H   0  0  0  0  0  0
  -25.8891  -25.9119   18.8892 H   0  0  0  0  0  0
  -23.9907  -27.3320   18.9483 H   0  0  0  0  0  0
  -23.7939  -30.5537   19.3688 H   0  0  0  0  0  0
  -22.8003  -29.2044   19.8441 H   0  0  0  0  0  0
  -25.1294  -36.1865   25.0859 H   0  0  0  0  0  0
  -21.0183  -28.3193   24.1152 H   0  0  0  0  0  0
  -20.5550  -26.2231   23.3415 H   0  0  0  0  0  0
  -21.6872  -26.7007   22.1012 H   0  0  0  0  0  0
  -19.6888  -25.6140   21.0770 H   0  0  0  0  0  0
  -19.6499  -27.3116   20.6635 H   0  0  0  0  0  0
  -17.4230  -26.5397   21.4798 H   0  0  0  0  0  0
  -18.1398  -25.9739   22.9522 H   0  0  0  0  0  0
  -19.7936  -30.7506   24.1324 H   0  0  0  0  0  0
  -17.4925  -31.6340   24.4353 H   0  0  0  0  0  0
  -15.5368  -30.2583   23.7573 H   0  0  0  0  0  0
  -15.8882  -28.0333   22.7295 H   0  0  0  0  0  0
  -24.5825  -30.7129   25.7822 H   0  0  0  0  0  0
  -24.8849  -32.2959   26.4883 H   0  0  0  0  0  0
  -25.7942  -30.8982   27.0315 H   0  0  0  0  0  0
  -26.3081  -29.6614   24.1455 H   0  0  0  0  0  0
  -27.4039  -29.7363   25.5075 H   0  0  0  0  0  0
  -27.8976  -30.4220   23.9818 H   0  0  0  0  0  0
  -27.2575  -33.3673   26.2107 H   0  0  0  0  0  0
  -28.3811  -32.6895   25.0390 H   0  0  0  0  0  0
  -28.0679  -31.8525   26.5507 H   0  0  0  0  0  0
  -28.2579  -38.0112   24.7519 H   0  0  0  0  0  0
  -28.1111  -36.2641   24.6271 H   0  0  0  0  0  0
  -27.2317  -37.1415   25.8884 H   0  0  0  0  0  0
  -20.9711  -29.8132   21.6066 H   0  0  0  0  0  0
  -26.0140  -38.2837   24.1408 H   0  0  0  0  0  0
  -30.0124  -19.3025   19.4301 H   0  0  0  0  0  0
  -26.5553  -17.4621   22.2422 H   0  0  0  0  0  0
  -26.0331  -21.5789   21.1607 H   0  0  0  0  0  0
  -26.1426  -23.1573   20.4611 H   0  0  0  0  0  0
  -27.0420  -22.5661   18.2270 H   0  0  0  0  0  0
  -26.5953  -20.8205   18.4626 H   0  0  0  0  0  0
  -25.0972  -19.7349   21.7262 H   0  0  0  0  0  0
  -25.1617  -18.3486   20.6611 H   0  0  0  0  0  0
  -25.3351  -19.8844   19.9606 H   0  0  0  0  0  0
  -29.7418  -22.9462   20.1839 H   0  0  0  0  0  0
  -28.6487  -23.1965   21.5149 H   0  0  0  0  0  0
  -27.1759  -24.5022   19.4027 H   0  0  0  0  0  0
  -28.7335  -24.6867   18.8434 H   0  0  0  0  0  0
  -30.8676  -16.7338   19.4265 H   0  0  0  0  0  0
  1 25  1  0  0  0
  1 30  2  0  0  0
  1 83  1  0  0  0
  2  3  1  0  0  0
  2 25  1  0  0  0
  2 84  1  0  0  0
  2 85  1  0  0  0
  3  4  1  0  0  0
  3 86  1  0  0  0
  3 87  1  0  0  0
  4  5  1  0  0  0
  4 88  1  0  0  0
  4 89  1  0  0  0
  5  6  1  0  0  0
  5 26  1  0  0  0
  5 90  1  0  0  0
  6 25  1  0  0  0
  6 91  1  0  0  0
  6 92  1  0  0  0
  7  8  2  0  0  0
  7 26  1  0  0  0
  7 29  1  0  0  0
  8  9  1  0  0  0
  8 22  1  0  0  0
  9 10  1  0  0  0
  9 27  2  0  0  0
 10 11  2  0  0  0
 10 15  1  0  0  0
 11 12  1  0  0  0
 11 93  1  0  0  0
 12 13  2  0  0  0
 12 94  1  0  0  0
 13 14  1  0  0  0
 13 31  1  0  0  0
 14 15  2  0  0  0
 14 95  1  0  0  0
 15 96  1  0  0  0
 16 17  2  0  0  0
 16 21  1  0  0  0
 16 31  1  0  0  0
 17 18  1  0  0  0
 17 97  1  0  0  0
 18 19  2  0  0  0
 18 98  1  0  0  0
 19 20  1  0  0  0
 19 24  1  0  0  0
 20 21  2  0  0  0
 20 99  1  0  0  0
 21 23  1  0  0  0
 22 28  1  0  0  0
 22 32  2  0  0  0
 26 27  1  0  0  0
 28100  1  0  0  0
 28101  1  0  0  0
 29102  1  0  0  0
 29103  1  0  0  0
 33 34  1  0  0  0
 33 66  1  0  0  0
 33 70  2  0  0  0
 34 36  1  0  0  0
 34 59  1  0  0  0
 34104  1  0  0  0
 35 44  2  0  0  0
 35 45  1  0  0  0
 35 68  1  0  0  0
 36 56  1  0  0  0
 36105  1  0  0  0
 37 39  1  0  0  0
 37 47  1  0  0  0
 37 66  1  0  0  0
 37106  1  0  0  0
 38 43  2  0  0  0
 38 46  1  0  0  0
 38 47  1  0  0  0
 39 64  1  0  0  0
 39 67  2  0  0  0
 40 52  1  0  0  0
 40 53  2  0  0  0
 40 58  1  0  0  0
 41107  1  0  0  0
 41108  1  0  0  0
 41109  1  0  0  0
 41 48  1  0  0  0
 42 43  1  0  0  0
 42 66  1  0  0  0
 42110  1  0  0  0
 42111  1  0  0  0
 43 44  1  0  0  0
 44112  1  0  0  0
 45 46  2  0  0  0
 45113  1  0  0  0
 46114  1  0  0  0
 47115  1  0  0  0
 47116  1  0  0  0
 48 56  1  0  0  0
 48 65  1  0  0  0
 48117  1  0  0  0
 49 50  1  0  0  0
 49 53  1  0  0  0
 49 64  1  0  0  0
 49118  1  0  0  0
 50 51  1  0  0  0
 50119  1  0  0  0
 50120  1  0  0  0
 51 52  1  0  0  0
 51121  1  0  0  0
 51122  1  0  0  0
 52123  1  0  0  0
 52124  1  0  0  0
 53 54  1  0  0  0
 54 55  2  0  0  0
 54125  1  0  0  0
 55 57  1  0  0  0
 55126  1  0  0  0
 56 69  2  0  0  0
 57 58  2  0  0  0
 57127  1  0  0  0
 58128  1  0  0  0
 59 60  1  0  0  0
 59 61  1  0  0  0
 59 62  1  0  0  0
 60129  1  0  0  0
 60130  1  0  0  0
 60131  1  0  0  0
 61132  1  0  0  0
 61133  1  0  0  0
 61134  1  0  0  0
 62135  1  0  0  0
 62136  1  0  0  0
 62137  1  0  0  0
 63 65  1  0  0  0
 63138  1  0  0  0
 63139  1  0  0  0
 63140  1  0  0  0
 64141  1  0  0  0
 65142  1  0  0  0
 68 81  1  0  0  0
 71 73  2  0  0  0
 71 75  1  0  0  0
 71143  1  0  0  0
 72 74  2  0  0  0
 72 82  1  0  0  0
 72144  1  0  0  0
 73 74  1  0  0  0
 73 78  1  0  0  0
 74 79  1  0  0  0
 75 82  2  0  0  0
 75 83  1  0  0  0
 76 77  1  0  0  0
 76 78  1  0  0  0
 76145  1  0  0  0
 76146  1  0  0  0
 77 78  1  0  0  0
 77147  1  0  0  0
 77148  1  0  0  0
 78 80  1  0  0  0
 79149  1  0  0  0
 79150  1  0  0  0
 79151  1  0  0  0
 80 81  1  0  0  0
 80152  1  0  0  0
 80153  1  0  0  0
 81154  1  0  0  0
 81155  1  0  0  0
 83156  1  0  0  0
M  ISO  4   1 100  68 101  81 101  83 100
M  END
> <chiral flag>
0

> <version>
0

> <s_m_source_file>
/data/baiqing/PycharmProjects/Reinvent-master-3.2/result/LINK_invent/BTK/process_docking_weight1_custom_sum_contain_oxygen_bond_distance_aromatic_linkinvent_7_9_3/rearranged_h_0139.sdf

> <i_m_source_file_index>
61

> <r_mmod_Potential_Energy-OPLS-2005>
891.518615722656

> <r_mmod_Stretch_Energy-OPLS-2005>
383.532836914062

> <r_mmod_Bend_Energy-OPLS-2005>
468.629241943359

> <r_mmod_Torsional_Energy-OPLS-2005>
353.079345703125

> <r_mmod_Improper_Torsional_Energy-OPLS-2005>
26.562629699707

> <r_mmod_Van_der_Waal_Energy-OPLS-2005>
174.925598144531

> <r_mmod_Electrostatic_Energy-OPLS-2005>
-564.179748535156

> <r_mmod_Solvation_Energy-OPLS-2005>
-202.380004882812

> <b_mmod_Minimization_Converged-OPLS-2005>
0

> <r_mmod_RMS_Derivative-OPLS-2005>
11.0230875015259

$$$$
61
                    3D
 Structure written by MMmdl.
170180  0  0  1  0            999 V2000
  -30.7236  -14.4676   20.4434 C   0  0  0  0  0  0
  -30.4097  -12.2689   19.4362 C   0  0  0  0  0  0
  -29.4892  -12.4417   18.2095 C   0  0  0  0  0  0
  -28.0079  -12.3421   18.6225 C   0  0  0  0  0  0
  -27.6553  -13.2130   19.8599 C   0  0  2  0  0  0
  -28.7033  -13.0543   20.9860 C   0  0  0  0  0  0
  -25.2573  -13.8174   20.5708 C   0  0  0  0  0  0
  -24.1824  -13.0454   20.9210 C   0  0  0  0  0  0
  -24.6376  -11.6921   20.8747 C   0  0  0  0  0  0
  -23.9042  -10.4298   21.0406 C   0  0  0  0  0  0
  -24.3604   -9.4212   21.9178 C   0  0  0  0  0  0
  -23.6293   -8.2239   22.0757 C   0  0  0  0  0  0
  -22.4272   -8.0268   21.3554 C   0  0  0  0  0  0
  -21.9895   -9.0235   20.4655 C   0  0  0  0  0  0
  -22.7213  -10.2122   20.3058 C   0  0  0  0  0  0
  -21.6851   -6.0739   22.5273 C   0  0  0  0  0  0
  -21.4016   -6.5644   23.8214 C   0  0  0  0  0  0
  -21.3659   -5.6794   24.9168 C   0  0  0  0  0  0
  -21.6037   -4.3049   24.7221 C   0  0  0  0  0  0
  -21.8818   -3.8153   23.4335 C   0  0  0  0  0  0
  -21.9193   -4.6963   22.3398 C   0  0  0  0  0  0
  -22.7834  -13.5251   21.1855 C   0  0  0  0  0  0
  -22.1665   -4.2165   21.0966 F   0  0  0  0  0  0
  -21.5623   -3.4533   25.7734 F   0  0  0  0  0  0
  -30.0321  -13.3007   20.4110 N   0  0  0  0  0  0
  -26.3004  -12.9359   20.3353 N   0  0  0  0  0  0
  -25.9310  -11.6520   20.5784 N   0  0  0  0  0  0
  -22.0469  -12.8252   22.0401 N   0  0  0  0  0  0
  -25.4303  -15.1878   20.4106 N   0  0  0  0  0  0
  -31.9326  -14.5393   20.2153 O   0  0  0  0  0  0
  -21.6644   -6.8863   21.4236 O   0  0  0  0  0  0
  -22.3517  -14.5549   20.6680 O   0  0  0  0  0  0
  -24.6126  -31.8701   23.2128 C   0  0  0  0  0  0
  -25.9035  -32.4834   23.8397 C   0  0  1  0  0  0
  -27.2306  -27.4586   20.0791 C   0  0  0  0  0  0
  -25.5905  -33.8631   24.2330 N   0  0  0  0  0  0
  -23.3969  -30.4987   21.5535 C   0  0  2  0  0  0
  -24.8385  -28.9718   20.1144 C   0  0  0  0  0  0
  -22.7375  -29.4680   22.4986 C   0  0  0  0  0  0
  -18.0264  -28.1369   22.8483 C   0  0  0  0  0  0
  -24.1485  -36.7319   23.2636 C   0  0  0  0  0  0
  -25.9250  -30.8442   21.3615 C   0  0  0  0  0  0
  -26.0006  -29.4824   20.7058 C   0  0  0  0  0  0
  -27.1986  -28.7349   20.6831 C   0  0  0  0  0  0
  -26.0429  -26.9594   19.4881 C   0  0  0  0  0  0
  -24.8545  -27.7081   19.5048 C   0  0  0  0  0  0
  -23.6018  -29.8374   20.1658 C   0  0  0  0  0  0
  -25.4105  -36.3112   24.0330 C   0  0  1  0  0  0
  -20.5850  -28.3651   23.1314 C   0  0  2  0  0  0
  -20.6757  -26.9390   22.5407 C   0  0  0  0  0  0
  -19.5745  -26.6377   21.5195 C   0  0  0  0  0  0
  -18.1921  -26.7915   22.1608 C   0  0  0  0  0  0
  -19.1511  -28.8821   23.2903 C   0  0  0  0  0  0
  -18.9447  -30.1430   23.8910 C   0  0  0  0  0  0
  -17.6456  -30.6582   24.0559 C   0  0  0  0  0  0
  -25.9032  -34.9481   23.5124 C   0  0  0  0  0  0
  -16.5344  -29.9085   23.6329 C   0  0  0  0  0  0
  -16.7256  -28.6501   23.0346 C   0  0  0  0  0  0
  -26.4474  -31.6605   25.0716 C   0  0  0  0  0  0
  -25.3759  -31.3725   26.1483 C   0  0  0  0  0  0
  -27.0303  -30.3047   24.6086 C   0  0  0  0  0  0
  -27.6047  -32.4317   25.7494 C   0  0  0  0  0  0
  -27.5579  -37.1806   24.8452 C   0  0  0  0  0  0
  -21.4104  -29.3038   22.3722 N   0  0  0  0  0  0
  -26.4284  -37.3799   23.9409 N   0  0  0  0  0  0
  -24.6635  -31.0830   22.1018 N   0  0  0  0  0  0
  -23.4170  -28.8203   23.2995 O   0  0  0  0  0  0
  -28.4171  -26.7526   20.0843 O   0  0  0  0  0  0
  -26.5584  -34.8928   22.4678 O   0  0  0  0  0  0
  -23.5324  -32.1437   23.7543 O   0  0  0  0  0  0
  -30.6273  -16.2725   18.1027 C   0  0  0  0  0  0
  -30.0848  -18.0008   19.7553 C   0  0  0  0  0  0
  -30.8641  -17.2791   17.1614 C   0  0  0  0  0  0
  -30.3563  -19.0168   18.7946 C   0  0  0  0  0  0
  -30.7436  -18.6179   17.4958 C   0  0  0  0  0  0
  -30.2379  -16.6232   19.4224 C   0  0  0  0  0  0
  -31.2641  -17.0848   15.7243 C   0  0  0  0  0  0
  -31.0668  -19.4939   16.3059 C   0  0  0  0  0  0
  -31.5784  -18.5120   15.2278 C   0  0  0  0  0  0
  -28.7796  -20.9930   19.1763 C   0  0  0  0  0  0
  -30.9584  -21.0065   20.3546 C   0  0  0  0  0  0
  -28.7656  -22.5319   19.1419 C   0  0  0  0  0  0
  -30.9497  -22.5525   20.3570 C   0  0  0  0  0  0
  -30.2253  -20.5067   19.1060 C   0  0  1  0  0  0
  -29.6685  -24.6428   20.1475 C   0  0  0  0  0  0
  -28.3307  -25.3478   19.8473 C   0  0  0  0  0  0
  -29.9789  -15.5893   20.3805 N   0  0  0  0  0  0
  -29.5837  -23.1498   20.2316 N   0  3  1  0  0  0
  -31.4582  -12.3330   19.1385 H   0  0  0  0  0  0
  -30.2847  -11.2768   19.8718 H   0  0  0  0  0  0
  -29.7200  -11.6821   17.4616 H   0  0  0  0  0  0
  -29.6667  -13.3994   17.7262 H   0  0  0  0  0  0
  -27.8029  -11.2932   18.8371 H   0  0  0  0  0  0
  -27.3659  -12.6108   17.7826 H   0  0  0  0  0  0
  -27.6811  -14.2500   19.5233 H   0  0  0  0  0  0
  -28.6640  -12.0494   21.4093 H   0  0  0  0  0  0
  -28.4970  -13.7368   21.8113 H   0  0  0  0  0  0
  -25.2758   -9.5696   22.4737 H   0  0  0  0  0  0
  -24.0027   -7.4624   22.7458 H   0  0  0  0  0  0
  -21.0834   -8.8719   19.8956 H   0  0  0  0  0  0
  -22.3663  -10.9639   19.6147 H   0  0  0  0  0  0
  -21.2022   -7.6154   23.9719 H   0  0  0  0  0  0
  -21.1480   -6.0526   25.9076 H   0  0  0  0  0  0
  -22.0607   -2.7618   23.2820 H   0  0  0  0  0  0
  -22.4106  -11.9942   22.4815 H   0  0  0  0  0  0
  -21.1069  -13.1242   22.2579 H   0  0  0  0  0  0
  -24.6632  -15.8432   20.5104 H   0  0  0  0  0  0
  -26.2811  -15.6202   20.0735 H   0  0  0  0  0  0
  -26.7113  -32.5546   23.1167 H   0  0  0  0  0  0
  -25.0073  -33.9799   25.0487 H   0  0  0  0  0  0
  -22.6862  -31.3166   21.4189 H   0  0  0  0  0  0
  -23.3733  -35.9666   23.3300 H   0  0  0  0  0  0
  -24.3589  -36.8930   22.2051 H   0  0  0  0  0  0
  -23.7248  -37.6530   23.6648 H   0  0  0  0  0  0
  -26.0330  -31.6128   20.5942 H   0  0  0  0  0  0
  -26.8154  -30.8957   21.9764 H   0  0  0  0  0  0
  -28.0973  -29.1310   21.1357 H   0  0  0  0  0  0
  -26.0033  -25.9976   18.9994 H   0  0  0  0  0  0
  -23.9612  -27.3083   19.0447 H   0  0  0  0  0  0
  -23.7103  -30.6150   19.4086 H   0  0  0  0  0  0
  -22.7252  -29.2594   19.8680 H   0  0  0  0  0  0
  -25.1278  -36.1977   25.0820 H   0  0  0  0  0  0
  -20.9954  -28.3219   24.1428 H   0  0  0  0  0  0
  -20.5650  -26.2256   23.3588 H   0  0  0  0  0  0
  -21.6639  -26.7440   22.1213 H   0  0  0  0  0  0
  -19.6916  -25.6289   21.1222 H   0  0  0  0  0  0
  -19.6697  -27.3189   20.6725 H   0  0  0  0  0  0
  -17.4189  -26.6644   21.4012 H   0  0  0  0  0  0
  -18.0342  -26.0056   22.9008 H   0  0  0  0  0  0
  -19.7928  -30.7230   24.2291 H   0  0  0  0  0  0
  -17.5022  -31.6268   24.5146 H   0  0  0  0  0  0
  -15.5350  -30.3001   23.7646 H   0  0  0  0  0  0
  -15.8649  -28.0835   22.7057 H   0  0  0  0  0  0
  -24.5896  -30.7113   25.7827 H   0  0  0  0  0  0
  -24.9008  -32.2903   26.4955 H   0  0  0  0  0  0
  -25.8125  -30.8867   27.0218 H   0  0  0  0  0  0
  -26.2850  -29.6813   24.1139 H   0  0  0  0  0  0
  -27.4073  -29.7275   25.4535 H   0  0  0  0  0  0
  -27.8678  -30.4348   23.9232 H   0  0  0  0  0  0
  -27.2646  -33.3581   26.2132 H   0  0  0  0  0  0
  -28.3845  -32.6935   25.0334 H   0  0  0  0  0  0
  -28.0735  -31.8412   26.5374 H   0  0  0  0  0  0
  -28.2571  -38.0127   24.7531 H   0  0  0  0  0  0
  -28.1095  -36.2658   24.6227 H   0  0  0  0  0  0
  -27.2302  -37.1405   25.8855 H   0  0  0  0  0  0
  -20.9230  -29.8797   21.6994 H   0  0  0  0  0  0
  -26.0163  -38.2864   24.1449 H   0  0  0  0  0  0
  -30.7617  -15.2450   17.8015 H   0  0  0  0  0  0
  -29.7802  -18.2812   20.7532 H   0  0  0  0  0  0
  -30.4264  -16.6565   15.1717 H   0  0  0  0  0  0
  -32.1231  -16.4189   15.6304 H   0  0  0  0  0  0
  -31.8258  -20.2406   16.5416 H   0  0  0  0  0  0
  -30.1630  -20.0068   15.9750 H   0  0  0  0  0  0
  -31.1632  -18.7152   14.2412 H   0  0  0  0  0  0
  -32.6604  -18.6202   15.1415 H   0  0  0  0  0  0
  -28.2125  -20.6135   18.3254 H   0  0  0  0  0  0
  -28.2880  -20.6132   20.0729 H   0  0  0  0  0  0
  -30.5066  -20.6114   21.2645 H   0  0  0  0  0  0
  -31.9919  -20.6575   20.3463 H   0  0  0  0  0  0
  -27.7262  -22.8551   19.2096 H   0  0  0  0  0  0
  -29.1359  -22.8726   18.1738 H   0  0  0  0  0  0
  -31.5651  -22.9015   19.5251 H   0  0  0  0  0  0
  -31.4304  -22.9212   21.2639 H   0  0  0  0  0  0
  -30.6858  -21.0368   18.2747 H   0  0  0  0  0  0
  -30.0584  -25.0123   21.0972 H   0  0  0  0  0  0
  -30.3924  -24.9345   19.3849 H   0  0  0  0  0  0
  -27.5474  -24.9238   20.4783 H   0  0  0  0  0  0
  -28.0610  -25.1820   18.8024 H   0  0  0  0  0  0
  -29.0357  -15.5341   20.7323 H   0  0  0  0  0  0
  -29.1015  -22.9337   21.0936 H   0  0  0  0  0  0
  1 25  1  0  0  0
  1 30  2  0  0  0
  1 87  1  0  0  0
  2  3  1  0  0  0
  2 25  1  0  0  0
  2 89  1  0  0  0
  2 90  1  0  0  0
  3  4  1  0  0  0
  3 91  1  0  0  0
  3 92  1  0  0  0
  4  5  1  0  0  0
  4 93  1  0  0  0
  4 94  1  0  0  0
  5  6  1  0  0  0
  5 26  1  0  0  0
  5 95  1  0  0  0
  6 25  1  0  0  0
  6 96  1  0  0  0
  6 97  1  0  0  0
  7  8  2  0  0  0
  7 26  1  0  0  0
  7 29  1  0  0  0
  8  9  1  0  0  0
  8 22  1  0  0  0
  9 10  1  0  0  0
  9 27  2  0  0  0
 10 11  2  0  0  0
 10 15  1  0  0  0
 11 12  1  0  0  0
 11 98  1  0  0  0
 12 13  2  0  0  0
 12 99  1  0  0  0
 13 14  1  0  0  0
 13 31  1  0  0  0
 14 15  2  0  0  0
 14100  1  0  0  0
 15101  1  0  0  0
 16 17  2  0  0  0
 16 21  1  0  0  0
 16 31  1  0  0  0
 17 18  1  0  0  0
 17102  1  0  0  0
 18 19  2  0  0  0
 18103  1  0  0  0
 19 20  1  0  0  0
 19 24  1  0  0  0
 20 21  2  0  0  0
 20104  1  0  0  0
 21 23  1  0  0  0
 22 28  1  0  0  0
 22 32  2  0  0  0
 26 27  1  0  0  0
 28105  1  0  0  0
 28106  1  0  0  0
 29107  1  0  0  0
 29108  1  0  0  0
 33 34  1  0  0  0
 33 66  1  0  0  0
 33 70  2  0  0  0
 34 36  1  0  0  0
 34 59  1  0  0  0
 34109  1  0  0  0
 35 44  2  0  0  0
 35 45  1  0  0  0
 35 68  1  0  0  0
 36 56  1  0  0  0
 36110  1  0  0  0
 37 39  1  0  0  0
 37 47  1  0  0  0
 37 66  1  0  0  0
 37111  1  0  0  0
 38 43  2  0  0  0
 38 46  1  0  0  0
 38 47  1  0  0  0
 39 64  1  0  0  0
 39 67  2  0  0  0
 40 52  1  0  0  0
 40 53  2  0  0  0
 40 58  1  0  0  0
 41112  1  0  0  0
 41113  1  0  0  0
 41114  1  0  0  0
 41 48  1  0  0  0
 42 43  1  0  0  0
 42 66  1  0  0  0
 42115  1  0  0  0
 42116  1  0  0  0
 43 44  1  0  0  0
 44117  1  0  0  0
 45 46  2  0  0  0
 45118  1  0  0  0
 46119  1  0  0  0
 47120  1  0  0  0
 47121  1  0  0  0
 48 56  1  0  0  0
 48 65  1  0  0  0
 48122  1  0  0  0
 49 50  1  0  0  0
 49 53  1  0  0  0
 49 64  1  0  0  0
 49123  1  0  0  0
 50 51  1  0  0  0
 50124  1  0  0  0
 50125  1  0  0  0
 51 52  1  0  0  0
 51126  1  0  0  0
 51127  1  0  0  0
 52128  1  0  0  0
 52129  1  0  0  0
 53 54  1  0  0  0
 54 55  2  0  0  0
 54130  1  0  0  0
 55 57  1  0  0  0
 55131  1  0  0  0
 56 69  2  0  0  0
 57 58  2  0  0  0
 57132  1  0  0  0
 58133  1  0  0  0
 59 60  1  0  0  0
 59 61  1  0  0  0
 59 62  1  0  0  0
 60134  1  0  0  0
 60135  1  0  0  0
 60136  1  0  0  0
 61137  1  0  0  0
 61138  1  0  0  0
 61139  1  0  0  0
 62140  1  0  0  0
 62141  1  0  0  0
 62142  1  0  0  0
 63 65  1  0  0  0
 63143  1  0  0  0
 63144  1  0  0  0
 63145  1  0  0  0
 64146  1  0  0  0
 65147  1  0  0  0
 68 86  1  0  0  0
 71 73  2  0  0  0
 71 76  1  0  0  0
 71148  1  0  0  0
 72 74  1  0  0  0
 72 76  2  0  0  0
 72149  1  0  0  0
 73 75  1  0  0  0
 73 77  1  0  0  0
 74 75  2  0  0  0
 74 84  1  0  0  0
 75 78  1  0  0  0
 76 87  1  0  0  0
 77 79  1  0  0  0
 77150  1  0  0  0
 77151  1  0  0  0
 78 79  1  0  0  0
 78152  1  0  0  0
 78153  1  0  0  0
 79154  1  0  0  0
 79155  1  0  0  0
 80 82  1  0  0  0
 80 84  1  0  0  0
 80156  1  0  0  0
 80157  1  0  0  0
 81 83  1  0  0  0
 81 84  1  0  0  0
 81158  1  0  0  0
 81159  1  0  0  0
 82 88  1  0  0  0
 82160  1  0  0  0
 82161  1  0  0  0
 83 88  1  0  0  0
 83162  1  0  0  0
 83163  1  0  0  0
 84164  1  0  0  0
 85 86  1  0  0  0
 85165  1  0  0  0
 85166  1  0  0  0
 85 88  1  0  0  0
 86167  1  0  0  0
 86168  1  0  0  0
 87169  1  0  0  0
 88170  1  0  0  0
M  CHG  1  88   1
M  ISO  4   1 100  68 101  86 101  87 100
M  END
> <chiral flag>
0

> <version>
0

> <s_m_source_file>
/data/baiqing/PycharmProjects/Reinvent-master-3.2/result/LINK_invent/BTK/process_docking_weight1_custom_sum_contain_oxygen_bond_distance_aromatic_linkinvent_7_9_3/rearranged_h_0139.sdf

> <i_m_source_file_index>
62

> <r_mmod_Potential_Energy-OPLS-2005>
-18.8467502593994

> <r_mmod_Stretch_Energy-OPLS-2005>
39.4607734680176

> <r_mmod_Bend_Energy-OPLS-2005>
138.119018554688

> <r_mmod_Torsional_Energy-OPLS-2005>
299.781799316406

> <r_mmod_Improper_Torsional_Energy-OPLS-2005>
10.7377986907959

> <r_mmod_Van_der_Waal_Energy-OPLS-2005>
165.065353393555

> <r_mmod_Electrostatic_Energy-OPLS-2005>
-255.901153564453

> <r_mmod_Solvation_Energy-OPLS-2005>
-439.900268554688

> <b_mmod_Minimization_Converged-OPLS-2005>
0

> <r_mmod_RMS_Derivative-OPLS-2005>
2.18984174728394

$$$$
62
                    3D
 Structure written by MMmdl.
168177  0  0  1  0            999 V2000
  -30.6263  -14.6105   20.4863 C   0  0  0  0  0  0
  -30.4181  -12.3646   19.4621 C   0  0  0  0  0  0
  -29.5002  -12.4982   18.2274 C   0  0  0  0  0  0
  -28.0257  -12.3329   18.6352 C   0  0  0  0  0  0
  -27.6426  -13.2044   19.8597 C   0  0  2  0  0  0
  -28.6817  -13.0775   20.9971 C   0  0  0  0  0  0
  -25.2546  -13.7938   20.5777 C   0  0  0  0  0  0
  -24.1736  -13.0307   20.9223 C   0  0  0  0  0  0
  -24.6285  -11.6813   20.8696 C   0  0  0  0  0  0
  -23.8965  -10.4250   21.0388 C   0  0  0  0  0  0
  -24.3543   -9.4197   21.9175 C   0  0  0  0  0  0
  -23.6257   -8.2218   22.0741 C   0  0  0  0  0  0
  -22.4258   -8.0256   21.3520 C   0  0  0  0  0  0
  -21.9858   -9.0225   20.4634 C   0  0  0  0  0  0
  -22.7145  -10.2115   20.3045 C   0  0  0  0  0  0
  -21.6833   -6.0732   22.5283 C   0  0  0  0  0  0
  -21.4009   -6.5640   23.8225 C   0  0  0  0  0  0
  -21.3650   -5.6790   24.9176 C   0  0  0  0  0  0
  -21.6027   -4.3064   24.7237 C   0  0  0  0  0  0
  -21.8815   -3.8162   23.4359 C   0  0  0  0  0  0
  -21.9198   -4.6970   22.3414 C   0  0  0  0  0  0
  -22.7812  -13.5215   21.1953 C   0  0  0  0  0  0
  -22.1668   -4.2150   21.0997 F   0  0  0  0  0  0
  -21.5621   -3.4547   25.7751 F   0  0  0  0  0  0
  -30.0057  -13.3934   20.4379 N   0  0  0  0  0  0
  -26.2922  -12.9138   20.3314 N   0  0  0  0  0  0
  -25.9207  -11.6322   20.5678 N   0  0  0  0  0  0
  -22.0412  -12.8195   22.0498 N   0  0  0  0  0  0
  -25.4520  -15.1506   20.4428 N   0  0  0  0  0  0
  -31.7849  -14.7656   20.0902 O   0  0  0  0  0  0
  -21.6615   -6.8858   21.4244 O   0  0  0  0  0  0
  -22.3551  -14.5563   20.6872 O   0  0  0  0  0  0
  -24.6154  -31.8700   23.2065 C   0  0  0  0  0  0
  -25.9018  -32.4852   23.8414 C   0  0  1  0  0  0
  -27.2606  -27.4202   20.1059 C   0  0  0  0  0  0
  -25.5845  -33.8655   24.2332 N   0  0  0  0  0  0
  -23.4071  -30.4999   21.5409 C   0  0  2  0  0  0
  -24.8625  -28.9607   20.1097 C   0  0  0  0  0  0
  -22.7405  -29.4777   22.4911 C   0  0  0  0  0  0
  -18.0291  -28.1395   22.8497 C   0  0  0  0  0  0
  -24.1473  -36.7323   23.2644 C   0  0  0  0  0  0
  -25.9402  -30.8332   21.3634 C   0  0  0  0  0  0
  -26.0208  -29.4671   20.7083 C   0  0  0  0  0  0
  -27.2112  -28.7009   20.7104 C   0  0  0  0  0  0
  -26.0687  -26.9284   19.5255 C   0  0  0  0  0  0
  -24.8812  -27.6887   19.5184 C   0  0  0  0  0  0
  -23.6189  -29.8224   20.1600 C   0  0  0  0  0  0
  -25.4095  -36.3141   24.0357 C   0  0  1  0  0  0
  -20.5875  -28.3839   23.1248 C   0  0  2  0  0  0
  -20.6827  -26.9545   22.5449 C   0  0  0  0  0  0
  -19.5870  -26.6473   21.5201 C   0  0  0  0  0  0
  -18.2045  -26.7934   22.1643 C   0  0  0  0  0  0
  -19.1506  -28.8930   23.2852 C   0  0  0  0  0  0
  -18.9414  -30.1571   23.8753 C   0  0  0  0  0  0
  -17.6416  -30.6681   24.0375 C   0  0  0  0  0  0
  -25.9029  -34.9506   23.5150 C   0  0  0  0  0  0
  -16.5325  -29.9125   23.6201 C   0  0  0  0  0  0
  -16.7269  -28.6468   23.0371 C   0  0  0  0  0  0
  -26.4435  -31.6614   25.0735 C   0  0  0  0  0  0
  -25.3710  -31.3677   26.1477 C   0  0  0  0  0  0
  -27.0266  -30.3068   24.6112 C   0  0  0  0  0  0
  -27.6037  -32.4329   25.7451 C   0  0  0  0  0  0
  -27.5590  -37.1804   24.8477 C   0  0  0  0  0  0
  -21.4130  -29.3213   22.3644 N   0  0  0  0  0  0
  -26.4298  -37.3823   23.9419 N   0  0  0  0  0  0
  -24.6722  -31.0850   22.0930 N   0  0  0  0  0  0
  -23.4155  -28.8279   23.2946 O   0  0  0  0  0  0
  -28.4339  -26.6851   20.2271 O   0  0  0  0  0  0
  -26.5637  -34.8940   22.4740 O   0  0  0  0  0  0
  -23.5344  -32.1439   23.7443 O   0  0  0  0  0  0
  -26.8928  -22.7448   18.3472 C   0  0  0  0  0  0
  -27.4092  -24.0399   18.3637 C   0  0  0  0  0  0
  -26.9010  -20.4878   19.1237 C   0  0  0  0  0  0
  -29.2259  -23.2870   19.8092 C   0  0  0  0  0  0
  -29.3686  -20.8009   20.3627 C   0  0  0  0  0  0
  -27.5298  -21.7249   19.0717 C   0  0  0  0  0  0
  -28.7407  -21.9402   19.7569 C   0  0  0  0  0  0
  -28.5197  -24.3567   19.1647 C   0  0  0  0  0  0
  -28.7500  -19.5000   20.3907 C   0  0  0  0  0  0
  -27.4208  -19.4052   19.8644 C   0  0  0  0  0  0
  -24.0141  -19.0245   19.7505 C   0  0  0  0  0  0
  -26.0612  -18.1811   21.6246 C   0  0  0  0  0  0
  -29.4622  -18.2722   21.0662 C   0  0  0  0  0  0
  -28.9590  -25.8330   19.1873 C   0  0  0  0  0  0
  -25.2054  -18.1879   19.2264 C   0  0  0  0  0  0
  -29.9185  -17.0621   20.1527 C   0  0  0  0  0  0
  -26.4806  -18.2187   20.1302 C   0  0  1  0  0  0
  -29.8193  -15.6823   20.7399 N   0  0  0  0  0  0
  -31.4643  -12.4651   19.1710 H   0  0  0  0  0  0
  -30.3212  -11.3728   19.9024 H   0  0  0  0  0  0
  -29.7588  -11.7494   17.4775 H   0  0  0  0  0  0
  -29.6446  -13.4747   17.7640 H   0  0  0  0  0  0
  -27.8579  -11.2812   18.8684 H   0  0  0  0  0  0
  -27.3681  -12.5583   17.7936 H   0  0  0  0  0  0
  -27.6550  -14.2367   19.5096 H   0  0  0  0  0  0
  -28.6786  -12.0674   21.4051 H   0  0  0  0  0  0
  -28.4239  -13.7398   21.8265 H   0  0  0  0  0  0
  -25.2686   -9.5729   22.4743 H   0  0  0  0  0  0
  -23.9985   -7.4626   22.7458 H   0  0  0  0  0  0
  -21.0757   -8.8707   19.8956 H   0  0  0  0  0  0
  -22.3560  -10.9638   19.6178 H   0  0  0  0  0  0
  -21.1991   -7.6160   23.9714 H   0  0  0  0  0  0
  -21.1463   -6.0528   25.9055 H   0  0  0  0  0  0
  -22.0603   -2.7629   23.2853 H   0  0  0  0  0  0
  -22.3920  -11.9738   22.4741 H   0  0  0  0  0  0
  -21.1099  -13.1318   22.2854 H   0  0  0  0  0  0
  -24.7254  -15.8384   20.6016 H   0  0  0  0  0  0
  -26.3391  -15.5572   20.1803 H   0  0  0  0  0  0
  -26.7092  -32.5575   23.1181 H   0  0  0  0  0  0
  -24.9888  -33.9804   25.0409 H   0  0  0  0  0  0
  -22.6996  -31.3188   21.3932 H   0  0  0  0  0  0
  -23.3757  -35.9642   23.3329 H   0  0  0  0  0  0
  -24.3549  -36.8926   22.2055 H   0  0  0  0  0  0
  -23.7199  -37.6525   23.6635 H   0  0  0  0  0  0
  -26.0666  -31.6010   20.5993 H   0  0  0  0  0  0
  -26.8195  -30.8830   21.9933 H   0  0  0  0  0  0
  -28.0957  -29.0885   21.1945 H   0  0  0  0  0  0
  -25.9942  -25.9319   19.1433 H   0  0  0  0  0  0
  -23.9783  -27.2767   19.0887 H   0  0  0  0  0  0
  -23.7103  -30.5854   19.3872 H   0  0  0  0  0  0
  -22.7452  -29.2294   19.8795 H   0  0  0  0  0  0
  -25.1259  -36.2027   25.0864 H   0  0  0  0  0  0
  -21.0010  -28.3516   24.1359 H   0  0  0  0  0  0
  -20.5686  -26.2524   23.3711 H   0  0  0  0  0  0
  -21.6706  -26.7608   22.1287 H   0  0  0  0  0  0
  -19.7122  -25.6419   21.1187 H   0  0  0  0  0  0
  -19.6845  -27.3346   20.6771 H   0  0  0  0  0  0
  -17.4317  -26.6624   21.4069 H   0  0  0  0  0  0
  -18.0571  -26.0077   22.9079 H   0  0  0  0  0  0
  -19.7878  -30.7474   24.1988 H   0  0  0  0  0  0
  -17.4966  -31.6418   24.4794 H   0  0  0  0  0  0
  -15.5323  -30.3042   23.7444 H   0  0  0  0  0  0
  -15.8667  -28.0727   22.7161 H   0  0  0  0  0  0
  -24.5860  -30.7086   25.7730 H   0  0  0  0  0  0
  -24.8943  -32.2837   26.5001 H   0  0  0  0  0  0
  -25.8065  -30.8729   27.0182 H   0  0  0  0  0  0
  -26.2808  -29.6822   24.1194 H   0  0  0  0  0  0
  -27.4059  -29.7291   25.4546 H   0  0  0  0  0  0
  -27.8628  -30.4370   23.9247 H   0  0  0  0  0  0
  -27.2677  -33.3604   26.2094 H   0  0  0  0  0  0
  -28.3769  -32.6958   25.0217 H   0  0  0  0  0  0
  -28.0809  -31.8447   26.5299 H   0  0  0  0  0  0
  -28.2631  -38.0078   24.7519 H   0  0  0  0  0  0
  -28.1060  -36.2618   24.6300 H   0  0  0  0  0  0
  -27.2307  -37.1456   25.8880 H   0  0  0  0  0  0
  -20.9286  -29.9012   21.6929 H   0  0  0  0  0  0
  -26.0209  -38.2926   24.1402 H   0  0  0  0  0  0
  -25.9964  -22.5424   17.7801 H   0  0  0  0  0  0
  -26.9298  -24.7958   17.7605 H   0  0  0  0  0  0
  -25.9463  -20.4432   18.6316 H   0  0  0  0  0  0
  -30.1455  -23.4998   20.3374 H   0  0  0  0  0  0
  -30.3264  -20.9429   20.8450 H   0  0  0  0  0  0
  -24.3183  -20.0205   20.0720 H   0  0  0  0  0  0
  -23.5428  -18.5513   20.6137 H   0  0  0  0  0  0
  -23.2467  -19.1440   18.9866 H   0  0  0  0  0  0
  -26.8823  -18.0154   22.3122 H   0  0  0  0  0  0
  -25.3417  -17.3877   21.8135 H   0  0  0  0  0  0
  -25.5862  -19.1122   21.9359 H   0  0  0  0  0  0
  -28.8662  -17.8960   21.8929 H   0  0  0  0  0  0
  -30.3536  -18.6536   21.5667 H   0  0  0  0  0  0
  -30.0421  -25.8364   19.3058 H   0  0  0  0  0  0
  -28.7699  -26.2912   18.2171 H   0  0  0  0  0  0
  -24.8358  -17.1740   19.1100 H   0  0  0  0  0  0
  -25.4589  -18.4556   18.2004 H   0  0  0  0  0  0
  -30.9261  -17.2549   19.7772 H   0  0  0  0  0  0
  -29.2931  -17.0520   19.2612 H   0  0  0  0  0  0
  -27.0528  -17.3261   19.8880 H   0  0  0  0  0  0
  -28.9143  -15.4465   21.1186 H   0  0  0  0  0  0
  1 25  1  0  0  0
  1 30  2  0  0  0
  1 88  1  0  0  0
  2  3  1  0  0  0
  2 25  1  0  0  0
  2 89  1  0  0  0
  2 90  1  0  0  0
  3  4  1  0  0  0
  3 91  1  0  0  0
  3 92  1  0  0  0
  4  5  1  0  0  0
  4 93  1  0  0  0
  4 94  1  0  0  0
  5  6  1  0  0  0
  5 26  1  0  0  0
  5 95  1  0  0  0
  6 25  1  0  0  0
  6 96  1  0  0  0
  6 97  1  0  0  0
  7  8  2  0  0  0
  7 26  1  0  0  0
  7 29  1  0  0  0
  8  9  1  0  0  0
  8 22  1  0  0  0
  9 10  1  0  0  0
  9 27  2  0  0  0
 10 11  2  0  0  0
 10 15  1  0  0  0
 11 12  1  0  0  0
 11 98  1  0  0  0
 12 13  2  0  0  0
 12 99  1  0  0  0
 13 14  1  0  0  0
 13 31  1  0  0  0
 14 15  2  0  0  0
 14100  1  0  0  0
 15101  1  0  0  0
 16 17  2  0  0  0
 16 21  1  0  0  0
 16 31  1  0  0  0
 17 18  1  0  0  0
 17102  1  0  0  0
 18 19  2  0  0  0
 18103  1  0  0  0
 19 20  1  0  0  0
 19 24  1  0  0  0
 20 21  2  0  0  0
 20104  1  0  0  0
 21 23  1  0  0  0
 22 28  1  0  0  0
 22 32  2  0  0  0
 26 27  1  0  0  0
 28105  1  0  0  0
 28106  1  0  0  0
 29107  1  0  0  0
 29108  1  0  0  0
 33 34  1  0  0  0
 33 66  1  0  0  0
 33 70  2  0  0  0
 34 36  1  0  0  0
 34 59  1  0  0  0
 34109  1  0  0  0
 35 44  2  0  0  0
 35 45  1  0  0  0
 35 68  1  0  0  0
 36 56  1  0  0  0
 36110  1  0  0  0
 37 39  1  0  0  0
 37 47  1  0  0  0
 37 66  1  0  0  0
 37111  1  0  0  0
 38 43  2  0  0  0
 38 46  1  0  0  0
 38 47  1  0  0  0
 39 64  1  0  0  0
 39 67  2  0  0  0
 40 52  1  0  0  0
 40 53  2  0  0  0
 40 58  1  0  0  0
 41112  1  0  0  0
 41113  1  0  0  0
 41114  1  0  0  0
 41 48  1  0  0  0
 42 43  1  0  0  0
 42 66  1  0  0  0
 42115  1  0  0  0
 42116  1  0  0  0
 43 44  1  0  0  0
 44117  1  0  0  0
 45 46  2  0  0  0
 45118  1  0  0  0
 46119  1  0  0  0
 47120  1  0  0  0
 47121  1  0  0  0
 48 56  1  0  0  0
 48 65  1  0  0  0
 48122  1  0  0  0
 49 50  1  0  0  0
 49 53  1  0  0  0
 49 64  1  0  0  0
 49123  1  0  0  0
 50 51  1  0  0  0
 50124  1  0  0  0
 50125  1  0  0  0
 51 52  1  0  0  0
 51126  1  0  0  0
 51127  1  0  0  0
 52128  1  0  0  0
 52129  1  0  0  0
 53 54  1  0  0  0
 54 55  2  0  0  0
 54130  1  0  0  0
 55 57  1  0  0  0
 55131  1  0  0  0
 56 69  2  0  0  0
 57 58  2  0  0  0
 57132  1  0  0  0
 58133  1  0  0  0
 59 60  1  0  0  0
 59 61  1  0  0  0
 59 62  1  0  0  0
 60134  1  0  0  0
 60135  1  0  0  0
 60136  1  0  0  0
 61137  1  0  0  0
 61138  1  0  0  0
 61139  1  0  0  0
 62140  1  0  0  0
 62141  1  0  0  0
 62142  1  0  0  0
 63 65  1  0  0  0
 63143  1  0  0  0
 63144  1  0  0  0
 63145  1  0  0  0
 64146  1  0  0  0
 65147  1  0  0  0
 68 84  1  0  0  0
 71 72  2  0  0  0
 71 76  1  0  0  0
 71148  1  0  0  0
 72 78  1  0  0  0
 72149  1  0  0  0
 73 76  2  0  0  0
 73 80  1  0  0  0
 73150  1  0  0  0
 74 77  1  0  0  0
 74 78  2  0  0  0
 74151  1  0  0  0
 75 77  2  0  0  0
 75 79  1  0  0  0
 75152  1  0  0  0
 76 77  1  0  0  0
 78 84  1  0  0  0
 79 80  2  0  0  0
 79 83  1  0  0  0
 80 87  1  0  0  0
 81 85  1  0  0  0
 81153  1  0  0  0
 81154  1  0  0  0
 81155  1  0  0  0
 82156  1  0  0  0
 82157  1  0  0  0
 82158  1  0  0  0
 82 87  1  0  0  0
 83 86  1  0  0  0
 83159  1  0  0  0
 83160  1  0  0  0
 84161  1  0  0  0
 84162  1  0  0  0
 85 87  1  0  0  0
 85163  1  0  0  0
 85164  1  0  0  0
 86 88  1  0  0  0
 86165  1  0  0  0
 86166  1  0  0  0
 87167  1  0  0  0
 88168  1  0  0  0
M  ISO  4   1 100  68 101  84 101  88 100
M  END
> <chiral flag>
0

> <version>
0

> <s_m_source_file>
/data/baiqing/PycharmProjects/Reinvent-master-3.2/result/LINK_invent/BTK/process_docking_weight1_custom_sum_contain_oxygen_bond_distance_aromatic_linkinvent_7_9_3/rearranged_h_0139.sdf

> <i_m_source_file_index>
63

> <r_mmod_Potential_Energy-OPLS-2005>
100.830879211426

> <r_mmod_Stretch_Energy-OPLS-2005>
65.0412673950195

> <r_mmod_Bend_Energy-OPLS-2005>
136.995635986328

> <r_mmod_Torsional_Energy-OPLS-2005>
264.842987060547

> <r_mmod_Improper_Torsional_Energy-OPLS-2005>
8.37912273406982

> <r_mmod_Van_der_Waal_Energy-OPLS-2005>
181.694274902344

> <r_mmod_Electrostatic_Energy-OPLS-2005>
-385.949279785156

> <r_mmod_Solvation_Energy-OPLS-2005>
-204.086364746094

> <b_mmod_Minimization_Converged-OPLS-2005>
0

> <r_mmod_RMS_Derivative-OPLS-2005>
5.63748550415039

$$$$
63
                    3D
 Structure written by MMmdl.
173182  0  0  1  0            999 V2000
  -30.7528  -14.3738   20.6841 C   0  0  0  0  0  0
  -30.4209  -12.2959   19.3908 C   0  0  0  0  0  0
  -29.4842  -12.5244   18.1896 C   0  0  0  0  0  0
  -28.0081  -12.3802   18.6077 C   0  0  0  0  0  0
  -27.6659  -13.2006   19.8786 C   0  0  2  0  0  0
  -28.7035  -12.9341   20.9904 C   0  0  0  0  0  0
  -25.2605  -13.8148   20.5674 C   0  0  0  0  0  0
  -24.1845  -13.0434   20.9166 C   0  0  0  0  0  0
  -24.6386  -11.6897   20.8720 C   0  0  0  0  0  0
  -23.9050  -10.4288   21.0394 C   0  0  0  0  0  0
  -24.3603   -9.4209   21.9179 C   0  0  0  0  0  0
  -23.6283   -8.2242   22.0752 C   0  0  0  0  0  0
  -22.4266   -8.0277   21.3542 C   0  0  0  0  0  0
  -21.9900   -9.0247   20.4642 C   0  0  0  0  0  0
  -22.7224  -10.2126   20.3043 C   0  0  0  0  0  0
  -21.6852   -6.0729   22.5277 C   0  0  0  0  0  0
  -21.4014   -6.5632   23.8211 C   0  0  0  0  0  0
  -21.3658   -5.6787   24.9176 C   0  0  0  0  0  0
  -21.6044   -4.3051   24.7225 C   0  0  0  0  0  0
  -21.8820   -3.8144   23.4345 C   0  0  0  0  0  0
  -21.9196   -4.6960   22.3402 C   0  0  0  0  0  0
  -22.7870  -13.5241   21.1836 C   0  0  0  0  0  0
  -22.1666   -4.2145   21.0979 F   0  0  0  0  0  0
  -21.5625   -3.4534   25.7738 F   0  0  0  0  0  0
  -30.0449  -13.2379   20.4540 N   0  0  0  0  0  0
  -26.3040  -12.9308   20.3370 N   0  0  0  0  0  0
  -25.9312  -11.6471   20.5745 N   0  0  0  0  0  0
  -22.0500  -12.8224   22.0376 N   0  0  0  0  0  0
  -25.4343  -15.1865   20.4094 N   0  0  0  0  0  0
  -31.7869  -14.6678   20.0756 O   0  0  0  0  0  0
  -21.6635   -6.8873   21.4240 O   0  0  0  0  0  0
  -22.3561  -14.5557   20.6698 O   0  0  0  0  0  0
  -24.6122  -31.8700   23.2117 C   0  0  0  0  0  0
  -25.9027  -32.4833   23.8404 C   0  0  1  0  0  0
  -27.2401  -27.4643   20.0641 C   0  0  0  0  0  0
  -25.5897  -33.8629   24.2337 N   0  0  0  0  0  0
  -23.3979  -30.4943   21.5522 C   0  0  2  0  0  0
  -24.8424  -28.9621   20.1147 C   0  0  0  0  0  0
  -22.7390  -29.4671   22.5001 C   0  0  0  0  0  0
  -18.0266  -28.1378   22.8492 C   0  0  0  0  0  0
  -24.1483  -36.7310   23.2640 C   0  0  0  0  0  0
  -25.9249  -30.8400   21.3621 C   0  0  0  0  0  0
  -26.0008  -29.4757   20.7101 C   0  0  0  0  0  0
  -27.1975  -28.7275   20.6939 C   0  0  0  0  0  0
  -26.0541  -26.9464   19.4947 C   0  0  0  0  0  0
  -24.8610  -27.6926   19.5128 C   0  0  0  0  0  0
  -23.6036  -29.8264   20.1664 C   0  0  0  0  0  0
  -25.4105  -36.3117   24.0342 C   0  0  1  0  0  0
  -20.5855  -28.3659   23.1329 C   0  0  2  0  0  0
  -20.6757  -26.9399   22.5422 C   0  0  0  0  0  0
  -19.5739  -26.6391   21.5209 C   0  0  0  0  0  0
  -18.1914  -26.7931   22.1611 C   0  0  0  0  0  0
  -19.1516  -28.8833   23.2910 C   0  0  0  0  0  0
  -18.9449  -30.1440   23.8917 C   0  0  0  0  0  0
  -17.6453  -30.6587   24.0566 C   0  0  0  0  0  0
  -25.9033  -34.9484   23.5135 C   0  0  0  0  0  0
  -16.5341  -29.9092   23.6328 C   0  0  0  0  0  0
  -16.7257  -28.6507   23.0349 C   0  0  0  0  0  0
  -26.4467  -31.6603   25.0720 C   0  0  0  0  0  0
  -25.3740  -31.3693   26.1468 C   0  0  0  0  0  0
  -27.0300  -30.3056   24.6072 C   0  0  0  0  0  0
  -27.6041  -32.4320   25.7487 C   0  0  0  0  0  0
  -27.5579  -37.1814   24.8462 C   0  0  0  0  0  0
  -21.4121  -29.3032   22.3739 N   0  0  0  0  0  0
  -26.4289  -37.3801   23.9411 N   0  0  0  0  0  0
  -24.6632  -31.0821   22.1005 N   0  0  0  0  0  0
  -23.4176  -28.8211   23.3029 O   0  0  0  0  0  0
  -28.4285  -26.7683   20.0677 O   0  0  0  0  0  0
  -26.5591  -34.8932   22.4693 O   0  0  0  0  0  0
  -23.5322  -32.1443   23.7528 O   0  0  0  0  0  0
  -31.1082  -21.0951   20.8870 C   0  0  0  0  0  0
  -28.8361  -20.4748   21.4925 C   0  0  0  0  0  0
  -30.6322  -22.2921   20.3160 C   0  0  0  0  0  0
  -28.3615  -21.6716   20.9197 C   0  0  0  0  0  0
  -30.2169  -20.1840   21.4927 C   0  0  0  0  0  0
  -29.2494  -22.6006   20.3401 C   0  0  0  0  0  0
  -31.1572  -17.6912   24.3518 C   0  0  0  0  0  0
  -30.6287  -16.3960   23.7184 C   0  0  0  0  0  0
  -30.2199  -17.6320   21.5442 C   0  0  0  0  0  0
  -30.7551  -18.9332   22.1867 C   0  0  2  0  0  0
  -30.5082  -18.9451   23.7222 C   0  0  2  0  0  0
  -30.8424  -16.3765   22.1946 C   0  0  2  0  0  0
  -30.9155  -21.6415   26.4497 C   0  0  0  0  0  0
  -31.0005  -20.2509   24.4010 C   0  0  0  0  0  0
  -29.5869  -24.7659   19.3409 C   0  0  0  0  0  0
  -28.7796  -25.9997   18.9131 C   0  0  0  0  0  0
  -30.2557  -15.1524   21.6537 N   0  0  0  0  0  0
  -30.5780  -20.3531   25.8145 N   0  3  0  0  0  0
  -28.7030  -23.7630   19.8371 O   0  0  0  0  0  0
  -31.4625  -12.4074   19.0840 H   0  0  0  0  0  0
  -30.3293  -11.2723   19.7570 H   0  0  0  0  0  0
  -29.7172  -11.8176   17.3919 H   0  0  0  0  0  0
  -29.6543  -13.5193   17.7753 H   0  0  0  0  0  0
  -27.8145  -11.3219   18.7875 H   0  0  0  0  0  0
  -27.3535  -12.6723   17.7856 H   0  0  0  0  0  0
  -27.7266  -14.2556   19.6105 H   0  0  0  0  0  0
  -28.6690  -11.8860   21.2918 H   0  0  0  0  0  0
  -28.4457  -13.4941   21.8894 H   0  0  0  0  0  0
  -25.2747   -9.5691   22.4753 H   0  0  0  0  0  0
  -23.9997   -7.4636   22.7469 H   0  0  0  0  0  0
  -21.0832   -8.8758   19.8948 H   0  0  0  0  0  0
  -22.3682  -10.9656   19.6142 H   0  0  0  0  0  0
  -21.2006   -7.6140   23.9712 H   0  0  0  0  0  0
  -21.1476   -6.0516   25.9077 H   0  0  0  0  0  0
  -22.0601   -2.7608   23.2844 H   0  0  0  0  0  0
  -22.4100  -11.9864   22.4739 H   0  0  0  0  0  0
  -21.1119  -13.1252   22.2575 H   0  0  0  0  0  0
  -24.6716  -15.8459   20.5206 H   0  0  0  0  0  0
  -26.2964  -15.6236   20.1079 H   0  0  0  0  0  0
  -26.7092  -32.5554   23.1166 H   0  0  0  0  0  0
  -25.0064  -33.9797   25.0493 H   0  0  0  0  0  0
  -22.6856  -31.3106   21.4158 H   0  0  0  0  0  0
  -23.3751  -35.9638   23.3311 H   0  0  0  0  0  0
  -24.3580  -36.8911   22.2053 H   0  0  0  0  0  0
  -23.7228  -37.6517   23.6638 H   0  0  0  0  0  0
  -26.0356  -31.6070   20.5940 H   0  0  0  0  0  0
  -26.8142  -30.8934   21.9782 H   0  0  0  0  0  0
  -28.0937  -29.1229   21.1509 H   0  0  0  0  0  0
  -26.0238  -25.9621   19.0521 H   0  0  0  0  0  0
  -23.9646  -27.2822   19.0688 H   0  0  0  0  0  0
  -23.7091  -30.6009   19.4057 H   0  0  0  0  0  0
  -22.7279  -29.2443   19.8730 H   0  0  0  0  0  0
  -25.1281  -36.1990   25.0836 H   0  0  0  0  0  0
  -20.9956  -28.3226   24.1445 H   0  0  0  0  0  0
  -20.5660  -26.2265   23.3604 H   0  0  0  0  0  0
  -21.6628  -26.7449   22.1218 H   0  0  0  0  0  0
  -19.6902  -25.6310   21.1220 H   0  0  0  0  0  0
  -19.6687  -27.3216   20.6753 H   0  0  0  0  0  0
  -17.4196  -26.6703   21.3996 H   0  0  0  0  0  0
  -18.0295  -26.0063   22.8992 H   0  0  0  0  0  0
  -19.7928  -30.7244   24.2296 H   0  0  0  0  0  0
  -17.5016  -31.6270   24.5164 H   0  0  0  0  0  0
  -15.5343  -30.2999   23.7644 H   0  0  0  0  0  0
  -15.8658  -28.0834   22.7053 H   0  0  0  0  0  0
  -24.5925  -30.7023   25.7809 H   0  0  0  0  0  0
  -24.8909  -32.2838   26.4918 H   0  0  0  0  0  0
  -25.8107  -30.8873   27.0224 H   0  0  0  0  0  0
  -26.2839  -29.6824   24.1125 H   0  0  0  0  0  0
  -27.4090  -29.7281   25.4516 H   0  0  0  0  0  0
  -27.8662  -30.4393   23.9202 H   0  0  0  0  0  0
  -27.2657  -33.3612   26.2086 H   0  0  0  0  0  0
  -28.3841  -32.6894   25.0309 H   0  0  0  0  0  0
  -28.0716  -31.8430   26.5388 H   0  0  0  0  0  0
  -28.2598  -38.0110   24.7514 H   0  0  0  0  0  0
  -28.1067  -36.2640   24.6275 H   0  0  0  0  0  0
  -27.2299  -37.1462   25.8867 H   0  0  0  0  0  0
  -20.9271  -29.8764   21.6978 H   0  0  0  0  0  0
  -26.0180  -38.2882   24.1403 H   0  0  0  0  0  0
  -32.1706  -20.8938   20.8732 H   0  0  0  0  0  0
  -28.1334  -19.7923   21.9495 H   0  0  0  0  0  0
  -31.3556  -22.9616   19.8742 H   0  0  0  0  0  0
  -27.3025  -21.8864   20.9408 H   0  0  0  0  0  0
  -32.2412  -17.7347   24.2347 H   0  0  0  0  0  0
  -30.9680  -17.6545   25.4247 H   0  0  0  0  0  0
  -29.5666  -16.2923   23.9483 H   0  0  0  0  0  0
  -31.1258  -15.5392   24.1762 H   0  0  0  0  0  0
  -30.4406  -17.6375   20.4757 H   0  0  0  0  0  0
  -29.1335  -17.5940   21.6335 H   0  0  0  0  0  0
  -31.8366  -18.9335   22.0368 H   0  0  0  0  0  0
  -29.4301  -18.8827   23.8785 H   0  0  0  0  0  0
  -31.9179  -16.3793   22.0031 H   0  0  0  0  0  0
  -30.5860  -21.6487   27.4888 H   0  0  0  0  0  0
  -30.4254  -22.4705   25.9380 H   0  0  0  0  0  0
  -31.9913  -21.8170   26.4349 H   0  0  0  0  0  0
  -30.5987  -21.1222   23.8834 H   0  0  0  0  0  0
  -32.0868  -20.3269   24.3335 H   0  0  0  0  0  0
  -30.3306  -25.0483   20.0879 H   0  0  0  0  0  0
  -30.1178  -24.3729   18.4723 H   0  0  0  0  0  0
  -27.9525  -25.6921   18.2769 H   0  0  0  0  0  0
  -29.4092  -26.6361   18.2904 H   0  0  0  0  0  0
  -29.4093  -14.8183   22.0898 H   0  0  0  0  0  0
  -29.5797  -20.2300   25.8712 H   0  0  0  0  0  0
  -31.0087  -19.6155   26.3481 H   0  0  0  0  0  0
  1 25  1  0  0  0
  1 30  2  0  0  0
  1 87  1  0  0  0
  2  3  1  0  0  0
  2 25  1  0  0  0
  2 90  1  0  0  0
  2 91  1  0  0  0
  3  4  1  0  0  0
  3 92  1  0  0  0
  3 93  1  0  0  0
  4  5  1  0  0  0
  4 94  1  0  0  0
  4 95  1  0  0  0
  5  6  1  0  0  0
  5 26  1  0  0  0
  5 96  1  0  0  0
  6 25  1  0  0  0
  6 97  1  0  0  0
  6 98  1  0  0  0
  7  8  2  0  0  0
  7 26  1  0  0  0
  7 29  1  0  0  0
  8  9  1  0  0  0
  8 22  1  0  0  0
  9 10  1  0  0  0
  9 27  2  0  0  0
 10 11  2  0  0  0
 10 15  1  0  0  0
 11 12  1  0  0  0
 11 99  1  0  0  0
 12 13  2  0  0  0
 12100  1  0  0  0
 13 14  1  0  0  0
 13 31  1  0  0  0
 14 15  2  0  0  0
 14101  1  0  0  0
 15102  1  0  0  0
 16 17  2  0  0  0
 16 21  1  0  0  0
 16 31  1  0  0  0
 17 18  1  0  0  0
 17103  1  0  0  0
 18 19  2  0  0  0
 18104  1  0  0  0
 19 20  1  0  0  0
 19 24  1  0  0  0
 20 21  2  0  0  0
 20105  1  0  0  0
 21 23  1  0  0  0
 22 28  1  0  0  0
 22 32  2  0  0  0
 26 27  1  0  0  0
 28106  1  0  0  0
 28107  1  0  0  0
 29108  1  0  0  0
 29109  1  0  0  0
 33 34  1  0  0  0
 33 66  1  0  0  0
 33 70  2  0  0  0
 34 36  1  0  0  0
 34 59  1  0  0  0
 34110  1  0  0  0
 35 44  2  0  0  0
 35 45  1  0  0  0
 35 68  1  0  0  0
 36 56  1  0  0  0
 36111  1  0  0  0
 37 39  1  0  0  0
 37 47  1  0  0  0
 37 66  1  0  0  0
 37112  1  0  0  0
 38 43  2  0  0  0
 38 46  1  0  0  0
 38 47  1  0  0  0
 39 64  1  0  0  0
 39 67  2  0  0  0
 40 52  1  0  0  0
 40 53  2  0  0  0
 40 58  1  0  0  0
 41113  1  0  0  0
 41114  1  0  0  0
 41115  1  0  0  0
 41 48  1  0  0  0
 42 43  1  0  0  0
 42 66  1  0  0  0
 42116  1  0  0  0
 42117  1  0  0  0
 43 44  1  0  0  0
 44118  1  0  0  0
 45 46  2  0  0  0
 45119  1  0  0  0
 46120  1  0  0  0
 47121  1  0  0  0
 47122  1  0  0  0
 48 56  1  0  0  0
 48 65  1  0  0  0
 48123  1  0  0  0
 49 50  1  0  0  0
 49 53  1  0  0  0
 49 64  1  0  0  0
 49124  1  0  0  0
 50 51  1  0  0  0
 50125  1  0  0  0
 50126  1  0  0  0
 51 52  1  0  0  0
 51127  1  0  0  0
 51128  1  0  0  0
 52129  1  0  0  0
 52130  1  0  0  0
 53 54  1  0  0  0
 54 55  2  0  0  0
 54131  1  0  0  0
 55 57  1  0  0  0
 55132  1  0  0  0
 56 69  2  0  0  0
 57 58  2  0  0  0
 57133  1  0  0  0
 58134  1  0  0  0
 59 60  1  0  0  0
 59 61  1  0  0  0
 59 62  1  0  0  0
 60135  1  0  0  0
 60136  1  0  0  0
 60137  1  0  0  0
 61138  1  0  0  0
 61139  1  0  0  0
 61140  1  0  0  0
 62141  1  0  0  0
 62142  1  0  0  0
 62143  1  0  0  0
 63 65  1  0  0  0
 63144  1  0  0  0
 63145  1  0  0  0
 63146  1  0  0  0
 64147  1  0  0  0
 65148  1  0  0  0
 68 86  1  0  0  0
 71 73  2  0  0  0
 71 75  1  0  0  0
 71149  1  0  0  0
 72 74  1  0  0  0
 72 75  2  0  0  0
 72150  1  0  0  0
 73 76  1  0  0  0
 73151  1  0  0  0
 74 76  2  0  0  0
 74152  1  0  0  0
 75 80  1  0  0  0
 76 89  1  0  0  0
 77 78  1  0  0  0
 77 81  1  0  0  0
 77153  1  0  0  0
 77154  1  0  0  0
 78 82  1  0  0  0
 78155  1  0  0  0
 78156  1  0  0  0
 79 80  1  0  0  0
 79 82  1  0  0  0
 79157  1  0  0  0
 79158  1  0  0  0
 80 81  1  0  0  0
 80159  1  0  0  0
 81 84  1  0  0  0
 81160  1  0  0  0
 82 87  1  0  0  0
 82161  1  0  0  0
 83 88  1  0  0  0
 83162  1  0  0  0
 83163  1  0  0  0
 83164  1  0  0  0
 84 88  1  0  0  0
 84165  1  0  0  0
 84166  1  0  0  0
 85 86  1  0  0  0
 85 89  1  0  0  0
 85167  1  0  0  0
 85168  1  0  0  0
 86169  1  0  0  0
 86170  1  0  0  0
 87171  1  0  0  0
 88172  1  0  0  0
 88173  1  0  0  0
M  CHG  1  88   1
M  ISO  4   1 100  68 101  86 101  87 100
M  END
> <chiral flag>
0

> <version>
0

> <s_m_source_file>
/data/baiqing/PycharmProjects/Reinvent-master-3.2/result/LINK_invent/BTK/process_docking_weight1_custom_sum_contain_oxygen_bond_distance_aromatic_linkinvent_7_9_3/rearranged_h_0139.sdf

> <i_m_source_file_index>
64

> <r_mmod_Potential_Energy-OPLS-2005>
-226.499649047852

> <r_mmod_Stretch_Energy-OPLS-2005>
35.0788497924805

> <r_mmod_Bend_Energy-OPLS-2005>
103.947402954102

> <r_mmod_Torsional_Energy-OPLS-2005>
221.09309387207

> <r_mmod_Improper_Torsional_Energy-OPLS-2005>
1.81506359577179

> <r_mmod_Van_der_Waal_Energy-OPLS-2005>
162.142318725586

> <r_mmod_Electrostatic_Energy-OPLS-2005>
-286.975463867188

> <r_mmod_Solvation_Energy-OPLS-2005>
-471.076690673828

> <b_mmod_Minimization_Converged-OPLS-2005>
0

> <r_mmod_RMS_Derivative-OPLS-2005>
0.623871147632599

$$$$
64
                    3D
 Structure written by MMmdl.
167176  0  0  1  0            999 V2000
  -30.6470  -14.6237   20.5197 C   0  0  0  0  0  0
  -30.4291  -12.3876   19.4542 C   0  0  0  0  0  0
  -29.5051  -12.4934   18.2229 C   0  0  0  0  0  0
  -28.0260  -12.3447   18.6328 C   0  0  0  0  0  0
  -27.6483  -13.2218   19.8572 C   0  0  2  0  0  0
  -28.6897  -13.0902   20.9883 C   0  0  0  0  0  0
  -25.2542  -13.8183   20.5695 C   0  0  0  0  0  0
  -24.1816  -13.0447   20.9201 C   0  0  0  0  0  0
  -24.6386  -11.6918   20.8730 C   0  0  0  0  0  0
  -23.9055  -10.4292   21.0398 C   0  0  0  0  0  0
  -24.3611   -9.4215   21.9182 C   0  0  0  0  0  0
  -23.6291   -8.2244   22.0754 C   0  0  0  0  0  0
  -22.4272   -8.0276   21.3544 C   0  0  0  0  0  0
  -21.9909   -9.0249   20.4645 C   0  0  0  0  0  0
  -22.7229  -10.2126   20.3054 C   0  0  0  0  0  0
  -21.6855   -6.0736   22.5275 C   0  0  0  0  0  0
  -21.4011   -6.5642   23.8210 C   0  0  0  0  0  0
  -21.3661   -5.6795   24.9174 C   0  0  0  0  0  0
  -21.6038   -4.3058   24.7216 C   0  0  0  0  0  0
  -21.8825   -3.8151   23.4341 C   0  0  0  0  0  0
  -21.9192   -4.6965   22.3398 C   0  0  0  0  0  0
  -22.7845  -13.5239   21.1854 C   0  0  0  0  0  0
  -22.1669   -4.2153   21.0977 F   0  0  0  0  0  0
  -21.5621   -3.4537   25.7732 F   0  0  0  0  0  0
  -30.0017  -13.4217   20.4180 N   0  0  0  0  0  0
  -26.2962  -12.9375   20.3286 N   0  0  0  0  0  0
  -25.9308  -11.6524   20.5737 N   0  0  0  0  0  0
  -22.0483  -12.8222   22.0401 N   0  0  0  0  0  0
  -25.4269  -15.1899   20.4130 N   0  0  0  0  0  0
  -31.8214  -14.7471   20.1636 O   0  0  0  0  0  0
  -21.6641   -6.8873   21.4240 O   0  0  0  0  0  0
  -22.3533  -14.5542   20.6701 O   0  0  0  0  0  0
  -24.6253  -31.8581   23.2008 C   0  0  0  0  0  0
  -25.9101  -32.4770   23.8348 C   0  0  1  0  0  0
  -27.2214  -27.3258   20.1256 C   0  0  0  0  0  0
  -25.5923  -33.8568   24.2282 N   0  0  0  0  0  0
  -23.4199  -30.4813   21.5407 C   0  0  2  0  0  0
  -24.8657  -28.9280   20.1187 C   0  0  0  0  0  0
  -22.7472  -29.4617   22.4908 C   0  0  0  0  0  0
  -18.0281  -28.1374   22.8488 C   0  0  0  0  0  0
  -24.1490  -36.7289   23.2639 C   0  0  0  0  0  0
  -25.9586  -30.7908   21.3700 C   0  0  0  0  0  0
  -26.0313  -29.4144   20.7239 C   0  0  0  0  0  0
  -27.2155  -28.6218   20.7199 C   0  0  0  0  0  0
  -26.0370  -26.8819   19.5063 C   0  0  0  0  0  0
  -24.8660  -27.6644   19.5052 C   0  0  0  0  0  0
  -23.6370  -29.8114   20.1581 C   0  0  0  0  0  0
  -25.4110  -36.3085   24.0342 C   0  0  1  0  0  0
  -20.5880  -28.3675   23.1273 C   0  0  2  0  0  0
  -20.6772  -26.9403   22.5400 C   0  0  0  0  0  0
  -19.5758  -26.6376   21.5201 C   0  0  0  0  0  0
  -18.1934  -26.7928   22.1613 C   0  0  0  0  0  0
  -19.1536  -28.8841   23.2882 C   0  0  0  0  0  0
  -18.9470  -30.1445   23.8902 C   0  0  0  0  0  0
  -17.6472  -30.6583   24.0559 C   0  0  0  0  0  0
  -25.9045  -34.9449   23.5114 C   0  0  0  0  0  0
  -16.5361  -29.9083   23.6328 C   0  0  0  0  0  0
  -16.7271  -28.6495   23.0349 C   0  0  0  0  0  0
  -26.4496  -31.6573   25.0713 C   0  0  0  0  0  0
  -25.3752  -31.3711   26.1458 C   0  0  0  0  0  0
  -27.0312  -30.3006   24.6128 C   0  0  0  0  0  0
  -27.6062  -32.4293   25.7480 C   0  0  0  0  0  0
  -27.5579  -37.1792   24.8470 C   0  0  0  0  0  0
  -21.4181  -29.3045   22.3674 N   0  0  0  0  0  0
  -26.4279  -37.3775   23.9427 N   0  0  0  0  0  0
  -24.6863  -31.0619   22.0933 N   0  0  0  0  0  0
  -23.4203  -28.8146   23.2975 O   0  0  0  0  0  0
  -28.3491  -26.5070   20.0541 O   0  0  0  0  0  0
  -26.5592  -34.8909   22.4672 O   0  0  0  0  0  0
  -23.5415  -32.1342   23.7351 O   0  0  0  0  0  0
  -26.5836  -18.3515   22.9185 C   0  0  0  0  0  0
  -26.0793  -19.6519   22.8731 C   0  0  0  0  0  0
  -27.7042  -18.0231   22.1485 C   0  0  0  0  0  0
  -28.9591  -23.0899   22.3791 C   0  0  0  0  0  0
  -26.6956  -20.6396   22.0817 C   0  0  0  0  0  0
  -28.3832  -18.9799   21.3597 C   0  0  0  0  0  0
  -28.3736  -23.9730   20.2139 C   0  0  0  0  0  0
  -28.6175  -22.8200   21.0424 C   0  0  0  0  0  0
  -27.9024  -20.3617   21.3515 C   0  0  0  0  0  0
  -29.0068  -24.4161   22.8447 C   0  0  0  0  0  0
  -28.4469  -25.3019   20.7729 C   0  0  0  0  0  0
  -25.9423  -21.9672   22.0199 C   0  0  0  0  0  0
  -27.9926  -23.7989   18.7540 C   0  0  0  0  0  0
  -29.3414  -24.7048   24.2909 C   0  0  0  0  0  0
  -29.5736  -18.4009   20.5388 C   0  0  0  0  0  0
  -30.3874  -17.1316   21.0885 C   0  0  0  0  0  0
  -28.7654  -25.4910   22.0691 N   0  0  0  0  0  0
  -28.5144  -21.4451   20.6371 N   0  0  0  0  0  0
  -29.8986  -15.7199   20.8636 N   0  0  0  0  0  0
  -31.4718  -12.5043   19.1538 H   0  0  0  0  0  0
  -30.3590  -11.3965   19.9072 H   0  0  0  0  0  0
  -29.7680  -11.7290   17.4897 H   0  0  0  0  0  0
  -29.6567  -13.4557   17.7312 H   0  0  0  0  0  0
  -27.8535  -11.2933   18.8645 H   0  0  0  0  0  0
  -27.3773  -12.5779   17.7872 H   0  0  0  0  0  0
  -27.6647  -14.2561   19.5117 H   0  0  0  0  0  0
  -28.6964  -12.0745   21.3872 H   0  0  0  0  0  0
  -28.4404  -13.7413   21.8276 H   0  0  0  0  0  0
  -25.2751   -9.5696   22.4760 H   0  0  0  0  0  0
  -23.9996   -7.4641   22.7471 H   0  0  0  0  0  0
  -21.0840   -8.8757   19.8951 H   0  0  0  0  0  0
  -22.3683  -10.9663   19.6157 H   0  0  0  0  0  0
  -21.2011   -7.6149   23.9714 H   0  0  0  0  0  0
  -21.1478   -6.0524   25.9073 H   0  0  0  0  0  0
  -22.0603   -2.7612   23.2834 H   0  0  0  0  0  0
  -22.4099  -11.9882   22.4790 H   0  0  0  0  0  0
  -21.1086  -13.1235   22.2588 H   0  0  0  0  0  0
  -24.6629  -15.8445   20.5366 H   0  0  0  0  0  0
  -26.2712  -15.6308   20.0729 H   0  0  0  0  0  0
  -26.7167  -32.5449   23.1091 H   0  0  0  0  0  0
  -25.0149  -33.9729   25.0473 H   0  0  0  0  0  0
  -22.7151  -31.3010   21.3900 H   0  0  0  0  0  0
  -23.3758  -35.9618   23.3296 H   0  0  0  0  0  0
  -24.3604  -36.8902   22.2056 H   0  0  0  0  0  0
  -23.7232  -37.6492   23.6652 H   0  0  0  0  0  0
  -26.0845  -31.5480   20.5951 H   0  0  0  0  0  0
  -26.8419  -30.8474   21.9938 H   0  0  0  0  0  0
  -28.1197  -28.9960   21.1779 H   0  0  0  0  0  0
  -26.0160  -25.9186   19.0206 H   0  0  0  0  0  0
  -23.9707  -27.2875   19.0300 H   0  0  0  0  0  0
  -23.7645  -30.5830   19.3978 H   0  0  0  0  0  0
  -22.7596  -29.2411   19.8511 H   0  0  0  0  0  0
  -25.1277  -36.1933   25.0837 H   0  0  0  0  0  0
  -20.9970  -28.3238   24.1390 H   0  0  0  0  0  0
  -20.5670  -26.2280   23.3592 H   0  0  0  0  0  0
  -21.6638  -26.7425   22.1203 H   0  0  0  0  0  0
  -19.6937  -25.6293   21.1221 H   0  0  0  0  0  0
  -19.6712  -27.3186   20.6742 H   0  0  0  0  0  0
  -17.4206  -26.6660   21.4016 H   0  0  0  0  0  0
  -18.0347  -26.0065   22.9011 H   0  0  0  0  0  0
  -19.7952  -30.7241   24.2268 H   0  0  0  0  0  0
  -17.5039  -31.6270   24.5155 H   0  0  0  0  0  0
  -15.5365  -30.2993   23.7655 H   0  0  0  0  0  0
  -15.8666  -28.0819   22.7052 H   0  0  0  0  0  0
  -24.5967  -30.6999   25.7825 H   0  0  0  0  0  0
  -24.8882  -32.2861   26.4848 H   0  0  0  0  0  0
  -25.8107  -30.8960   27.0260 H   0  0  0  0  0  0
  -26.2850  -29.6786   24.1170 H   0  0  0  0  0  0
  -27.4059  -29.7237   25.4591 H   0  0  0  0  0  0
  -27.8714  -30.4323   23.9305 H   0  0  0  0  0  0
  -27.2702  -33.3621   26.2025 H   0  0  0  0  0  0
  -28.3898  -32.6791   25.0315 H   0  0  0  0  0  0
  -28.0703  -31.8421   26.5419 H   0  0  0  0  0  0
  -28.2567  -38.0109   24.7514 H   0  0  0  0  0  0
  -28.1083  -36.2630   24.6265 H   0  0  0  0  0  0
  -27.2302  -37.1400   25.8872 H   0  0  0  0  0  0
  -20.9332  -29.8794   21.6919 H   0  0  0  0  0  0
  -26.0166  -38.2853   24.1441 H   0  0  0  0  0  0
  -26.0936  -17.5948   23.5166 H   0  0  0  0  0  0
  -25.1873  -19.8854   23.4358 H   0  0  0  0  0  0
  -28.0273  -16.9952   22.1781 H   0  0  0  0  0  0
  -29.1612  -22.2782   23.0635 H   0  0  0  0  0  0
  -24.8805  -21.8232   22.2238 H   0  0  0  0  0  0
  -25.9941  -22.4240   21.0321 H   0  0  0  0  0  0
  -26.3160  -22.6692   22.7641 H   0  0  0  0  0  0
  -28.3719  -22.8633   18.3436 H   0  0  0  0  0  0
  -28.3895  -24.6112   18.1437 H   0  0  0  0  0  0
  -26.9060  -23.7942   18.6630 H   0  0  0  0  0  0
  -29.0787  -23.8598   24.9275 H   0  0  0  0  0  0
  -28.7963  -25.5769   24.6518 H   0  0  0  0  0  0
  -30.4084  -24.8948   24.4030 H   0  0  0  0  0  0
  -30.2872  -19.2189   20.4334 H   0  0  0  0  0  0
  -29.2204  -18.1918   19.5300 H   0  0  0  0  0  0
  -30.5887  -17.2621   22.1543 H   0  0  0  0  0  0
  -31.3715  -17.1962   20.6210 H   0  0  0  0  0  0
  -28.8193  -21.2315   19.6931 H   0  0  0  0  0  0
  -28.9244  -15.5377   21.0479 H   0  0  0  0  0  0
  1 25  1  0  0  0
  1 30  2  0  0  0
  1 89  1  0  0  0
  2  3  1  0  0  0
  2 25  1  0  0  0
  2 90  1  0  0  0
  2 91  1  0  0  0
  3  4  1  0  0  0
  3 92  1  0  0  0
  3 93  1  0  0  0
  4  5  1  0  0  0
  4 94  1  0  0  0
  4 95  1  0  0  0
  5  6  1  0  0  0
  5 26  1  0  0  0
  5 96  1  0  0  0
  6 25  1  0  0  0
  6 97  1  0  0  0
  6 98  1  0  0  0
  7  8  2  0  0  0
  7 26  1  0  0  0
  7 29  1  0  0  0
  8  9  1  0  0  0
  8 22  1  0  0  0
  9 10  1  0  0  0
  9 27  2  0  0  0
 10 11  2  0  0  0
 10 15  1  0  0  0
 11 12  1  0  0  0
 11 99  1  0  0  0
 12 13  2  0  0  0
 12100  1  0  0  0
 13 14  1  0  0  0
 13 31  1  0  0  0
 14 15  2  0  0  0
 14101  1  0  0  0
 15102  1  0  0  0
 16 17  2  0  0  0
 16 21  1  0  0  0
 16 31  1  0  0  0
 17 18  1  0  0  0
 17103  1  0  0  0
 18 19  2  0  0  0
 18104  1  0  0  0
 19 20  1  0  0  0
 19 24  1  0  0  0
 20 21  2  0  0  0
 20105  1  0  0  0
 21 23  1  0  0  0
 22 28  1  0  0  0
 22 32  2  0  0  0
 26 27  1  0  0  0
 28106  1  0  0  0
 28107  1  0  0  0
 29108  1  0  0  0
 29109  1  0  0  0
 33 34  1  0  0  0
 33 66  1  0  0  0
 33 70  2  0  0  0
 34 36  1  0  0  0
 34 59  1  0  0  0
 34110  1  0  0  0
 35 44  2  0  0  0
 35 45  1  0  0  0
 35 68  1  0  0  0
 36 56  1  0  0  0
 36111  1  0  0  0
 37 39  1  0  0  0
 37 47  1  0  0  0
 37 66  1  0  0  0
 37112  1  0  0  0
 38 43  2  0  0  0
 38 46  1  0  0  0
 38 47  1  0  0  0
 39 64  1  0  0  0
 39 67  2  0  0  0
 40 52  1  0  0  0
 40 53  2  0  0  0
 40 58  1  0  0  0
 41113  1  0  0  0
 41114  1  0  0  0
 41115  1  0  0  0
 41 48  1  0  0  0
 42 43  1  0  0  0
 42 66  1  0  0  0
 42116  1  0  0  0
 42117  1  0  0  0
 43 44  1  0  0  0
 44118  1  0  0  0
 45 46  2  0  0  0
 45119  1  0  0  0
 46120  1  0  0  0
 47121  1  0  0  0
 47122  1  0  0  0
 48 56  1  0  0  0
 48 65  1  0  0  0
 48123  1  0  0  0
 49 50  1  0  0  0
 49 53  1  0  0  0
 49 64  1  0  0  0
 49124  1  0  0  0
 50 51  1  0  0  0
 50125  1  0  0  0
 50126  1  0  0  0
 51 52  1  0  0  0
 51127  1  0  0  0
 51128  1  0  0  0
 52129  1  0  0  0
 52130  1  0  0  0
 53 54  1  0  0  0
 54 55  2  0  0  0
 54131  1  0  0  0
 55 57  1  0  0  0
 55132  1  0  0  0
 56 69  2  0  0  0
 57 58  2  0  0  0
 57133  1  0  0  0
 58134  1  0  0  0
 59 60  1  0  0  0
 59 61  1  0  0  0
 59 62  1  0  0  0
 60135  1  0  0  0
 60136  1  0  0  0
 60137  1  0  0  0
 61138  1  0  0  0
 61139  1  0  0  0
 61140  1  0  0  0
 62141  1  0  0  0
 62142  1  0  0  0
 62143  1  0  0  0
 63 65  1  0  0  0
 63144  1  0  0  0
 63145  1  0  0  0
 63146  1  0  0  0
 64147  1  0  0  0
 65148  1  0  0  0
 68 81  1  0  0  0
 71 72  2  0  0  0
 71 73  1  0  0  0
 71149  1  0  0  0
 72 75  1  0  0  0
 72150  1  0  0  0
 73 76  2  0  0  0
 73151  1  0  0  0
 74 78  2  0  0  0
 74 80  1  0  0  0
 74152  1  0  0  0
 75 79  2  0  0  0
 75 82  1  0  0  0
 76 79  1  0  0  0
 76 85  1  0  0  0
 77 78  1  0  0  0
 77 81  2  0  0  0
 77 83  1  0  0  0
 78 88  1  0  0  0
 79 88  1  0  0  0
 80 84  1  0  0  0
 80 87  2  0  0  0
 81 87  1  0  0  0
 82153  1  0  0  0
 82154  1  0  0  0
 82155  1  0  0  0
 83156  1  0  0  0
 83157  1  0  0  0
 83158  1  0  0  0
 84159  1  0  0  0
 84160  1  0  0  0
 84161  1  0  0  0
 85 86  1  0  0  0
 85162  1  0  0  0
 85163  1  0  0  0
 86 89  1  0  0  0
 86164  1  0  0  0
 86165  1  0  0  0
 88166  1  0  0  0
 89167  1  0  0  0
M  ISO  4   1 100  68 101  81 101  89 100
M  END
> <chiral flag>
0

> <version>
0

> <s_m_source_file>
/data/baiqing/PycharmProjects/Reinvent-master-3.2/result/LINK_invent/BTK/process_docking_weight1_custom_sum_contain_oxygen_bond_distance_aromatic_linkinvent_7_9_3/rearranged_h_0139.sdf

> <i_m_source_file_index>
65

> <r_mmod_Potential_Energy-OPLS-2005>
-162.255752563477

> <r_mmod_Stretch_Energy-OPLS-2005>
82.1622619628906

> <r_mmod_Bend_Energy-OPLS-2005>
142.89714050293

> <r_mmod_Torsional_Energy-OPLS-2005>
256.533966064453

> <r_mmod_Improper_Torsional_Energy-OPLS-2005>
4.51237726211548

> <r_mmod_Van_der_Waal_Energy-OPLS-2005>
160.382888793945

> <r_mmod_Electrostatic_Energy-OPLS-2005>
-635.15185546875

> <r_mmod_Solvation_Energy-OPLS-2005>
-216.379577636719

> <b_mmod_Minimization_Converged-OPLS-2005>
0

> <r_mmod_RMS_Derivative-OPLS-2005>
2.63798475265503

$$$$
65
                    3D
 Structure written by MMmdl.
163172  0  0  1  0            999 V2000
  -30.5988  -14.8828   20.3554 C   0  0  0  0  0  0
  -30.4473  -12.5393   19.4719 C   0  0  0  0  0  0
  -29.5182  -12.4883   18.2388 C   0  0  0  0  0  0
  -28.0477  -12.3079   18.6653 C   0  0  0  0  0  0
  -27.6334  -13.2478   19.8307 C   0  0  2  0  0  0
  -28.6945  -13.2697   20.9543 C   0  0  0  0  0  0
  -25.2513  -13.8219   20.5756 C   0  0  0  0  0  0
  -24.1805  -13.0418   20.9259 C   0  0  0  0  0  0
  -24.6414  -11.6913   20.8748 C   0  0  0  0  0  0
  -23.9067  -10.4281   21.0423 C   0  0  0  0  0  0
  -24.3616   -9.4192   21.9180 C   0  0  0  0  0  0
  -23.6281   -8.2228   22.0728 C   0  0  0  0  0  0
  -22.4255   -8.0267   21.3539 C   0  0  0  0  0  0
  -21.9907   -9.0251   20.4652 C   0  0  0  0  0  0
  -22.7242  -10.2134   20.3078 C   0  0  0  0  0  0
  -21.6840   -6.0720   22.5261 C   0  0  0  0  0  0
  -21.4012   -6.5643   23.8186 C   0  0  0  0  0  0
  -21.3655   -5.6810   24.9162 C   0  0  0  0  0  0
  -21.6036   -4.3064   24.7231 C   0  0  0  0  0  0
  -21.8840   -3.8152   23.4361 C   0  0  0  0  0  0
  -21.9209   -4.6959   22.3413 C   0  0  0  0  0  0
  -22.7824  -13.5179   21.1891 C   0  0  0  0  0  0
  -22.1671   -4.2149   21.0986 F   0  0  0  0  0  0
  -21.5620   -3.4544   25.7743 F   0  0  0  0  0  0
  -29.9742  -13.6441   20.3375 N   0  0  0  0  0  0
  -26.2939  -12.9437   20.3286 N   0  0  0  0  0  0
  -25.9348  -11.6570   20.5753 N   0  0  0  0  0  0
  -22.0475  -12.8139   22.0454 N   0  0  0  0  0  0
  -25.4146  -15.1926   20.4170 N   0  0  0  0  0  0
  -31.8150  -14.9298   20.1661 O   0  0  0  0  0  0
  -21.6628   -6.8855   21.4211 O   0  0  0  0  0  0
  -22.3505  -14.5459   20.6719 O   0  0  0  0  0  0
  -24.6389  -31.8534   23.1953 C   0  0  0  0  0  0
  -25.9187  -32.4746   23.8313 C   0  0  1  0  0  0
  -27.1924  -27.1980   20.0961 C   0  0  0  0  0  0
  -25.5984  -33.8549   24.2227 N   0  0  0  0  0  0
  -23.4364  -30.4801   21.5456 C   0  0  2  0  0  0
  -24.8747  -28.9319   20.1092 C   0  0  0  0  0  0
  -22.7549  -29.4582   22.4878 C   0  0  0  0  0  0
  -18.0303  -28.1392   22.8480 C   0  0  0  0  0  0
  -24.1518  -36.7282   23.2641 C   0  0  0  0  0  0
  -25.9949  -30.7409   21.3890 C   0  0  0  0  0  0
  -26.0588  -29.3621   20.7230 C   0  0  0  0  0  0
  -27.2208  -28.5084   20.7077 C   0  0  0  0  0  0
  -25.9808  -26.8775   19.4403 C   0  0  0  0  0  0
  -24.8432  -27.6954   19.4599 C   0  0  0  0  0  0
  -23.6528  -29.8265   20.1600 C   0  0  0  0  0  0
  -25.4143  -36.3055   24.0306 C   0  0  1  0  0  0
  -20.5929  -28.3710   23.1237 C   0  0  2  0  0  0
  -20.6799  -26.9429   22.5387 C   0  0  0  0  0  0
  -19.5765  -26.6385   21.5203 C   0  0  0  0  0  0
  -18.1947  -26.7932   22.1621 C   0  0  0  0  0  0
  -19.1563  -28.8866   23.2852 C   0  0  0  0  0  0
  -18.9468  -30.1468   23.8884 C   0  0  0  0  0  0
  -17.6459  -30.6584   24.0561 C   0  0  0  0  0  0
  -25.9088  -34.9433   23.5073 C   0  0  0  0  0  0
  -16.5353  -29.9075   23.6334 C   0  0  0  0  0  0
  -16.7283  -28.6491   23.0354 C   0  0  0  0  0  0
  -26.4513  -31.6570   25.0725 C   0  0  0  0  0  0
  -25.3692  -31.3740   26.1402 C   0  0  0  0  0  0
  -27.0378  -30.2976   24.6268 C   0  0  0  0  0  0
  -27.6069  -32.4303   25.7503 C   0  0  0  0  0  0
  -27.5574  -37.1824   24.8463 C   0  0  0  0  0  0
  -21.4257  -29.3037   22.3618 N   0  0  0  0  0  0
  -26.4327  -37.3730   23.9367 N   0  0  0  0  0  0
  -24.7105  -31.0418   22.0994 N   0  0  0  0  0  0
  -23.4209  -28.8090   23.2986 O   0  0  0  0  0  0
  -28.2386  -26.2187   20.0960 O   0  0  0  0  0  0
  -26.5659  -34.8910   22.4642 O   0  0  0  0  0  0
  -23.5511  -32.1398   23.7183 O   0  0  0  0  0  0
  -29.1505  -21.1592   21.2056 C   0  0  0  0  0  0
  -28.8800  -22.5689   21.2252 C   0  0  0  0  0  0
  -29.1650  -21.1973   18.8355 C   0  0  0  0  0  0
  -28.8058  -22.6240   18.8397 C   0  0  0  0  0  0
  -29.2396  -20.3783   20.0216 C   0  0  0  0  0  0
  -28.6221  -23.3708   20.0728 C   0  0  0  0  0  0
  -29.4096  -20.4891   17.4981 C   0  0  0  0  0  0
  -29.8782  -21.3823   16.3201 C   0  0  0  0  0  0
  -29.8276  -22.8926   16.5941 C   0  0  0  0  0  0
  -28.5925  -23.2267   17.4362 C   0  0  2  0  0  0
  -28.1994  -24.7074   17.2767 C   0  0  0  0  0  0
  -29.0862  -18.7464   20.0746 C   0  0  0  0  0  0
  -27.8118  -24.7617   20.3024 C   0  0  0  0  0  0
  -30.2380  -17.5594   20.0638 C   0  0  0  0  0  0
  -29.8384  -16.0657   20.3232 N   0  0  0  0  0  0
  -31.4820  -12.6805   19.1483 H   0  0  0  0  0  0
  -30.4368  -11.5960   20.0203 H   0  0  0  0  0  0
  -29.8111  -11.6615   17.5923 H   0  0  0  0  0  0
  -29.6340  -13.4017   17.6513 H   0  0  0  0  0  0
  -27.9326  -11.2683   18.9757 H   0  0  0  0  0  0
  -27.3856  -12.4434   17.8091 H   0  0  0  0  0  0
  -27.5879  -14.2507   19.4012 H   0  0  0  0  0  0
  -28.7719  -12.3044   21.4564 H   0  0  0  0  0  0
  -28.4179  -13.9899   21.7233 H   0  0  0  0  0  0
  -25.2779   -9.5648   22.4743 H   0  0  0  0  0  0
  -24.0009   -7.4627   22.7430 H   0  0  0  0  0  0
  -21.0831   -8.8788   19.8946 H   0  0  0  0  0  0
  -22.3716  -10.9679   19.6206 H   0  0  0  0  0  0
  -21.1970   -7.6163   23.9683 H   0  0  0  0  0  0
  -21.1436   -6.0539   25.9062 H   0  0  0  0  0  0
  -22.0611   -2.7615   23.2860 H   0  0  0  0  0  0
  -22.4137  -11.9878   22.4941 H   0  0  0  0  0  0
  -21.1074  -13.1097   22.2570 H   0  0  0  0  0  0
  -24.6388  -15.8347   20.5363 H   0  0  0  0  0  0
  -26.2444  -15.6434   20.0541 H   0  0  0  0  0  0
  -26.7291  -32.5346   23.1071 H   0  0  0  0  0  0
  -25.0119  -33.9662   25.0361 H   0  0  0  0  0  0
  -22.7365  -31.3061   21.4019 H   0  0  0  0  0  0
  -23.3753  -35.9647   23.3332 H   0  0  0  0  0  0
  -24.3583  -36.8879   22.2052 H   0  0  0  0  0  0
  -23.7324  -37.6517   23.6644 H   0  0  0  0  0  0
  -26.1484  -31.5016   20.6202 H   0  0  0  0  0  0
  -26.8705  -30.7829   22.0260 H   0  0  0  0  0  0
  -28.1239  -28.8228   21.2092 H   0  0  0  0  0  0
  -25.8531  -25.9651   18.8888 H   0  0  0  0  0  0
  -23.9390  -27.3614   18.9648 H   0  0  0  0  0  0
  -23.7840  -30.6107   19.4141 H   0  0  0  0  0  0
  -22.7678  -29.2700   19.8415 H   0  0  0  0  0  0
  -25.1337  -36.1935   25.0804 H   0  0  0  0  0  0
  -21.0012  -28.3318   24.1351 H   0  0  0  0  0  0
  -20.5724  -26.2328   23.3595 H   0  0  0  0  0  0
  -21.6665  -26.7449   22.1176 H   0  0  0  0  0  0
  -19.6951  -25.6290   21.1240 H   0  0  0  0  0  0
  -19.6732  -27.3189   20.6737 H   0  0  0  0  0  0
  -17.4225  -26.6676   21.4017 H   0  0  0  0  0  0
  -18.0363  -26.0073   22.9027 H   0  0  0  0  0  0
  -19.7935  -30.7300   24.2246 H   0  0  0  0  0  0
  -17.4994  -31.6256   24.5178 H   0  0  0  0  0  0
  -15.5345  -30.2969   23.7637 H   0  0  0  0  0  0
  -15.8686  -28.0782   22.7084 H   0  0  0  0  0  0
  -24.5891  -30.7081   25.7668 H   0  0  0  0  0  0
  -24.8851  -32.2931   26.4738 H   0  0  0  0  0  0
  -25.7947  -30.8954   27.0238 H   0  0  0  0  0  0
  -26.2997  -29.6711   24.1258 H   0  0  0  0  0  0
  -27.4001  -29.7234   25.4802 H   0  0  0  0  0  0
  -27.8894  -30.4188   23.9571 H   0  0  0  0  0  0
  -27.2687  -33.3607   26.2062 H   0  0  0  0  0  0
  -28.3899  -32.6865   25.0351 H   0  0  0  0  0  0
  -28.0743  -31.8466   26.5443 H   0  0  0  0  0  0
  -28.2640  -38.0068   24.7417 H   0  0  0  0  0  0
  -28.1048  -36.2600   24.6450 H   0  0  0  0  0  0
  -27.2267  -37.1644   25.8861 H   0  0  0  0  0  0
  -20.9456  -29.8775   21.6836 H   0  0  0  0  0  0
  -26.0223  -38.2836   24.1271 H   0  0  0  0  0  0
  -29.1960  -20.6423   22.1528 H   0  0  0  0  0  0
  -28.7276  -23.0279   22.1936 H   0  0  0  0  0  0
  -28.4843  -19.9822   17.2190 H   0  0  0  0  0  0
  -30.1452  -19.6967   17.6467 H   0  0  0  0  0  0
  -29.2493  -21.1518   15.4568 H   0  0  0  0  0  0
  -30.8942  -21.1215   16.0168 H   0  0  0  0  0  0
  -29.8129  -23.4277   15.6429 H   0  0  0  0  0  0
  -30.7284  -23.2161   17.1232 H   0  0  0  0  0  0
  -27.7490  -22.6785   17.0061 H   0  0  0  0  0  0
  -28.8700  -25.3913   17.7924 H   0  0  0  0  0  0
  -27.1734  -24.8812   17.5927 H   0  0  0  0  0  0
  -28.2244  -24.9934   16.2230 H   0  0  0  0  0  0
  -28.4726  -18.5539   20.9557 H   0  0  0  0  0  0
  -28.4181  -18.5126   19.2435 H   0  0  0  0  0  0
  -27.5506  -24.7508   21.3601 H   0  0  0  0  0  0
  -26.8601  -24.5339   19.8356 H   0  0  0  0  0  0
  -31.0163  -17.8247   20.7797 H   0  0  0  0  0  0
  -30.7325  -17.5933   19.0873 H   0  0  0  0  0  0
  -28.8416  -15.9094   20.3762 H   0  0  0  0  0  0
  1 25  1  0  0  0
  1 30  2  0  0  0
  1 85  1  0  0  0
  2  3  1  0  0  0
  2 25  1  0  0  0
  2 86  1  0  0  0
  2 87  1  0  0  0
  3  4  1  0  0  0
  3 88  1  0  0  0
  3 89  1  0  0  0
  4  5  1  0  0  0
  4 90  1  0  0  0
  4 91  1  0  0  0
  5  6  1  0  0  0
  5 26  1  0  0  0
  5 92  1  0  0  0
  6 25  1  0  0  0
  6 93  1  0  0  0
  6 94  1  0  0  0
  7  8  2  0  0  0
  7 26  1  0  0  0
  7 29  1  0  0  0
  8  9  1  0  0  0
  8 22  1  0  0  0
  9 10  1  0  0  0
  9 27  2  0  0  0
 10 11  2  0  0  0
 10 15  1  0  0  0
 11 12  1  0  0  0
 11 95  1  0  0  0
 12 13  2  0  0  0
 12 96  1  0  0  0
 13 14  1  0  0  0
 13 31  1  0  0  0
 14 15  2  0  0  0
 14 97  1  0  0  0
 15 98  1  0  0  0
 16 17  2  0  0  0
 16 21  1  0  0  0
 16 31  1  0  0  0
 17 18  1  0  0  0
 17 99  1  0  0  0
 18 19  2  0  0  0
 18100  1  0  0  0
 19 20  1  0  0  0
 19 24  1  0  0  0
 20 21  2  0  0  0
 20101  1  0  0  0
 21 23  1  0  0  0
 22 28  1  0  0  0
 22 32  2  0  0  0
 26 27  1  0  0  0
 28102  1  0  0  0
 28103  1  0  0  0
 29104  1  0  0  0
 29105  1  0  0  0
 33 34  1  0  0  0
 33 66  1  0  0  0
 33 70  2  0  0  0
 34 36  1  0  0  0
 34 59  1  0  0  0
 34106  1  0  0  0
 35 44  2  0  0  0
 35 45  1  0  0  0
 35 68  1  0  0  0
 36 56  1  0  0  0
 36107  1  0  0  0
 37 39  1  0  0  0
 37 47  1  0  0  0
 37 66  1  0  0  0
 37108  1  0  0  0
 38 43  2  0  0  0
 38 46  1  0  0  0
 38 47  1  0  0  0
 39 64  1  0  0  0
 39 67  2  0  0  0
 40 52  1  0  0  0
 40 53  2  0  0  0
 40 58  1  0  0  0
 41109  1  0  0  0
 41110  1  0  0  0
 41111  1  0  0  0
 41 48  1  0  0  0
 42 43  1  0  0  0
 42 66  1  0  0  0
 42112  1  0  0  0
 42113  1  0  0  0
 43 44  1  0  0  0
 44114  1  0  0  0
 45 46  2  0  0  0
 45115  1  0  0  0
 46116  1  0  0  0
 47117  1  0  0  0
 47118  1  0  0  0
 48 56  1  0  0  0
 48 65  1  0  0  0
 48119  1  0  0  0
 49 50  1  0  0  0
 49 53  1  0  0  0
 49 64  1  0  0  0
 49120  1  0  0  0
 50 51  1  0  0  0
 50121  1  0  0  0
 50122  1  0  0  0
 51 52  1  0  0  0
 51123  1  0  0  0
 51124  1  0  0  0
 52125  1  0  0  0
 52126  1  0  0  0
 53 54  1  0  0  0
 54 55  2  0  0  0
 54127  1  0  0  0
 55 57  1  0  0  0
 55128  1  0  0  0
 56 69  2  0  0  0
 57 58  2  0  0  0
 57129  1  0  0  0
 58130  1  0  0  0
 59 60  1  0  0  0
 59 61  1  0  0  0
 59 62  1  0  0  0
 60131  1  0  0  0
 60132  1  0  0  0
 60133  1  0  0  0
 61134  1  0  0  0
 61135  1  0  0  0
 61136  1  0  0  0
 62137  1  0  0  0
 62138  1  0  0  0
 62139  1  0  0  0
 63 65  1  0  0  0
 63140  1  0  0  0
 63141  1  0  0  0
 63142  1  0  0  0
 64143  1  0  0  0
 65144  1  0  0  0
 68 83  1  0  0  0
 71 72  2  0  0  0
 71 75  1  0  0  0
 71145  1  0  0  0
 72 76  1  0  0  0
 72146  1  0  0  0
 73 74  1  0  0  0
 73 75  2  0  0  0
 73 77  1  0  0  0
 74 76  2  0  0  0
 74 80  1  0  0  0
 75 82  1  0  0  0
 76 83  1  0  0  0
 77 78  1  0  0  0
 77147  1  0  0  0
 77148  1  0  0  0
 78 79  1  0  0  0
 78149  1  0  0  0
 78150  1  0  0  0
 79 80  1  0  0  0
 79151  1  0  0  0
 79152  1  0  0  0
 80 81  1  0  0  0
 80153  1  0  0  0
 81154  1  0  0  0
 81155  1  0  0  0
 81156  1  0  0  0
 82 84  1  0  0  0
 82157  1  0  0  0
 82158  1  0  0  0
 83159  1  0  0  0
 83160  1  0  0  0
 84 85  1  0  0  0
 84161  1  0  0  0
 84162  1  0  0  0
 85163  1  0  0  0
M  ISO  4   1 100  68 101  83 101  85 100
M  END
> <chiral flag>
0

> <version>
0

> <s_m_source_file>
/data/baiqing/PycharmProjects/Reinvent-master-3.2/result/LINK_invent/BTK/process_docking_weight1_custom_sum_contain_oxygen_bond_distance_aromatic_linkinvent_7_9_3/rearranged_h_0139.sdf

> <i_m_source_file_index>
66

> <r_mmod_Potential_Energy-OPLS-2005>
456.93212890625

> <r_mmod_Stretch_Energy-OPLS-2005>
187.839645385742

> <r_mmod_Bend_Energy-OPLS-2005>
256.360443115234

> <r_mmod_Torsional_Energy-OPLS-2005>
279.123596191406

> <r_mmod_Improper_Torsional_Energy-OPLS-2005>
12.2427377700806

> <r_mmod_Van_der_Waal_Energy-OPLS-2005>
152.411926269531

> <r_mmod_Electrostatic_Energy-OPLS-2005>
-373.542785644531

> <r_mmod_Solvation_Energy-OPLS-2005>
-210.870819091797

> <b_mmod_Minimization_Converged-OPLS-2005>
0

> <r_mmod_RMS_Derivative-OPLS-2005>
5.84555864334106

$$$$
66
                    3D
 Structure written by MMmdl.
169178  0  0  1  0            999 V2000
  -30.7503  -14.4184   20.4983 C   0  0  0  0  0  0
  -30.4187  -12.2605   19.3992 C   0  0  0  0  0  0
  -29.4944  -12.5017   18.1913 C   0  0  0  0  0  0
  -28.0169  -12.3743   18.6091 C   0  0  0  0  0  0
  -27.6661  -13.2087   19.8729 C   0  0  2  0  0  0
  -28.7188  -12.9931   20.9844 C   0  0  0  0  0  0
  -25.2642  -13.8113   20.5706 C   0  0  0  0  0  0
  -24.1891  -13.0440   20.9157 C   0  0  0  0  0  0
  -24.6449  -11.6892   20.8741 C   0  0  0  0  0  0
  -23.9081  -10.4280   21.0397 C   0  0  0  0  0  0
  -24.3621   -9.4189   21.9196 C   0  0  0  0  0  0
  -23.6281   -8.2243   22.0763 C   0  0  0  0  0  0
  -22.4265   -8.0277   21.3568 C   0  0  0  0  0  0
  -21.9916   -9.0238   20.4674 C   0  0  0  0  0  0
  -22.7229  -10.2119   20.3064 C   0  0  0  0  0  0
  -21.6857   -6.0737   22.5270 C   0  0  0  0  0  0
  -21.4008   -6.5653   23.8195 C   0  0  0  0  0  0
  -21.3639   -5.6811   24.9161 C   0  0  0  0  0  0
  -21.6032   -4.3070   24.7213 C   0  0  0  0  0  0
  -21.8819   -3.8167   23.4339 C   0  0  0  0  0  0
  -21.9209   -4.6978   22.3401 C   0  0  0  0  0  0
  -22.7905  -13.5227   21.1829 C   0  0  0  0  0  0
  -22.1685   -4.2183   21.0977 F   0  0  0  0  0  0
  -21.5619   -3.4540   25.7721 F   0  0  0  0  0  0
  -30.0557  -13.2558   20.4077 N   0  0  0  0  0  0
  -26.3082  -12.9324   20.3371 N   0  0  0  0  0  0
  -25.9397  -11.6489   20.5744 N   0  0  0  0  0  0
  -22.0540  -12.8229   22.0355 N   0  0  0  0  0  0
  -25.4399  -15.1821   20.4147 N   0  0  0  0  0  0
  -31.9238  -14.5766   20.1391 O   0  0  0  0  0  0
  -21.6634   -6.8881   21.4236 O   0  0  0  0  0  0
  -22.3629  -14.5567   20.6669 O   0  0  0  0  0  0
  -24.6114  -31.8703   23.2084 C   0  0  0  0  0  0
  -25.9005  -32.4819   23.8382 C   0  0  1  0  0  0
  -27.2539  -27.4669   20.0863 C   0  0  0  0  0  0
  -25.5875  -33.8626   24.2324 N   0  0  0  0  0  0
  -23.4006  -30.4902   21.5493 C   0  0  2  0  0  0
  -24.8511  -28.9529   20.1190 C   0  0  0  0  0  0
  -22.7385  -29.4672   22.5007 C   0  0  0  0  0  0
  -18.0243  -28.1369   22.8536 C   0  0  0  0  0  0
  -24.1494  -36.7334   23.2633 C   0  0  0  0  0  0
  -25.9270  -30.8397   21.3605 C   0  0  0  0  0  0
  -26.0089  -29.4735   20.7110 C   0  0  0  0  0  0
  -27.2098  -28.7378   20.6957 C   0  0  0  0  0  0
  -26.0835  -26.9459   19.4949 C   0  0  0  0  0  0
  -24.8777  -27.6843   19.5102 C   0  0  0  0  0  0
  -23.6087  -29.8146   20.1661 C   0  0  0  0  0  0
  -25.4108  -36.3116   24.0332 C   0  0  1  0  0  0
  -20.5830  -28.3679   23.1270 C   0  0  2  0  0  0
  -20.6758  -26.9438   22.5331 C   0  0  0  0  0  0
  -19.5675  -26.6352   21.5207 C   0  0  0  0  0  0
  -18.1883  -26.7896   22.1699 C   0  0  0  0  0  0
  -19.1495  -28.8834   23.2887 C   0  0  0  0  0  0
  -18.9442  -30.1487   23.8834 C   0  0  0  0  0  0
  -17.6476  -30.6648   24.0497 C   0  0  0  0  0  0
  -25.9026  -34.9468   23.5134 C   0  0  0  0  0  0
  -16.5337  -29.9117   23.6354 C   0  0  0  0  0  0
  -16.7214  -28.6520   23.0415 C   0  0  0  0  0  0
  -26.4440  -31.6598   25.0711 C   0  0  0  0  0  0
  -25.3714  -31.3704   26.1463 C   0  0  0  0  0  0
  -27.0261  -30.3040   24.6080 C   0  0  0  0  0  0
  -27.6016  -32.4303   25.7485 C   0  0  0  0  0  0
  -27.5585  -37.1823   24.8452 C   0  0  0  0  0  0
  -21.4110  -29.3059   22.3700 N   0  0  0  0  0  0
  -26.4310  -37.3796   23.9391 N   0  0  0  0  0  0
  -24.6649  -31.0797   22.0982 N   0  0  0  0  0  0
  -23.4137  -28.8238   23.3064 O   0  0  0  0  0  0
  -28.4308  -26.7601   20.0418 O   0  0  0  0  0  0
  -26.5605  -34.8932   22.4698 O   0  0  0  0  0  0
  -23.5298  -32.1434   23.7505 O   0  0  0  0  0  0
  -29.9957  -19.9935   20.4820 C   0  0  0  0  0  0
  -29.8182  -21.4014   20.4102 C   0  0  0  0  0  0
  -27.4851  -21.1269   21.0090 C   0  0  0  0  0  0
  -28.9202  -19.1605   20.8695 C   0  0  0  0  0  0
  -27.6655  -19.7401   21.1669 C   0  0  0  0  0  0
  -28.5505  -21.9695   20.6894 C   0  0  0  0  0  0
  -23.8078  -18.9429   20.3506 C   0  0  0  0  0  0
  -22.9740  -19.3785   21.5284 C   0  0  0  0  0  0
  -24.3872  -19.8866   21.3757 C   0  0  0  0  0  0
  -25.7505  -20.3999   23.4799 C   0  0  0  0  0  0
  -29.0162  -17.6337   20.9315 C   0  0  0  0  0  0
  -30.3332  -16.8857   20.7512 C   0  0  0  0  0  0
  -28.4743  -25.6280   20.9154 C   0  0  0  0  0  0
  -29.0110  -24.3502   20.2219 C   0  0  0  0  0  0
  -25.4544  -19.4008   22.3409 C   0  0  2  0  0  0
  -26.6338  -18.9093   21.6391 N   0  0  0  0  0  0
  -29.9879  -15.4631   20.7933 N   0  0  0  0  0  0
  -28.2093  -23.2988   20.7369 O   0  0  0  0  0  0
  -31.4675  -12.3223   19.1020 H   0  0  0  0  0  0
  -30.2900  -11.2486   19.7929 H   0  0  0  0  0  0
  -29.7146  -11.7921   17.3989 H   0  0  0  0  0  0
  -29.6752  -13.4893   17.7731 H   0  0  0  0  0  0
  -27.8175  -11.3215   18.7933 H   0  0  0  0  0  0
  -27.3637  -12.6637   17.7835 H   0  0  0  0  0  0
  -27.7062  -14.2518   19.5678 H   0  0  0  0  0  0
  -28.6805  -11.9620   21.3576 H   0  0  0  0  0  0
  -28.5136  -13.6322   21.8458 H   0  0  0  0  0  0
  -25.2755   -9.5669   22.4771 H   0  0  0  0  0  0
  -23.9998   -7.4631   22.7473 H   0  0  0  0  0  0
  -21.0859   -8.8749   19.8966 H   0  0  0  0  0  0
  -22.3683  -10.9668   19.6197 H   0  0  0  0  0  0
  -21.1991   -7.6164   23.9701 H   0  0  0  0  0  0
  -21.1460   -6.0550   25.9069 H   0  0  0  0  0  0
  -22.0623   -2.7632   23.2822 H   0  0  0  0  0  0
  -22.4178  -11.9891   22.4722 H   0  0  0  0  0  0
  -21.1184  -13.1273   22.2586 H   0  0  0  0  0  0
  -24.6664  -15.8273   20.5145 H   0  0  0  0  0  0
  -26.2756  -15.6159   20.0534 H   0  0  0  0  0  0
  -26.7092  -32.5542   23.1170 H   0  0  0  0  0  0
  -25.0023  -33.9787   25.0463 H   0  0  0  0  0  0
  -22.6904  -31.3061   21.4046 H   0  0  0  0  0  0
  -23.3738  -35.9688   23.3318 H   0  0  0  0  0  0
  -24.3586  -36.8927   22.2040 H   0  0  0  0  0  0
  -23.7268  -37.6564   23.6632 H   0  0  0  0  0  0
  -26.0360  -31.6022   20.5869 H   0  0  0  0  0  0
  -26.8169  -30.8956   21.9779 H   0  0  0  0  0  0
  -28.1090  -29.1365   21.1486 H   0  0  0  0  0  0
  -26.1012  -25.9773   19.0196 H   0  0  0  0  0  0
  -23.9919  -27.2745   19.0496 H   0  0  0  0  0  0
  -23.7157  -30.5859   19.4019 H   0  0  0  0  0  0
  -22.7359  -29.2277   19.8739 H   0  0  0  0  0  0
  -25.1285  -36.2006   25.0832 H   0  0  0  0  0  0
  -20.9947  -28.3201   24.1388 H   0  0  0  0  0  0
  -21.6594  -26.7559   22.1003 H   0  0  0  0  0  0
  -20.5812  -26.2260   23.3498 H   0  0  0  0  0  0
  -19.6826  -25.6236   21.1278 H   0  0  0  0  0  0
  -19.6529  -27.3125   20.6690 H   0  0  0  0  0  0
  -17.4110  -26.6578   21.4163 H   0  0  0  0  0  0
  -18.0391  -26.0024   22.9100 H   0  0  0  0  0  0
  -19.7945  -30.7330   24.2114 H   0  0  0  0  0  0
  -17.5039  -31.6387   24.4971 H   0  0  0  0  0  0
  -15.5351  -30.3054   23.7685 H   0  0  0  0  0  0
  -15.8603  -28.0869   22.7136 H   0  0  0  0  0  0
  -24.5869  -30.7075   25.7798 H   0  0  0  0  0  0
  -24.8923  -32.2866   26.4930 H   0  0  0  0  0  0
  -25.8048  -30.8848   27.0220 H   0  0  0  0  0  0
  -26.2819  -29.6849   24.1059 H   0  0  0  0  0  0
  -27.3956  -29.7214   25.4534 H   0  0  0  0  0  0
  -27.8682  -30.4358   23.9279 H   0  0  0  0  0  0
  -27.2625  -33.3575   26.2134 H   0  0  0  0  0  0
  -28.3800  -32.6924   25.0299 H   0  0  0  0  0  0
  -28.0736  -31.8391   26.5357 H   0  0  0  0  0  0
  -28.2605  -38.0128   24.7503 H   0  0  0  0  0  0
  -28.1090  -36.2645   24.6278 H   0  0  0  0  0  0
  -27.2300  -37.1477   25.8865 H   0  0  0  0  0  0
  -20.9267  -29.8765   21.6898 H   0  0  0  0  0  0
  -26.0197  -38.2889   24.1386 H   0  0  0  0  0  0
  -30.9518  -19.5446   20.2434 H   0  0  0  0  0  0
  -30.6574  -22.0147   20.1355 H   0  0  0  0  0  0
  -26.5183  -21.5937   21.1430 H   0  0  0  0  0  0
  -23.5828  -19.3598   19.3699 H   0  0  0  0  0  0
  -24.1955  -17.9249   20.3488 H   0  0  0  0  0  0
  -22.7825  -18.6217   22.2872 H   0  0  0  0  0  0
  -22.1553  -20.0690   21.3365 H   0  0  0  0  0  0
  -24.4830  -20.9231   21.0520 H   0  0  0  0  0  0
  -24.8765  -20.5164   24.1175 H   0  0  0  0  0  0
  -25.9979  -21.4053   23.1428 H   0  0  0  0  0  0
  -26.5735  -20.0614   24.1082 H   0  0  0  0  0  0
  -28.6415  -17.3292   21.9077 H   0  0  0  0  0  0
  -28.3200  -17.2832   20.1725 H   0  0  0  0  0  0
  -30.7908  -17.1830   19.8093 H   0  0  0  0  0  0
  -31.0285  -17.1133   21.5661 H   0  0  0  0  0  0
  -29.0820  -25.8653   21.7905 H   0  0  0  0  0  0
  -27.4768  -25.4219   21.3123 H   0  0  0  0  0  0
  -30.0818  -24.2434   20.3892 H   0  0  0  0  0  0
  -28.8423  -24.4120   19.1455 H   0  0  0  0  0  0
  -25.0643  -18.4995   22.8164 H   0  0  0  0  0  0
  -26.8765  -17.9357   21.8121 H   0  0  0  0  0  0
  -29.0278  -15.2184   20.9983 H   0  0  0  0  0  0
  1 25  1  0  0  0
  1 30  2  0  0  0
  1 87  1  0  0  0
  2  3  1  0  0  0
  2 25  1  0  0  0
  2 89  1  0  0  0
  2 90  1  0  0  0
  3  4  1  0  0  0
  3 91  1  0  0  0
  3 92  1  0  0  0
  4  5  1  0  0  0
  4 93  1  0  0  0
  4 94  1  0  0  0
  5  6  1  0  0  0
  5 26  1  0  0  0
  5 95  1  0  0  0
  6 25  1  0  0  0
  6 96  1  0  0  0
  6 97  1  0  0  0
  7  8  2  0  0  0
  7 26  1  0  0  0
  7 29  1  0  0  0
  8  9  1  0  0  0
  8 22  1  0  0  0
  9 10  1  0  0  0
  9 27  2  0  0  0
 10 11  2  0  0  0
 10 15  1  0  0  0
 11 12  1  0  0  0
 11 98  1  0  0  0
 12 13  2  0  0  0
 12 99  1  0  0  0
 13 14  1  0  0  0
 13 31  1  0  0  0
 14 15  2  0  0  0
 14100  1  0  0  0
 15101  1  0  0  0
 16 17  2  0  0  0
 16 21  1  0  0  0
 16 31  1  0  0  0
 17 18  1  0  0  0
 17102  1  0  0  0
 18 19  2  0  0  0
 18103  1  0  0  0
 19 20  1  0  0  0
 19 24  1  0  0  0
 20 21  2  0  0  0
 20104  1  0  0  0
 21 23  1  0  0  0
 22 28  1  0  0  0
 22 32  2  0  0  0
 26 27  1  0  0  0
 28105  1  0  0  0
 28106  1  0  0  0
 29107  1  0  0  0
 29108  1  0  0  0
 33 34  1  0  0  0
 33 66  1  0  0  0
 33 70  2  0  0  0
 34 36  1  0  0  0
 34 59  1  0  0  0
 34109  1  0  0  0
 35 44  2  0  0  0
 35 45  1  0  0  0
 35 68  1  0  0  0
 36 56  1  0  0  0
 36110  1  0  0  0
 37 39  1  0  0  0
 37 47  1  0  0  0
 37 66  1  0  0  0
 37111  1  0  0  0
 38 43  2  0  0  0
 38 46  1  0  0  0
 38 47  1  0  0  0
 39 64  1  0  0  0
 39 67  2  0  0  0
 40 52  1  0  0  0
 40 53  2  0  0  0
 40 58  1  0  0  0
 41112  1  0  0  0
 41113  1  0  0  0
 41114  1  0  0  0
 41 48  1  0  0  0
 42 43  1  0  0  0
 42 66  1  0  0  0
 42115  1  0  0  0
 42116  1  0  0  0
 43 44  1  0  0  0
 44117  1  0  0  0
 45 46  2  0  0  0
 45118  1  0  0  0
 46119  1  0  0  0
 47120  1  0  0  0
 47121  1  0  0  0
 48 56  1  0  0  0
 48 65  1  0  0  0
 48122  1  0  0  0
 49 50  1  0  0  0
 49 53  1  0  0  0
 49 64  1  0  0  0
 49123  1  0  0  0
 50 51  1  0  0  0
 50124  1  0  0  0
 50125  1  0  0  0
 51 52  1  0  0  0
 51126  1  0  0  0
 51127  1  0  0  0
 52128  1  0  0  0
 52129  1  0  0  0
 53 54  1  0  0  0
 54 55  2  0  0  0
 54130  1  0  0  0
 55 57  1  0  0  0
 55131  1  0  0  0
 56 69  2  0  0  0
 57 58  2  0  0  0
 57132  1  0  0  0
 58133  1  0  0  0
 59 60  1  0  0  0
 59 61  1  0  0  0
 59 62  1  0  0  0
 60134  1  0  0  0
 60135  1  0  0  0
 60136  1  0  0  0
 61137  1  0  0  0
 61138  1  0  0  0
 61139  1  0  0  0
 62140  1  0  0  0
 62141  1  0  0  0
 62142  1  0  0  0
 63 65  1  0  0  0
 63143  1  0  0  0
 63144  1  0  0  0
 63145  1  0  0  0
 64146  1  0  0  0
 65147  1  0  0  0
 68 83  1  0  0  0
 71 72  2  0  0  0
 71 74  1  0  0  0
 71148  1  0  0  0
 72 76  1  0  0  0
 72149  1  0  0  0
 73 75  1  0  0  0
 73 76  2  0  0  0
 73150  1  0  0  0
 74 75  2  0  0  0
 74 81  1  0  0  0
 75 86  1  0  0  0
 76 88  1  0  0  0
 77 78  1  0  0  0
 77151  1  0  0  0
 77152  1  0  0  0
 77 79  1  0  0  0
 78 79  1  0  0  0
 78153  1  0  0  0
 78154  1  0  0  0
 79 85  1  0  0  0
 79155  1  0  0  0
 80156  1  0  0  0
 80157  1  0  0  0
 80158  1  0  0  0
 80 85  1  0  0  0
 81 82  1  0  0  0
 81159  1  0  0  0
 81160  1  0  0  0
 82 87  1  0  0  0
 82161  1  0  0  0
 82162  1  0  0  0
 83 84  1  0  0  0
 83163  1  0  0  0
 83164  1  0  0  0
 84 88  1  0  0  0
 84165  1  0  0  0
 84166  1  0  0  0
 85 86  1  0  0  0
 85167  1  0  0  0
 86168  1  0  0  0
 87169  1  0  0  0
M  ISO  4   1 100  68 101  83 101  87 100
M  END
> <chiral flag>
0

> <version>
0

> <s_m_source_file>
/data/baiqing/PycharmProjects/Reinvent-master-3.2/result/LINK_invent/BTK/process_docking_weight1_custom_sum_contain_oxygen_bond_distance_aromatic_linkinvent_7_9_3/rearranged_h_0139.sdf

> <i_m_source_file_index>
67

> <r_mmod_Potential_Energy-OPLS-2005>
3.34028363227844

> <r_mmod_Stretch_Energy-OPLS-2005>
35.2372016906738

> <r_mmod_Bend_Energy-OPLS-2005>
151.635314941406

> <r_mmod_Torsional_Energy-OPLS-2005>
277.563873291016

> <r_mmod_Improper_Torsional_Energy-OPLS-2005>
6.76250028610229

> <r_mmod_Van_der_Waal_Energy-OPLS-2005>
157.139739990234

> <r_mmod_Electrostatic_Energy-OPLS-2005>
-427.718017578125

> <r_mmod_Solvation_Energy-OPLS-2005>
-210.977096557617

> <b_mmod_Minimization_Converged-OPLS-2005>
0

> <r_mmod_RMS_Derivative-OPLS-2005>
10.289698600769

$$$$
67
                    3D
 Structure written by MMmdl.
176186  0  0  1  0            999 V2000
  -30.7767  -14.3809   20.5979 C   0  0  0  0  0  0
  -30.3928  -12.2628   19.4233 C   0  0  0  0  0  0
  -29.4813  -12.4986   18.2053 C   0  0  0  0  0  0
  -28.0041  -12.3732   18.6175 C   0  0  0  0  0  0
  -27.6582  -13.2144   19.8761 C   0  0  2  0  0  0
  -28.6951  -13.0028   21.0017 C   0  0  0  0  0  0
  -25.2556  -13.8192   20.5710 C   0  0  0  0  0  0
  -24.1819  -13.0454   20.9189 C   0  0  0  0  0  0
  -24.6387  -11.6924   20.8745 C   0  0  0  0  0  0
  -23.9072  -10.4302   21.0425 C   0  0  0  0  0  0
  -24.3630   -9.4211   21.9198 C   0  0  0  0  0  0
  -23.6297   -8.2246   22.0766 C   0  0  0  0  0  0
  -22.4287   -8.0295   21.3544 C   0  0  0  0  0  0
  -21.9926   -9.0270   20.4648 C   0  0  0  0  0  0
  -22.7260  -10.2144   20.3063 C   0  0  0  0  0  0
  -21.6851   -6.0748   22.5281 C   0  0  0  0  0  0
  -21.4018   -6.5647   23.8219 C   0  0  0  0  0  0
  -21.3654   -5.6799   24.9183 C   0  0  0  0  0  0
  -21.6041   -4.3061   24.7229 C   0  0  0  0  0  0
  -21.8818   -3.8155   23.4348 C   0  0  0  0  0  0
  -21.9195   -4.6972   22.3407 C   0  0  0  0  0  0
  -22.7841  -13.5241   21.1850 C   0  0  0  0  0  0
  -22.1667   -4.2158   21.0985 F   0  0  0  0  0  0
  -21.5624   -3.4542   25.7736 F   0  0  0  0  0  0
  -30.0325  -13.2579   20.4455 N   0  0  0  0  0  0
  -26.3002  -12.9384   20.3383 N   0  0  0  0  0  0
  -25.9314  -11.6534   20.5781 N   0  0  0  0  0  0
  -22.0482  -12.8224   22.0398 N   0  0  0  0  0  0
  -25.4267  -15.1913   20.4152 N   0  0  0  0  0  0
  -31.8890  -14.5017   20.0792 O   0  0  0  0  0  0
  -21.6640   -6.8901   21.4243 O   0  0  0  0  0  0
  -22.3533  -14.5551   20.6707 O   0  0  0  0  0  0
  -24.6090  -31.8720   23.2144 C   0  0  0  0  0  0
  -25.9009  -32.4838   23.8419 C   0  0  1  0  0  0
  -27.2279  -27.4909   20.0639 C   0  0  0  0  0  0
  -25.5897  -33.8640   24.2352 N   0  0  0  0  0  0
  -23.3930  -30.4962   21.5547 C   0  0  2  0  0  0
  -24.8350  -28.9678   20.1143 C   0  0  0  0  0  0
  -22.7377  -29.4671   22.5023 C   0  0  0  0  0  0
  -18.0263  -28.1374   22.8499 C   0  0  0  0  0  0
  -24.1491  -36.7322   23.2638 C   0  0  0  0  0  0
  -25.9168  -30.8491   21.3617 C   0  0  0  0  0  0
  -25.9909  -29.4872   20.7106 C   0  0  0  0  0  0
  -27.1884  -28.7466   20.6975 C   0  0  0  0  0  0
  -26.0548  -26.9627   19.4838 C   0  0  0  0  0  0
  -24.8570  -27.7001   19.5061 C   0  0  0  0  0  0
  -23.5962  -29.8298   20.1676 C   0  0  0  0  0  0
  -25.4111  -36.3123   24.0339 C   0  0  1  0  0  0
  -20.5846  -28.3650   23.1338 C   0  0  2  0  0  0
  -20.6754  -26.9392   22.5422 C   0  0  0  0  0  0
  -19.5734  -26.6382   21.5216 C   0  0  0  0  0  0
  -18.1911  -26.7926   22.1619 C   0  0  0  0  0  0
  -19.1511  -28.8828   23.2915 C   0  0  0  0  0  0
  -18.9444  -30.1443   23.8908 C   0  0  0  0  0  0
  -17.6449  -30.6586   24.0563 C   0  0  0  0  0  0
  -25.9030  -34.9484   23.5138 C   0  0  0  0  0  0
  -16.5339  -29.9086   23.6332 C   0  0  0  0  0  0
  -16.7254  -28.6506   23.0349 C   0  0  0  0  0  0
  -26.4461  -31.6604   25.0729 C   0  0  0  0  0  0
  -25.3752  -31.3717   26.1502 C   0  0  0  0  0  0
  -27.0261  -30.3045   24.6072 C   0  0  0  0  0  0
  -27.6068  -32.4297   25.7471 C   0  0  0  0  0  0
  -27.5591  -37.1813   24.8466 C   0  0  0  0  0  0
  -21.4114  -29.3027   22.3759 N   0  0  0  0  0  0
  -26.4304  -37.3803   23.9407 N   0  0  0  0  0  0
  -24.6576  -31.0858   22.1025 N   0  0  0  0  0  0
  -23.4170  -28.8214   23.3049 O   0  0  0  0  0  0
  -28.4003  -26.7899   20.0780 O   0  0  0  0  0  0
  -26.5584  -34.8926   22.4694 O   0  0  0  0  0  0
  -23.5294  -32.1460   23.7567 O   0  0  0  0  0  0
  -29.3908  -23.8355   18.4402 C   0  0  0  0  0  0
  -31.4772  -23.8888   20.3108 C   0  0  0  0  0  0
  -30.1128  -22.6535   18.7061 C   0  0  0  0  0  0
  -29.7107  -25.0404   19.0989 C   0  0  0  0  0  0
  -31.1636  -22.6745   19.6604 C   0  0  0  0  0  0
  -30.7827  -25.0714   20.0179 C   0  0  0  0  0  0
  -34.5610  -21.0408   19.4946 C   0  0  0  0  0  0
  -34.2567  -22.4799   19.1717 C   0  0  0  0  0  0
  -32.4421  -18.3890   20.5324 C   0  0  0  0  0  0
  -31.4451  -18.7008   22.8839 C   0  0  0  0  0  0
  -31.2692  -17.4575   20.2285 C   0  0  0  0  0  0
  -30.3874  -17.6204   22.5395 C   0  0  0  0  0  0
  -32.1093  -19.3969   21.6573 C   0  0  2  0  0  0
  -33.4476  -21.7581   20.2304 C   0  0  0  0  0  0
  -30.9826  -16.6503   21.5091 C   0  0  1  0  0  0
  -29.7332  -21.3878   17.9531 C   0  0  0  0  0  0
  -28.8765  -26.2763   18.8416 C   0  0  0  0  0  0
  -31.3231  -20.6345   21.1615 C   0  0  0  0  0  0
  -31.9738  -21.4225   19.9924 C   0  0  1  0  0  0
  -30.2343  -15.4063   21.2785 N   0  0  0  0  0  0
  -31.2784  -26.5310   20.8061 Cl  0  0  0  0  0  0
  -31.4415  -12.3128   19.1246 H   0  0  0  0  0  0
  -30.2508  -11.2573   19.8208 H   0  0  0  0  0  0
  -29.7109  -11.7825   17.4153 H   0  0  0  0  0  0
  -29.6679  -13.4888   17.7887 H   0  0  0  0  0  0
  -27.8041  -11.3192   18.8121 H   0  0  0  0  0  0
  -27.3569  -12.6586   17.7878 H   0  0  0  0  0  0
  -27.7041  -14.2625   19.5793 H   0  0  0  0  0  0
  -28.6454  -11.9787   21.3757 H   0  0  0  0  0  0
  -28.4676  -13.6385   21.8583 H   0  0  0  0  0  0
  -25.2785   -9.5661   22.4756 H   0  0  0  0  0  0
  -24.0002   -7.4635   22.7490 H   0  0  0  0  0  0
  -21.0863   -8.8807   19.8939 H   0  0  0  0  0  0
  -22.3760  -10.9687   19.6162 H   0  0  0  0  0  0
  -21.2015   -7.6153   23.9725 H   0  0  0  0  0  0
  -21.1475   -6.0532   25.9087 H   0  0  0  0  0  0
  -22.0597   -2.7609   23.2857 H   0  0  0  0  0  0
  -22.4109  -11.9877   22.4752 H   0  0  0  0  0  0
  -21.1097  -13.1255   22.2611 H   0  0  0  0  0  0
  -24.6630  -15.8492   20.5287 H   0  0  0  0  0  0
  -26.2872  -15.6305   20.1126 H   0  0  0  0  0  0
  -26.7082  -32.5571   23.1189 H   0  0  0  0  0  0
  -25.0074  -33.9820   25.0513 H   0  0  0  0  0  0
  -22.6791  -31.3115   21.4192 H   0  0  0  0  0  0
  -23.3767  -35.9640   23.3274 H   0  0  0  0  0  0
  -24.3592  -36.8964   22.2056 H   0  0  0  0  0  0
  -23.7218  -37.6508   23.6668 H   0  0  0  0  0  0
  -26.0221  -31.6158   20.5932 H   0  0  0  0  0  0
  -26.8073  -30.9024   21.9757 H   0  0  0  0  0  0
  -28.0847  -29.1406   21.1560 H   0  0  0  0  0  0
  -26.0554  -25.9829   19.0280 H   0  0  0  0  0  0
  -23.9631  -27.2890   19.0570 H   0  0  0  0  0  0
  -23.6989  -30.6049   19.4072 H   0  0  0  0  0  0
  -22.7216  -29.2455   19.8765 H   0  0  0  0  0  0
  -25.1286  -36.1998   25.0834 H   0  0  0  0  0  0
  -20.9931  -28.3200   24.1458 H   0  0  0  0  0  0
  -20.5676  -26.2250   23.3590 H   0  0  0  0  0  0
  -21.6626  -26.7451   22.1201 H   0  0  0  0  0  0
  -19.6894  -25.6297   21.1238 H   0  0  0  0  0  0
  -19.6682  -27.3201   20.6748 H   0  0  0  0  0  0
  -17.4187  -26.6693   21.4012 H   0  0  0  0  0  0
  -18.0296  -26.0057   22.9000 H   0  0  0  0  0  0
  -19.7919  -30.7268   24.2270 H   0  0  0  0  0  0
  -17.5001  -31.6270   24.5159 H   0  0  0  0  0  0
  -15.5341  -30.2993   23.7647 H   0  0  0  0  0  0
  -15.8652  -28.0836   22.7044 H   0  0  0  0  0  0
  -24.5851  -30.7155   25.7836 H   0  0  0  0  0  0
  -24.9039  -32.2889   26.5044 H   0  0  0  0  0  0
  -25.8110  -30.8790   27.0202 H   0  0  0  0  0  0
  -26.2770  -29.6814   24.1172 H   0  0  0  0  0  0
  -27.4082  -29.7275   25.4506 H   0  0  0  0  0  0
  -27.8592  -30.4357   23.9160 H   0  0  0  0  0  0
  -27.2742  -33.3636   26.2009 H   0  0  0  0  0  0
  -28.3894  -32.6777   25.0291 H   0  0  0  0  0  0
  -28.0696  -31.8422   26.5409 H   0  0  0  0  0  0
  -28.2607  -38.0113   24.7523 H   0  0  0  0  0  0
  -28.1088  -36.2644   24.6286 H   0  0  0  0  0  0
  -27.2308  -37.1461   25.8870 H   0  0  0  0  0  0
  -20.9256  -29.8766   21.7008 H   0  0  0  0  0  0
  -26.0198  -38.2883   24.1415 H   0  0  0  0  0  0
  -28.5766  -23.8177   17.7288 H   0  0  0  0  0  0
  -32.2739  -23.9357   21.0381 H   0  0  0  0  0  0
  -35.4725  -20.8287   20.0490 H   0  0  0  0  0  0
  -34.3000  -20.3088   18.7337 H   0  0  0  0  0  0
  -33.7707  -22.6924   18.2204 H   0  0  0  0  0  0
  -34.9632  -23.2356   19.5111 H   0  0  0  0  0  0
  -32.7604  -18.8738   19.6156 H   0  0  0  0  0  0
  -33.3015  -17.7893   20.8351 H   0  0  0  0  0  0
  -32.2322  -18.2154   23.4635 H   0  0  0  0  0  0
  -31.0139  -19.4435   23.5560 H   0  0  0  0  0  0
  -31.5405  -16.8334   19.3789 H   0  0  0  0  0  0
  -30.3906  -18.0226   19.9133 H   0  0  0  0  0  0
  -29.4793  -18.0867   22.1526 H   0  0  0  0  0  0
  -30.1036  -17.0876   23.4478 H   0  0  0  0  0  0
  -33.0642  -19.7830   22.0177 H   0  0  0  0  0  0
  -33.6632  -22.0786   21.2481 H   0  0  0  0  0  0
  -31.9354  -16.3136   21.9261 H   0  0  0  0  0  0
  -28.8592  -21.5450   17.3199 H   0  0  0  0  0  0
  -29.4982  -20.5764   18.6414 H   0  0  0  0  0  0
  -30.5507  -21.0678   17.3061 H   0  0  0  0  0  0
  -28.0838  -26.0452   18.1296 H   0  0  0  0  0  0
  -29.5045  -27.0304   18.3653 H   0  0  0  0  0  0
  -31.1945  -21.3157   22.0045 H   0  0  0  0  0  0
  -30.3145  -20.3339   20.8770 H   0  0  0  0  0  0
  -31.9519  -20.7971   19.1035 H   0  0  0  0  0  0
  -29.3165  -15.2935   21.6839 H   0  0  0  0  0  0
  1 25  1  0  0  0
  1 30  2  0  0  0
  1 90  1  0  0  0
  2  3  1  0  0  0
  2 25  1  0  0  0
  2 92  1  0  0  0
  2 93  1  0  0  0
  3  4  1  0  0  0
  3 94  1  0  0  0
  3 95  1  0  0  0
  4  5  1  0  0  0
  4 96  1  0  0  0
  4 97  1  0  0  0
  5  6  1  0  0  0
  5 26  1  0  0  0
  5 98  1  0  0  0
  6 25  1  0  0  0
  6 99  1  0  0  0
  6100  1  0  0  0
  7  8  2  0  0  0
  7 26  1  0  0  0
  7 29  1  0  0  0
  8  9  1  0  0  0
  8 22  1  0  0  0
  9 10  1  0  0  0
  9 27  2  0  0  0
 10 11  2  0  0  0
 10 15  1  0  0  0
 11 12  1  0  0  0
 11101  1  0  0  0
 12 13  2  0  0  0
 12102  1  0  0  0
 13 14  1  0  0  0
 13 31  1  0  0  0
 14 15  2  0  0  0
 14103  1  0  0  0
 15104  1  0  0  0
 16 17  2  0  0  0
 16 21  1  0  0  0
 16 31  1  0  0  0
 17 18  1  0  0  0
 17105  1  0  0  0
 18 19  2  0  0  0
 18106  1  0  0  0
 19 20  1  0  0  0
 19 24  1  0  0  0
 20 21  2  0  0  0
 20107  1  0  0  0
 21 23  1  0  0  0
 22 28  1  0  0  0
 22 32  2  0  0  0
 26 27  1  0  0  0
 28108  1  0  0  0
 28109  1  0  0  0
 29110  1  0  0  0
 29111  1  0  0  0
 33 34  1  0  0  0
 33 66  1  0  0  0
 33 70  2  0  0  0
 34 36  1  0  0  0
 34 59  1  0  0  0
 34112  1  0  0  0
 35 44  2  0  0  0
 35 45  1  0  0  0
 35 68  1  0  0  0
 36 56  1  0  0  0
 36113  1  0  0  0
 37 39  1  0  0  0
 37 47  1  0  0  0
 37 66  1  0  0  0
 37114  1  0  0  0
 38 43  2  0  0  0
 38 46  1  0  0  0
 38 47  1  0  0  0
 39 64  1  0  0  0
 39 67  2  0  0  0
 40 52  1  0  0  0
 40 53  2  0  0  0
 40 58  1  0  0  0
 41115  1  0  0  0
 41116  1  0  0  0
 41117  1  0  0  0
 41 48  1  0  0  0
 42 43  1  0  0  0
 42 66  1  0  0  0
 42118  1  0  0  0
 42119  1  0  0  0
 43 44  1  0  0  0
 44120  1  0  0  0
 45 46  2  0  0  0
 45121  1  0  0  0
 46122  1  0  0  0
 47123  1  0  0  0
 47124  1  0  0  0
 48 56  1  0  0  0
 48 65  1  0  0  0
 48125  1  0  0  0
 49 50  1  0  0  0
 49 53  1  0  0  0
 49 64  1  0  0  0
 49126  1  0  0  0
 50 51  1  0  0  0
 50127  1  0  0  0
 50128  1  0  0  0
 51 52  1  0  0  0
 51129  1  0  0  0
 51130  1  0  0  0
 52131  1  0  0  0
 52132  1  0  0  0
 53 54  1  0  0  0
 54 55  2  0  0  0
 54133  1  0  0  0
 55 57  1  0  0  0
 55134  1  0  0  0
 56 69  2  0  0  0
 57 58  2  0  0  0
 57135  1  0  0  0
 58136  1  0  0  0
 59 60  1  0  0  0
 59 61  1  0  0  0
 59 62  1  0  0  0
 60137  1  0  0  0
 60138  1  0  0  0
 60139  1  0  0  0
 61140  1  0  0  0
 61141  1  0  0  0
 61142  1  0  0  0
 62143  1  0  0  0
 62144  1  0  0  0
 62145  1  0  0  0
 63 65  1  0  0  0
 63146  1  0  0  0
 63147  1  0  0  0
 63148  1  0  0  0
 64149  1  0  0  0
 65150  1  0  0  0
 68 87  1  0  0  0
 71 73  2  0  0  0
 71 74  1  0  0  0
 71151  1  0  0  0
 72 75  2  0  0  0
 72 76  1  0  0  0
 72152  1  0  0  0
 73 75  1  0  0  0
 73 86  1  0  0  0
 74 76  2  0  0  0
 74 87  1  0  0  0
 75 89  1  0  0  0
 76 91  1  0  0  0
 77 78  1  0  0  0
 77153  1  0  0  0
 77154  1  0  0  0
 77 84  1  0  0  0
 78 84  1  0  0  0
 78155  1  0  0  0
 78156  1  0  0  0
 79 81  1  0  0  0
 79 83  1  0  0  0
 79157  1  0  0  0
 79158  1  0  0  0
 80 82  1  0  0  0
 80 83  1  0  0  0
 80159  1  0  0  0
 80160  1  0  0  0
 81 85  1  0  0  0
 81161  1  0  0  0
 81162  1  0  0  0
 82 85  1  0  0  0
 82163  1  0  0  0
 82164  1  0  0  0
 83 88  1  0  0  0
 83165  1  0  0  0
 84 89  1  0  0  0
 84166  1  0  0  0
 85 90  1  0  0  0
 85167  1  0  0  0
 86168  1  0  0  0
 86169  1  0  0  0
 86170  1  0  0  0
 87171  1  0  0  0
 87172  1  0  0  0
 88173  1  0  0  0
 88174  1  0  0  0
 88 89  1  0  0  0
 89175  1  0  0  0
 90176  1  0  0  0
M  ISO  4   1 100  68 101  87 101  90 100
M  END
> <chiral flag>
0

> <version>
0

> <s_m_source_file>
/data/baiqing/PycharmProjects/Reinvent-master-3.2/result/LINK_invent/BTK/process_docking_weight1_custom_sum_contain_oxygen_bond_distance_aromatic_linkinvent_7_9_3/rearranged_h_0139.sdf

> <i_m_source_file_index>
68

> <r_mmod_Potential_Energy-OPLS-2005>
66.4643630981445

> <r_mmod_Stretch_Energy-OPLS-2005>
34.4289016723633

> <r_mmod_Bend_Energy-OPLS-2005>
111.66242980957

> <r_mmod_Torsional_Energy-OPLS-2005>
292.423278808594

> <r_mmod_Improper_Torsional_Energy-OPLS-2005>
2.0885796546936

> <r_mmod_Van_der_Waal_Energy-OPLS-2005>
171.483856201172

> <r_mmod_Electrostatic_Energy-OPLS-2005>
-364.210296630859

> <r_mmod_Solvation_Energy-OPLS-2005>
-193.725021362305

> <b_mmod_Minimization_Converged-OPLS-2005>
0

> <r_mmod_RMS_Derivative-OPLS-2005>
1.44448626041412

$$$$
68
                    3D
 Structure written by MMmdl.
154163  0  0  1  0            999 V2000
  -30.3834  -15.3683   20.3527 C   0  0  0  0  0  0
  -30.4390  -12.8759   19.5545 C   0  0  0  0  0  0
  -29.5502  -12.6065   18.3112 C   0  0  0  0  0  0
  -28.1019  -12.3060   18.7297 C   0  0  0  0  0  0
  -27.6109  -13.2842   19.8251 C   0  0  2  0  0  0
  -28.6327  -13.4919   20.9655 C   0  0  0  0  0  0
  -25.2383  -13.8256   20.5737 C   0  0  0  0  0  0
  -24.1742  -13.0431   20.9237 C   0  0  0  0  0  0
  -24.6408  -11.6930   20.8722 C   0  0  0  0  0  0
  -23.9105  -10.4286   21.0375 C   0  0  0  0  0  0
  -24.3650   -9.4204   21.9160 C   0  0  0  0  0  0
  -23.6319   -8.2241   22.0740 C   0  0  0  0  0  0
  -22.4298   -8.0275   21.3534 C   0  0  0  0  0  0
  -21.9931   -9.0245   20.4636 C   0  0  0  0  0  0
  -22.7262  -10.2124   20.3041 C   0  0  0  0  0  0
  -21.6862   -6.0731   22.5270 C   0  0  0  0  0  0
  -21.4019   -6.5630   23.8207 C   0  0  0  0  0  0
  -21.3670   -5.6776   24.9164 C   0  0  0  0  0  0
  -21.6062   -4.3043   24.7213 C   0  0  0  0  0  0
  -21.8824   -3.8136   23.4332 C   0  0  0  0  0  0
  -21.9203   -4.6956   22.3389 C   0  0  0  0  0  0
  -22.7759  -13.5176   21.1894 C   0  0  0  0  0  0
  -22.1665   -4.2146   21.0960 F   0  0  0  0  0  0
  -21.5641   -3.4525   25.7724 F   0  0  0  0  0  0
  -29.8597  -14.0301   20.3517 N   0  0  0  0  0  0
  -26.2815  -12.9544   20.3206 N   0  0  0  0  0  0
  -25.9348  -11.6638   20.5679 N   0  0  0  0  0  0
  -22.0425  -12.8166   22.0461 N   0  0  0  0  0  0
  -25.4022  -15.1991   20.4184 N   0  0  0  0  0  0
  -31.5933  -15.3712   20.0712 O   0  0  0  0  0  0
  -21.6657   -6.8876   21.4232 O   0  0  0  0  0  0
  -22.3437  -14.5472   20.6726 O   0  0  0  0  0  0
  -24.6689  -31.8160   23.1631 C   0  0  0  0  0  0
  -25.9337  -32.4552   23.8123 C   0  0  1  0  0  0
  -27.2257  -26.8546   20.1956 C   0  0  0  0  0  0
  -25.5980  -33.8374   24.2033 N   0  0  0  0  0  0
  -23.4881  -30.4216   21.5136 C   0  0  2  0  0  0
  -24.9439  -28.7919   20.1094 C   0  0  0  0  0  0
  -22.7696  -29.4393   22.4762 C   0  0  0  0  0  0
  -18.0330  -28.1419   22.8467 C   0  0  0  0  0  0
  -24.1493  -36.7188   23.2645 C   0  0  0  0  0  0
  -26.0592  -30.5972   21.4047 C   0  0  0  0  0  0
  -26.1255  -29.1785   20.7519 C   0  0  0  0  0  0
  -27.2531  -28.2300   20.7715 C   0  0  0  0  0  0
  -26.0191  -26.6396   19.4905 C   0  0  0  0  0  0
  -24.9213  -27.5466   19.4563 C   0  0  0  0  0  0
  -23.7318  -29.7274   20.1428 C   0  0  0  0  0  0
  -25.4142  -36.2951   24.0291 C   0  0  1  0  0  0
  -20.5954  -28.3764   23.1185 C   0  0  2  0  0  0
  -20.6798  -26.9440   22.5418 C   0  0  0  0  0  0
  -19.5778  -26.6376   21.5228 C   0  0  0  0  0  0
  -18.1955  -26.7952   22.1624 C   0  0  0  0  0  0
  -19.1589  -28.8916   23.2809 C   0  0  0  0  0  0
  -18.9496  -30.1501   23.8849 C   0  0  0  0  0  0
  -17.6484  -30.6606   24.0555 C   0  0  0  0  0  0
  -25.9114  -34.9337   23.4993 C   0  0  0  0  0  0
  -16.5379  -29.9088   23.6345 C   0  0  0  0  0  0
  -16.7305  -28.6509   23.0371 C   0  0  0  0  0  0
  -26.4571  -31.6526   25.0682 C   0  0  0  0  0  0
  -25.3679  -31.3805   26.1323 C   0  0  0  0  0  0
  -27.0464  -30.2877   24.6472 C   0  0  0  0  0  0
  -27.6043  -32.4352   25.7496 C   0  0  0  0  0  0
  -27.5584  -37.1745   24.8458 C   0  0  0  0  0  0
  -21.4359  -29.3033   22.3516 N   0  0  0  0  0  0
  -26.4281  -37.3699   23.9418 N   0  0  0  0  0  0
  -24.7606  -30.9748   22.0804 N   0  0  0  0  0  0
  -23.4212  -28.7990   23.3053 O   0  0  0  0  0  0
  -28.2278  -25.7317   20.3335 O   0  0  0  0  0  0
  -26.5739  -34.8885   22.4601 O   0  0  0  0  0  0
  -23.5741  -32.1165   23.6677 O   0  0  0  0  0  0
  -30.3194  -19.9766   18.4644 C   0  0  0  0  0  0
  -30.3230  -18.6455   19.0053 C   0  0  0  0  0  0
  -28.9708  -19.5328   20.7621 C   0  0  0  0  0  0
  -29.6650  -21.1223   19.0257 C   0  0  0  0  0  0
  -28.9712  -21.0023   20.2413 C   0  0  0  0  0  0
  -29.6361  -18.2512   20.1829 C   0  0  0  0  0  0
  -29.6433  -22.4745   18.2574 C   0  0  0  0  0  0
  -29.5097  -23.8560   19.0217 C   0  0  0  0  0  0
  -28.3570  -22.5251   20.8151 C   0  0  2  0  0  0
  -28.2691  -24.0871   19.9350 C   0  0  1  0  0  0
  -29.0920  -22.8068   22.1306 C   0  0  0  0  0  0
  -29.6074  -16.6442   20.5614 N   0  0  0  0  0  0
  -31.4557  -13.0905   19.2239 H   0  0  0  0  0  0
  -30.5234  -11.9793   20.1720 H   0  0  0  0  0  0
  -29.9534  -11.7789   17.7267 H   0  0  0  0  0  0
  -29.5696  -13.4813   17.6598 H   0  0  0  0  0  0
  -28.0748  -11.2844   19.1108 H   0  0  0  0  0  0
  -27.4406  -12.3289   17.8630 H   0  0  0  0  0  0
  -27.5168  -14.2426   19.3128 H   0  0  0  0  0  0
  -28.8182  -12.5657   21.5110 H   0  0  0  0  0  0
  -28.2450  -14.2074   21.6923 H   0  0  0  0  0  0
  -25.2793   -9.5681   22.4737 H   0  0  0  0  0  0
  -24.0029   -7.4633   22.7461 H   0  0  0  0  0  0
  -21.0861   -8.8757   19.8943 H   0  0  0  0  0  0
  -22.3704  -10.9659   19.6156 H   0  0  0  0  0  0
  -21.1998   -7.6135   23.9708 H   0  0  0  0  0  0
  -21.1500   -6.0501   25.9071 H   0  0  0  0  0  0
  -22.0602   -2.7598   23.2826 H   0  0  0  0  0  0
  -22.4075  -11.9860   22.4882 H   0  0  0  0  0  0
  -21.1032  -13.1166   22.2644 H   0  0  0  0  0  0
  -24.6293  -15.8475   20.5242 H   0  0  0  0  0  0
  -26.2458  -15.6403   20.0756 H   0  0  0  0  0  0
  -26.7416  -32.5070   23.0839 H   0  0  0  0  0  0
  -25.0064  -33.9446   25.0140 H   0  0  0  0  0  0
  -22.8041  -31.2543   21.3351 H   0  0  0  0  0  0
  -23.3786  -35.9483   23.3251 H   0  0  0  0  0  0
  -24.3564  -36.8899   22.2069 H   0  0  0  0  0  0
  -23.7215  -37.6341   23.6746 H   0  0  0  0  0  0
  -26.2483  -31.3329   20.6214 H   0  0  0  0  0  0
  -26.9155  -30.6567   22.0650 H   0  0  0  0  0  0
  -28.1419  -28.5214   21.3135 H   0  0  0  0  0  0
  -25.8838  -25.6904   18.9941 H   0  0  0  0  0  0
  -24.0265  -27.2466   18.9275 H   0  0  0  0  0  0
  -23.8899  -30.4918   19.3821 H   0  0  0  0  0  0
  -22.8398  -29.1841   19.8257 H   0  0  0  0  0  0
  -25.1343  -36.1733   25.0778 H   0  0  0  0  0  0
  -21.0039  -28.3383   24.1310 H   0  0  0  0  0  0
  -20.5685  -26.2387   23.3666 H   0  0  0  0  0  0
  -21.6660  -26.7418   22.1222 H   0  0  0  0  0  0
  -19.6938  -25.6271   21.1298 H   0  0  0  0  0  0
  -19.6724  -27.3152   20.6732 H   0  0  0  0  0  0
  -17.4233  -26.6710   21.4018 H   0  0  0  0  0  0
  -18.0336  -26.0108   22.9028 H   0  0  0  0  0  0
  -19.7966  -30.7333   24.2203 H   0  0  0  0  0  0
  -17.5032  -31.6281   24.5162 H   0  0  0  0  0  0
  -15.5374  -30.2971   23.7701 H   0  0  0  0  0  0
  -15.8708  -28.0803   22.7127 H   0  0  0  0  0  0
  -24.5862  -30.7167   25.7624 H   0  0  0  0  0  0
  -24.8875  -32.3016   26.4623 H   0  0  0  0  0  0
  -25.7879  -30.9041   27.0189 H   0  0  0  0  0  0
  -26.3138  -29.6540   24.1469 H   0  0  0  0  0  0
  -27.3944  -29.7264   25.5153 H   0  0  0  0  0  0
  -27.9104  -30.4023   23.9924 H   0  0  0  0  0  0
  -27.2592  -33.3683   26.1962 H   0  0  0  0  0  0
  -28.3916  -32.6875   25.0383 H   0  0  0  0  0  0
  -28.0652  -31.8568   26.5512 H   0  0  0  0  0  0
  -28.2549  -38.0094   24.7553 H   0  0  0  0  0  0
  -28.1134  -36.2619   24.6218 H   0  0  0  0  0  0
  -27.2307  -37.1306   25.8860 H   0  0  0  0  0  0
  -20.9637  -29.8689   21.6600 H   0  0  0  0  0  0
  -26.0119  -38.2748   24.1455 H   0  0  0  0  0  0
  -30.8442  -20.1149   17.5299 H   0  0  0  0  0  0
  -30.8474  -17.8841   18.4448 H   0  0  0  0  0  0
  -28.4150  -19.3845   21.6772 H   0  0  0  0  0  0
  -28.8297  -22.4066   17.5342 H   0  0  0  0  0  0
  -30.5537  -22.5171   17.6577 H   0  0  0  0  0  0
  -29.5340  -24.6542   18.2795 H   0  0  0  0  0  0
  -30.4054  -23.9976   19.6263 H   0  0  0  0  0  0
  -27.3260  -22.3064   21.0939 H   0  0  0  0  0  0
  -27.4043  -23.9714   19.2815 H   0  0  0  0  0  0
  -30.1552  -22.9664   21.9490 H   0  0  0  0  0  0
  -28.9968  -21.9738   22.8273 H   0  0  0  0  0  0
  -28.6989  -23.6976   22.6211 H   0  0  0  0  0  0
  -28.7337  -16.4027   21.0060 H   0  0  0  0  0  0
  1 25  1  0  0  0
  1 30  2  0  0  0
  1 82  1  0  0  0
  2  3  1  0  0  0
  2 25  1  0  0  0
  2 83  1  0  0  0
  2 84  1  0  0  0
  3  4  1  0  0  0
  3 85  1  0  0  0
  3 86  1  0  0  0
  4  5  1  0  0  0
  4 87  1  0  0  0
  4 88  1  0  0  0
  5  6  1  0  0  0
  5 26  1  0  0  0
  5 89  1  0  0  0
  6 25  1  0  0  0
  6 90  1  0  0  0
  6 91  1  0  0  0
  7  8  2  0  0  0
  7 26  1  0  0  0
  7 29  1  0  0  0
  8  9  1  0  0  0
  8 22  1  0  0  0
  9 10  1  0  0  0
  9 27  2  0  0  0
 10 11  2  0  0  0
 10 15  1  0  0  0
 11 12  1  0  0  0
 11 92  1  0  0  0
 12 13  2  0  0  0
 12 93  1  0  0  0
 13 14  1  0  0  0
 13 31  1  0  0  0
 14 15  2  0  0  0
 14 94  1  0  0  0
 15 95  1  0  0  0
 16 17  2  0  0  0
 16 21  1  0  0  0
 16 31  1  0  0  0
 17 18  1  0  0  0
 17 96  1  0  0  0
 18 19  2  0  0  0
 18 97  1  0  0  0
 19 20  1  0  0  0
 19 24  1  0  0  0
 20 21  2  0  0  0
 20 98  1  0  0  0
 21 23  1  0  0  0
 22 28  1  0  0  0
 22 32  2  0  0  0
 26 27  1  0  0  0
 28 99  1  0  0  0
 28100  1  0  0  0
 29101  1  0  0  0
 29102  1  0  0  0
 33 34  1  0  0  0
 33 66  1  0  0  0
 33 70  2  0  0  0
 34 36  1  0  0  0
 34 59  1  0  0  0
 34103  1  0  0  0
 35 44  2  0  0  0
 35 45  1  0  0  0
 35 68  1  0  0  0
 36 56  1  0  0  0
 36104  1  0  0  0
 37 39  1  0  0  0
 37 47  1  0  0  0
 37 66  1  0  0  0
 37105  1  0  0  0
 38 43  2  0  0  0
 38 46  1  0  0  0
 38 47  1  0  0  0
 39 64  1  0  0  0
 39 67  2  0  0  0
 40 52  1  0  0  0
 40 53  2  0  0  0
 40 58  1  0  0  0
 41106  1  0  0  0
 41107  1  0  0  0
 41108  1  0  0  0
 41 48  1  0  0  0
 42 43  1  0  0  0
 42 66  1  0  0  0
 42109  1  0  0  0
 42110  1  0  0  0
 43 44  1  0  0  0
 44111  1  0  0  0
 45 46  2  0  0  0
 45112  1  0  0  0
 46113  1  0  0  0
 47114  1  0  0  0
 47115  1  0  0  0
 48 56  1  0  0  0
 48 65  1  0  0  0
 48116  1  0  0  0
 49 50  1  0  0  0
 49 53  1  0  0  0
 49 64  1  0  0  0
 49117  1  0  0  0
 50 51  1  0  0  0
 50118  1  0  0  0
 50119  1  0  0  0
 51 52  1  0  0  0
 51120  1  0  0  0
 51121  1  0  0  0
 52122  1  0  0  0
 52123  1  0  0  0
 53 54  1  0  0  0
 54 55  2  0  0  0
 54124  1  0  0  0
 55 57  1  0  0  0
 55125  1  0  0  0
 56 69  2  0  0  0
 57 58  2  0  0  0
 57126  1  0  0  0
 58127  1  0  0  0
 59 60  1  0  0  0
 59 61  1  0  0  0
 59 62  1  0  0  0
 60128  1  0  0  0
 60129  1  0  0  0
 60130  1  0  0  0
 61131  1  0  0  0
 61132  1  0  0  0
 61133  1  0  0  0
 62134  1  0  0  0
 62135  1  0  0  0
 62136  1  0  0  0
 63 65  1  0  0  0
 63137  1  0  0  0
 63138  1  0  0  0
 63139  1  0  0  0
 64140  1  0  0  0
 65141  1  0  0  0
 68 80  1  0  0  0
 71 72  2  0  0  0
 71 74  1  0  0  0
 71142  1  0  0  0
 72 76  1  0  0  0
 72143  1  0  0  0
 73 75  1  0  0  0
 73 76  2  0  0  0
 73144  1  0  0  0
 74 75  2  0  0  0
 74 77  1  0  0  0
 75 79  1  0  0  0
 76 82  1  0  0  0
 77 78  1  0  0  0
 77145  1  0  0  0
 77146  1  0  0  0
 78 80  1  0  0  0
 78147  1  0  0  0
 78148  1  0  0  0
 79 80  1  0  0  0
 79 81  1  0  0  0
 79149  1  0  0  0
 80150  1  0  0  0
 81151  1  0  0  0
 81152  1  0  0  0
 81153  1  0  0  0
 82154  1  0  0  0
M  ISO  4   1 100  68 101  80 101  82 100
M  END
> <chiral flag>
0

> <version>
0

> <s_m_source_file>
/data/baiqing/PycharmProjects/Reinvent-master-3.2/result/LINK_invent/BTK/process_docking_weight1_custom_sum_contain_oxygen_bond_distance_aromatic_linkinvent_7_9_3/rearranged_h_0139.sdf

> <i_m_source_file_index>
69

> <r_mmod_Potential_Energy-OPLS-2005>
1473.40209960938

> <r_mmod_Stretch_Energy-OPLS-2005>
654.931213378906

> <r_mmod_Bend_Energy-OPLS-2005>
465.927886962891

> <r_mmod_Torsional_Energy-OPLS-2005>
238.641464233398

> <r_mmod_Improper_Torsional_Energy-OPLS-2005>
2.9431688785553

> <r_mmod_Van_der_Waal_Energy-OPLS-2005>
121.760467529297

> <r_mmod_Electrostatic_Energy-OPLS-2005>
-376.036376953125

> <r_mmod_Solvation_Energy-OPLS-2005>
-207.93359375

> <b_mmod_Minimization_Converged-OPLS-2005>
0

> <r_mmod_RMS_Derivative-OPLS-2005>
1.55832576751709

$$$$
69
                    3D
 Structure written by MMmdl.
157165  0  0  1  0            999 V2000
  -30.5395  -14.8656   20.4729 C   0  0  0  0  0  0
  -30.4480  -12.5329   19.4798 C   0  0  0  0  0  0
  -29.5219  -12.5467   18.2415 C   0  0  0  0  0  0
  -28.0480  -12.3486   18.6491 C   0  0  0  0  0  0
  -27.6447  -13.2398   19.8541 C   0  0  2  0  0  0
  -28.6912  -13.1749   20.9864 C   0  0  0  0  0  0
  -25.2534  -13.8203   20.5714 C   0  0  0  0  0  0
  -24.1822  -13.0439   20.9180 C   0  0  0  0  0  0
  -24.6417  -11.6914   20.8712 C   0  0  0  0  0  0
  -23.9079  -10.4291   21.0392 C   0  0  0  0  0  0
  -24.3624   -9.4212   21.9175 C   0  0  0  0  0  0
  -23.6300   -8.2248   22.0759 C   0  0  0  0  0  0
  -22.4284   -8.0278   21.3547 C   0  0  0  0  0  0
  -21.9920   -9.0249   20.4647 C   0  0  0  0  0  0
  -22.7244  -10.2129   20.3053 C   0  0  0  0  0  0
  -21.6858   -6.0731   22.5276 C   0  0  0  0  0  0
  -21.4017   -6.5640   23.8204 C   0  0  0  0  0  0
  -21.3665   -5.6799   24.9167 C   0  0  0  0  0  0
  -21.6047   -4.3058   24.7222 C   0  0  0  0  0  0
  -21.8823   -3.8144   23.4344 C   0  0  0  0  0  0
  -21.9197   -4.6961   22.3399 C   0  0  0  0  0  0
  -22.7836  -13.5210   21.1837 C   0  0  0  0  0  0
  -22.1668   -4.2145   21.0976 F   0  0  0  0  0  0
  -21.5630   -3.4542   25.7734 F   0  0  0  0  0  0
  -29.9787  -13.5930   20.4130 N   0  0  0  0  0  0
  -26.2970  -12.9421   20.3292 N   0  0  0  0  0  0
  -25.9356  -11.6550   20.5722 N   0  0  0  0  0  0
  -22.0490  -12.8196   22.0391 N   0  0  0  0  0  0
  -25.4231  -15.1935   20.4191 N   0  0  0  0  0  0
  -31.7011  -14.9792   20.0630 O   0  0  0  0  0  0
  -21.6647   -6.8878   21.4240 O   0  0  0  0  0  0
  -22.3511  -14.5519   20.6689 O   0  0  0  0  0  0
  -24.6398  -31.8477   23.1909 C   0  0  0  0  0  0
  -25.9195  -32.4703   23.8279 C   0  0  1  0  0  0
  -27.2197  -27.1795   20.1335 C   0  0  0  0  0  0
  -25.5965  -33.8509   24.2202 N   0  0  0  0  0  0
  -23.4402  -30.4668   21.5380 C   0  0  2  0  0  0
  -24.8881  -28.9024   20.1104 C   0  0  0  0  0  0
  -22.7547  -29.4558   22.4909 C   0  0  0  0  0  0
  -18.0297  -28.1381   22.8483 C   0  0  0  0  0  0
  -24.1498  -36.7262   23.2643 C   0  0  0  0  0  0
  -25.9935  -30.7330   21.3848 C   0  0  0  0  0  0
  -26.0658  -29.3497   20.7230 C   0  0  0  0  0  0
  -27.2335  -28.5040   20.7184 C   0  0  0  0  0  0
  -26.0133  -26.8244   19.4872 C   0  0  0  0  0  0
  -24.8722  -27.6512   19.4794 C   0  0  0  0  0  0
  -23.6617  -29.7975   20.1564 C   0  0  0  0  0  0
  -25.4133  -36.3041   24.0314 C   0  0  1  0  0  0
  -20.5904  -28.3697   23.1258 C   0  0  2  0  0  0
  -20.6784  -26.9409   22.5406 C   0  0  0  0  0  0
  -19.5757  -26.6377   21.5212 C   0  0  0  0  0  0
  -18.1937  -26.7925   22.1622 C   0  0  0  0  0  0
  -19.1554  -28.8861   23.2858 C   0  0  0  0  0  0
  -18.9469  -30.1465   23.8866 C   0  0  0  0  0  0
  -17.6468  -30.6581   24.0547 C   0  0  0  0  0  0
  -25.9082  -34.9412   23.5067 C   0  0  0  0  0  0
  -16.5359  -29.9065   23.6337 C   0  0  0  0  0  0
  -16.7283  -28.6484   23.0359 C   0  0  0  0  0  0
  -26.4523  -31.6558   25.0708 C   0  0  0  0  0  0
  -25.3718  -31.3740   26.1406 C   0  0  0  0  0  0
  -27.0383  -30.2952   24.6280 C   0  0  0  0  0  0
  -27.6045  -32.4331   25.7505 C   0  0  0  0  0  0
  -27.5584  -37.1794   24.8464 C   0  0  0  0  0  0
  -21.4247  -29.3034   22.3642 N   0  0  0  0  0  0
  -26.4297  -37.3754   23.9403 N   0  0  0  0  0  0
  -24.7106  -31.0359   22.0928 N   0  0  0  0  0  0
  -23.4214  -28.8122   23.3053 O   0  0  0  0  0  0
  -28.2843  -26.2181   20.1969 O   0  0  0  0  0  0
  -26.5659  -34.8903   22.4640 O   0  0  0  0  0  0
  -23.5530  -32.1345   23.7159 O   0  0  0  0  0  0
  -30.2579  -20.2110   20.5026 C   0  0  0  0  0  0
  -28.0520  -19.5329   20.1254 C   0  0  0  0  0  0
  -30.6089  -18.7998   20.6390 C   0  0  0  0  0  0
  -28.9209  -20.6613   20.2536 C   0  0  0  0  0  0
  -29.6318  -17.7435   20.5346 C   0  0  0  0  0  0
  -34.2852  -17.7695   19.8483 C   0  0  0  0  0  0
  -32.0623  -18.4504   20.9111 C   0  0  0  0  0  0
  -29.7491  -16.1863   21.0601 C   0  0  0  0  0  0
  -32.8216  -18.1546   19.6078 C   0  0  0  0  0  0
  -27.9909  -24.7156   20.0092 C   0  0  0  0  0  0
  -28.9667  -23.3894   20.2898 C   0  0  0  0  0  0
  -28.3678  -18.1937   20.2667 N   0  0  0  0  0  0
  -28.3685  -22.0017   20.1072 O   0  0  0  0  0  0
  -31.4857  -12.6802   19.1754 H   0  0  0  0  0  0
  -30.4228  -11.5564   19.9665 H   0  0  0  0  0  0
  -29.8230  -11.7751   17.5321 H   0  0  0  0  0  0
  -29.6309  -13.4988   17.7197 H   0  0  0  0  0  0
  -27.9110  -11.2966   18.9026 H   0  0  0  0  0  0
  -27.3926  -12.5473   17.8004 H   0  0  0  0  0  0
  -27.6336  -14.2629   19.4769 H   0  0  0  0  0  0
  -28.7585  -12.1634   21.3910 H   0  0  0  0  0  0
  -28.4025  -13.8054   21.8275 H   0  0  0  0  0  0
  -25.2775   -9.5681   22.4736 H   0  0  0  0  0  0
  -24.0004   -7.4648   22.7491 H   0  0  0  0  0  0
  -21.0853   -8.8763   19.8953 H   0  0  0  0  0  0
  -22.3711  -10.9655   19.6152 H   0  0  0  0  0  0
  -21.2011   -7.6151   23.9701 H   0  0  0  0  0  0
  -21.1488   -6.0529   25.9069 H   0  0  0  0  0  0
  -22.0600   -2.7603   23.2841 H   0  0  0  0  0  0
  -22.4118  -11.9862   22.4775 H   0  0  0  0  0  0
  -21.1104  -13.1194   22.2600 H   0  0  0  0  0  0
  -24.6574  -15.8471   20.5425 H   0  0  0  0  0  0
  -26.2818  -15.6424   20.1240 H   0  0  0  0  0  0
  -26.7258  -32.5324   23.1008 H   0  0  0  0  0  0
  -25.0093  -33.9620   25.0333 H   0  0  0  0  0  0
  -22.7412  -31.2916   21.3871 H   0  0  0  0  0  0
  -23.3764  -35.9590   23.3289 H   0  0  0  0  0  0
  -24.3590  -36.8909   22.2061 H   0  0  0  0  0  0
  -23.7238  -37.6452   23.6684 H   0  0  0  0  0  0
  -26.1498  -31.4935   20.6187 H   0  0  0  0  0  0
  -26.8633  -30.7776   22.0281 H   0  0  0  0  0  0
  -28.1321  -28.8432   21.2157 H   0  0  0  0  0  0
  -25.9119  -25.8708   18.9930 H   0  0  0  0  0  0
  -23.9722  -27.3028   18.9920 H   0  0  0  0  0  0
  -23.7894  -30.5707   19.3980 H   0  0  0  0  0  0
  -22.7779  -29.2340   19.8517 H   0  0  0  0  0  0
  -25.1320  -36.1878   25.0807 H   0  0  0  0  0  0
  -20.9982  -28.3270   24.1387 H   0  0  0  0  0  0
  -20.5690  -26.2305   23.3614 H   0  0  0  0  0  0
  -21.6652  -26.7427   22.1202 H   0  0  0  0  0  0
  -19.6921  -25.6286   21.1246 H   0  0  0  0  0  0
  -19.6690  -27.3183   20.6737 H   0  0  0  0  0  0
  -17.4211  -26.6668   21.4017 H   0  0  0  0  0  0
  -18.0329  -26.0063   22.9013 H   0  0  0  0  0  0
  -19.7948  -30.7286   24.2218 H   0  0  0  0  0  0
  -17.5019  -31.6261   24.5150 H   0  0  0  0  0  0
  -15.5357  -30.2949   23.7689 H   0  0  0  0  0  0
  -15.8685  -28.0788   22.7094 H   0  0  0  0  0  0
  -24.5896  -30.7087   25.7728 H   0  0  0  0  0  0
  -24.8906  -32.2921   26.4790 H   0  0  0  0  0  0
  -25.8011  -30.8936   27.0206 H   0  0  0  0  0  0
  -26.2986  -29.6683   24.1284 H   0  0  0  0  0  0
  -27.3986  -29.7242   25.4848 H   0  0  0  0  0  0
  -27.8903  -30.4174   23.9591 H   0  0  0  0  0  0
  -27.2613  -33.3642   26.2025 H   0  0  0  0  0  0
  -28.3890  -32.6878   25.0369 H   0  0  0  0  0  0
  -28.0670  -31.8498   26.5475 H   0  0  0  0  0  0
  -28.2591  -38.0101   24.7527 H   0  0  0  0  0  0
  -28.1090  -36.2632   24.6278 H   0  0  0  0  0  0
  -27.2299  -37.1429   25.8865 H   0  0  0  0  0  0
  -20.9462  -29.8731   21.6802 H   0  0  0  0  0  0
  -26.0167  -38.2828   24.1393 H   0  0  0  0  0  0
  -31.0345  -20.9556   20.6048 H   0  0  0  0  0  0
  -27.0076  -19.7176   19.9196 H   0  0  0  0  0  0
  -34.7730  -17.4965   18.9120 H   0  0  0  0  0  0
  -34.3640  -16.9148   20.5205 H   0  0  0  0  0  0
  -34.8466  -18.5951   20.2873 H   0  0  0  0  0  0
  -32.1189  -17.5933   21.5827 H   0  0  0  0  0  0
  -32.5408  -19.2771   21.4391 H   0  0  0  0  0  0
  -28.7121  -15.8757   21.1598 H   0  0  0  0  0  0
  -30.0942  -16.2673   22.0898 H   0  0  0  0  0  0
  -32.3265  -17.3432   19.0723 H   0  0  0  0  0  0
  -32.7799  -19.0204   18.9460 H   0  0  0  0  0  0
  -27.0906  -24.5274   20.5950 H   0  0  0  0  0  0
  -27.6852  -24.6108   18.9683 H   0  0  0  0  0  0
  -29.3482  -23.4492   21.3095 H   0  0  0  0  0  0
  -29.8396  -23.4609   19.6407 H   0  0  0  0  0  0
  1 25  1  0  0  0
  1 30  2  0  0  0
  1 78  1  0  0  0
  2  3  1  0  0  0
  2 25  1  0  0  0
  2 84  1  0  0  0
  2 85  1  0  0  0
  3  4  1  0  0  0
  3 86  1  0  0  0
  3 87  1  0  0  0
  4  5  1  0  0  0
  4 88  1  0  0  0
  4 89  1  0  0  0
  5  6  1  0  0  0
  5 26  1  0  0  0
  5 90  1  0  0  0
  6 25  1  0  0  0
  6 91  1  0  0  0
  6 92  1  0  0  0
  7  8  2  0  0  0
  7 26  1  0  0  0
  7 29  1  0  0  0
  8  9  1  0  0  0
  8 22  1  0  0  0
  9 10  1  0  0  0
  9 27  2  0  0  0
 10 11  2  0  0  0
 10 15  1  0  0  0
 11 12  1  0  0  0
 11 93  1  0  0  0
 12 13  2  0  0  0
 12 94  1  0  0  0
 13 14  1  0  0  0
 13 31  1  0  0  0
 14 15  2  0  0  0
 14 95  1  0  0  0
 15 96  1  0  0  0
 16 17  2  0  0  0
 16 21  1  0  0  0
 16 31  1  0  0  0
 17 18  1  0  0  0
 17 97  1  0  0  0
 18 19  2  0  0  0
 18 98  1  0  0  0
 19 20  1  0  0  0
 19 24  1  0  0  0
 20 21  2  0  0  0
 20 99  1  0  0  0
 21 23  1  0  0  0
 22 28  1  0  0  0
 22 32  2  0  0  0
 26 27  1  0  0  0
 28100  1  0  0  0
 28101  1  0  0  0
 29102  1  0  0  0
 29103  1  0  0  0
 33 34  1  0  0  0
 33 66  1  0  0  0
 33 70  2  0  0  0
 34 36  1  0  0  0
 34 59  1  0  0  0
 34104  1  0  0  0
 35 44  2  0  0  0
 35 45  1  0  0  0
 35 68  1  0  0  0
 36 56  1  0  0  0
 36105  1  0  0  0
 37 39  1  0  0  0
 37 47  1  0  0  0
 37 66  1  0  0  0
 37106  1  0  0  0
 38 43  2  0  0  0
 38 46  1  0  0  0
 38 47  1  0  0  0
 39 64  1  0  0  0
 39 67  2  0  0  0
 40 52  1  0  0  0
 40 53  2  0  0  0
 40 58  1  0  0  0
 41107  1  0  0  0
 41108  1  0  0  0
 41109  1  0  0  0
 41 48  1  0  0  0
 42 43  1  0  0  0
 42 66  1  0  0  0
 42110  1  0  0  0
 42111  1  0  0  0
 43 44  1  0  0  0
 44112  1  0  0  0
 45 46  2  0  0  0
 45113  1  0  0  0
 46114  1  0  0  0
 47115  1  0  0  0
 47116  1  0  0  0
 48 56  1  0  0  0
 48 65  1  0  0  0
 48117  1  0  0  0
 49 50  1  0  0  0
 49 53  1  0  0  0
 49 64  1  0  0  0
 49118  1  0  0  0
 50 51  1  0  0  0
 50119  1  0  0  0
 50120  1  0  0  0
 51 52  1  0  0  0
 51121  1  0  0  0
 51122  1  0  0  0
 52123  1  0  0  0
 52124  1  0  0  0
 53 54  1  0  0  0
 54 55  2  0  0  0
 54125  1  0  0  0
 55 57  1  0  0  0
 55126  1  0  0  0
 56 69  2  0  0  0
 57 58  2  0  0  0
 57127  1  0  0  0
 58128  1  0  0  0
 59 60  1  0  0  0
 59 61  1  0  0  0
 59 62  1  0  0  0
 60129  1  0  0  0
 60130  1  0  0  0
 60131  1  0  0  0
 61132  1  0  0  0
 61133  1  0  0  0
 61134  1  0  0  0
 62135  1  0  0  0
 62136  1  0  0  0
 62137  1  0  0  0
 63 65  1  0  0  0
 63138  1  0  0  0
 63139  1  0  0  0
 63140  1  0  0  0
 64141  1  0  0  0
 65142  1  0  0  0
 68 80  1  0  0  0
 71 73  2  0  0  0
 71 74  1  0  0  0
 71143  1  0  0  0
 72 74  2  0  0  0
 72 82  1  0  0  0
 72144  1  0  0  0
 73 75  1  0  0  0
 73 77  1  0  0  0
 74 83  1  0  0  0
 75 78  1  0  0  0
 75 82  2  0  0  0
 76 79  1  0  0  0
 76145  1  0  0  0
 76146  1  0  0  0
 76147  1  0  0  0
 77 79  1  0  0  0
 77148  1  0  0  0
 77149  1  0  0  0
 78150  1  0  0  0
 78151  1  0  0  0
 79152  1  0  0  0
 79153  1  0  0  0
 80 81  1  0  0  0
 80154  1  0  0  0
 80155  1  0  0  0
 81 83  1  0  0  0
 81156  1  0  0  0
 81157  1  0  0  0
M  ISO  4   1 100  68 101  78 100  80 101
M  END
> <chiral flag>
0

> <version>
0

> <s_m_source_file>
/data/baiqing/PycharmProjects/Reinvent-master-3.2/result/LINK_invent/BTK/process_docking_weight1_custom_sum_contain_oxygen_bond_distance_aromatic_linkinvent_7_9_3/rearranged_h_0139.sdf

> <i_m_source_file_index>
70

> <r_mmod_Potential_Energy-OPLS-2005>
386.350708007812

> <r_mmod_Stretch_Energy-OPLS-2005>
201.865417480469

> <r_mmod_Bend_Energy-OPLS-2005>
284.757293701172

> <r_mmod_Torsional_Energy-OPLS-2005>
178.669937133789

> <r_mmod_Improper_Torsional_Energy-OPLS-2005>
4.01473093032837

> <r_mmod_Van_der_Waal_Energy-OPLS-2005>
131.699569702148

> <r_mmod_Electrostatic_Energy-OPLS-2005>
-351.671478271484

> <r_mmod_Solvation_Energy-OPLS-2005>
-204.949142456055

> <b_mmod_Minimization_Converged-OPLS-2005>
0

> <r_mmod_RMS_Derivative-OPLS-2005>
1.49303424358368

$$$$
70
                    3D
 Structure written by MMmdl.
160169  0  0  1  0            999 V2000
  -30.6662  -15.0697   20.3209 C   0  0  0  0  0  0
  -30.3952  -12.6931   19.5004 C   0  0  0  0  0  0
  -29.5013  -12.5150   18.2464 C   0  0  0  0  0  0
  -28.0018  -12.7100   18.5512 C   0  0  0  0  0  0
  -27.7225  -12.8144   20.0553 C   0  0  2  0  0  0
  -28.6525  -13.6395   20.9463 C   0  0  0  0  0  0
  -25.3051  -13.7564   20.5782 C   0  0  0  0  0  0
  -24.1849  -13.0317   20.9154 C   0  0  0  0  0  0
  -24.5840  -11.6669   20.8830 C   0  0  0  0  0  0
  -23.8502  -10.4188   21.0560 C   0  0  0  0  0  0
  -24.3244   -9.4117   21.9269 C   0  0  0  0  0  0
  -23.6094   -8.2081   22.0755 C   0  0  0  0  0  0
  -22.4100   -8.0067   21.3518 C   0  0  0  0  0  0
  -21.9627   -9.0020   20.4644 C   0  0  0  0  0  0
  -22.6768  -10.2004   20.3125 C   0  0  0  0  0  0
  -21.6714   -6.0631   22.5327 C   0  0  0  0  0  0
  -21.3903   -6.5600   23.8244 C   0  0  0  0  0  0
  -21.3652   -5.6785   24.9243 C   0  0  0  0  0  0
  -21.6071   -4.3052   24.7292 C   0  0  0  0  0  0
  -21.8799   -3.8110   23.4428 C   0  0  0  0  0  0
  -21.9129   -4.6900   22.3464 C   0  0  0  0  0  0
  -22.7971  -13.5417   21.1780 C   0  0  0  0  0  0
  -22.1646   -4.2083   21.1043 F   0  0  0  0  0  0
  -21.5698   -3.4539   25.7819 F   0  0  0  0  0  0
  -29.9215  -13.8957   20.2601 N   0  0  0  0  0  0
  -26.3145  -12.8085   20.4159 N   0  0  0  0  0  0
  -25.8547  -11.5634   20.6056 N   0  0  0  0  0  0
  -22.0528  -12.8469   22.0337 N   0  0  0  0  0  0
  -25.5253  -15.1186   20.4105 N   0  0  0  0  0  0
  -31.8813  -14.9295   20.1971 O   0  0  0  0  0  0
  -21.6509   -6.8658   21.4210 O   0  0  0  0  0  0
  -22.3778  -14.5724   20.6578 O   0  0  0  0  0  0
  -24.6442  -31.8437   23.1811 C   0  0  0  0  0  0
  -25.9224  -32.4660   23.8237 C   0  0  1  0  0  0
  -27.2215  -27.1027   20.1462 C   0  0  0  0  0  0
  -25.6003  -33.8461   24.2165 N   0  0  0  0  0  0
  -23.4508  -30.4568   21.5279 C   0  0  2  0  0  0
  -24.9023  -28.8748   20.1065 C   0  0  0  0  0  0
  -22.7568  -29.4539   22.4810 C   0  0  0  0  0  0
  -18.0317  -28.1397   22.8450 C   0  0  0  0  0  0
  -24.1504  -36.7251   23.2621 C   0  0  0  0  0  0
  -26.0062  -30.7009   21.3872 C   0  0  0  0  0  0
  -26.0785  -29.3063   20.7330 C   0  0  0  0  0  0
  -27.2343  -28.4339   20.7411 C   0  0  0  0  0  0
  -26.0205  -26.7836   19.4740 C   0  0  0  0  0  0
  -24.8871  -27.6261   19.4649 C   0  0  0  0  0  0
  -23.6791  -29.7811   20.1502 C   0  0  0  0  0  0
  -25.4122  -36.2990   24.0281 C   0  0  1  0  0  0
  -20.5918  -28.3749   23.1214 C   0  0  2  0  0  0
  -20.6815  -26.9439   22.5404 C   0  0  0  0  0  0
  -19.5810  -26.6372   21.5207 C   0  0  0  0  0  0
  -18.1963  -26.7928   22.1586 C   0  0  0  0  0  0
  -19.1566  -28.8889   23.2827 C   0  0  0  0  0  0
  -18.9485  -30.1471   23.8868 C   0  0  0  0  0  0
  -17.6481  -30.6595   24.0567 C   0  0  0  0  0  0
  -25.9085  -34.9370   23.5014 C   0  0  0  0  0  0
  -16.5371  -29.9099   23.6345 C   0  0  0  0  0  0
  -16.7298  -28.6521   23.0363 C   0  0  0  0  0  0
  -26.4572  -31.6522   25.0686 C   0  0  0  0  0  0
  -25.3779  -31.3684   26.1399 C   0  0  0  0  0  0
  -27.0454  -30.2920   24.6248 C   0  0  0  0  0  0
  -27.6114  -32.4270   25.7475 C   0  0  0  0  0  0
  -27.5564  -37.1752   24.8441 C   0  0  0  0  0  0
  -21.4259  -29.3070   22.3574 N   0  0  0  0  0  0
  -26.4278  -37.3729   23.9383 N   0  0  0  0  0  0
  -24.7203  -31.0221   22.0872 N   0  0  0  0  0  0
  -23.4166  -28.8107   23.2999 O   0  0  0  0  0  0
  -28.2668  -26.0996   20.2301 O   0  0  0  0  0  0
  -26.5666  -34.8869   22.4585 O   0  0  0  0  0  0
  -23.5559  -32.1404   23.6965 O   0  0  0  0  0  0
  -29.0601  -20.3212   20.2355 C   0  0  0  0  0  0
  -29.6589  -21.8086   18.4092 C   0  0  0  0  0  0
  -29.3595  -19.0663   19.4661 C   0  0  0  0  0  0
  -29.7137  -19.3497   18.1051 C   0  0  0  0  0  0
  -29.1509  -21.7314   19.7201 C   0  0  0  0  0  0
  -29.9452  -20.6728   17.6209 C   0  0  0  0  0  0
  -29.6469  -18.2108   17.0952 C   0  0  0  0  0  0
  -28.3496  -17.4326   17.3436 C   0  0  0  0  0  0
  -28.4565  -16.6664   18.6653 C   0  0  0  0  0  0
  -29.1217  -17.4330   19.8580 C   0  0  1  0  0  0
  -30.4808  -20.9400   16.2054 C   0  0  0  0  0  0
  -28.9309  -23.2139   20.4577 C   0  0  0  0  0  0
  -28.0851  -24.5752   19.8713 C   0  0  0  0  0  0
  -30.1896  -16.4222   20.4369 N   0  0  0  0  0  0
  -31.4389  -12.7715   19.1941 H   0  0  0  0  0  0
  -30.3451  -11.8079   20.1373 H   0  0  0  0  0  0
  -29.6773  -11.5271   17.8252 H   0  0  0  0  0  0
  -29.7969  -13.2338   17.4795 H   0  0  0  0  0  0
  -27.4194  -11.8945   18.1113 H   0  0  0  0  0  0
  -27.6558  -13.6312   18.0802 H   0  0  0  0  0  0
  -28.0754  -11.8229   20.3547 H   0  0  0  0  0  0
  -28.8393  -13.1605   21.9089 H   0  0  0  0  0  0
  -28.1789  -14.5952   21.1752 H   0  0  0  0  0  0
  -25.2422   -9.5686   22.4799 H   0  0  0  0  0  0
  -23.9894   -7.4432   22.7414 H   0  0  0  0  0  0
  -21.0598   -8.8415   19.8932 H   0  0  0  0  0  0
  -22.3169  -10.9542   19.6237 H   0  0  0  0  0  0
  -21.1837   -7.6091   23.9743 H   0  0  0  0  0  0
  -21.1532   -6.0535   25.9141 H   0  0  0  0  0  0
  -22.0598   -2.7561   23.2969 H   0  0  0  0  0  0
  -22.4014  -12.0065   22.4740 H   0  0  0  0  0  0
  -21.1243  -13.1704   22.2720 H   0  0  0  0  0  0
  -24.7906  -15.8117   20.5121 H   0  0  0  0  0  0
  -26.4284  -15.5148   20.1911 H   0  0  0  0  0  0
  -26.7240  -32.5252   23.0925 H   0  0  0  0  0  0
  -25.0178  -33.9594   25.0338 H   0  0  0  0  0  0
  -22.7522  -31.2800   21.3639 H   0  0  0  0  0  0
  -23.3770  -35.9589   23.3264 H   0  0  0  0  0  0
  -24.3582  -36.8923   22.2036 H   0  0  0  0  0  0
  -23.7252  -37.6408   23.6727 H   0  0  0  0  0  0
  -26.1528  -31.4470   20.6058 H   0  0  0  0  0  0
  -26.8786  -30.7652   22.0295 H   0  0  0  0  0  0
  -28.1252  -28.7534   21.2644 H   0  0  0  0  0  0
  -25.9177  -25.8364   18.9632 H   0  0  0  0  0  0
  -23.9913  -27.2919   18.9602 H   0  0  0  0  0  0
  -23.8144  -30.5564   19.3913 H   0  0  0  0  0  0
  -22.7936  -29.2208   19.8365 H   0  0  0  0  0  0
  -25.1287  -36.1818   25.0775 H   0  0  0  0  0  0
  -21.0011  -28.3389   24.1348 H   0  0  0  0  0  0
  -20.5720  -26.2370   23.3629 H   0  0  0  0  0  0
  -21.6668  -26.7460   22.1185 H   0  0  0  0  0  0
  -19.7001  -25.6282   21.1260 H   0  0  0  0  0  0
  -19.6756  -27.3159   20.6711 H   0  0  0  0  0  0
  -17.4233  -26.6666   21.3983 H   0  0  0  0  0  0
  -18.0383  -26.0072   22.8990 H   0  0  0  0  0  0
  -19.7967  -30.7290   24.2219 H   0  0  0  0  0  0
  -17.5062  -31.6273   24.5154 H   0  0  0  0  0  0
  -15.5384  -30.3011   23.7694 H   0  0  0  0  0  0
  -15.8693  -28.0840   22.7113 H   0  0  0  0  0  0
  -24.6024  -30.6939   25.7753 H   0  0  0  0  0  0
  -24.8907  -32.2837   26.4749 H   0  0  0  0  0  0
  -25.8123  -30.8942   27.0226 H   0  0  0  0  0  0
  -26.3079  -29.6596   24.1291 H   0  0  0  0  0  0
  -27.4121  -29.7229   25.4800 H   0  0  0  0  0  0
  -27.8964  -30.4120   23.9549 H   0  0  0  0  0  0
  -27.2753  -33.3624   26.1962 H   0  0  0  0  0  0
  -28.4027  -32.6707   25.0379 H   0  0  0  0  0  0
  -28.0718  -31.8446   26.5472 H   0  0  0  0  0  0
  -28.2524  -38.0116   24.7532 H   0  0  0  0  0  0
  -28.1122  -36.2606   24.6237 H   0  0  0  0  0  0
  -27.2282  -37.1353   25.8858 H   0  0  0  0  0  0
  -20.9490  -29.8745   21.6695 H   0  0  0  0  0  0
  -26.0132  -38.2770   24.1502 H   0  0  0  0  0  0
  -28.7120  -20.1888   21.2539 H   0  0  0  0  0  0
  -29.8447  -22.7827   17.9802 H   0  0  0  0  0  0
  -30.5324  -17.5764   17.1812 H   0  0  0  0  0  0
  -29.6237  -18.5695   16.0667 H   0  0  0  0  0  0
  -28.1619  -16.7411   16.5164 H   0  0  0  0  0  0
  -27.4860  -18.1078   17.3630 H   0  0  0  0  0  0
  -29.0400  -15.7851   18.3979 H   0  0  0  0  0  0
  -27.4832  -16.2743   18.9639 H   0  0  0  0  0  0
  -28.3656  -17.4835   20.6448 H   0  0  0  0  0  0
  -31.0071  -21.8971   16.1480 H   0  0  0  0  0  0
  -29.6690  -20.9817   15.4801 H   0  0  0  0  0  0
  -31.1936  -20.1813   15.8857 H   0  0  0  0  0  0
  -29.9501  -23.5757   20.5995 H   0  0  0  0  0  0
  -28.5861  -23.0131   21.4728 H   0  0  0  0  0  0
  -27.0423  -24.3319   20.0712 H   0  0  0  0  0  0
  -28.1715  -24.5457   18.7861 H   0  0  0  0  0  0
  -30.9827  -16.9735   20.7219 H   0  0  0  0  0  0
  1 25  1  0  0  0
  1 30  2  0  0  0
  1 84  1  0  0  0
  2  3  1  0  0  0
  2 25  1  0  0  0
  2 85  1  0  0  0
  2 86  1  0  0  0
  3  4  1  0  0  0
  3 87  1  0  0  0
  3 88  1  0  0  0
  4  5  1  0  0  0
  4 89  1  0  0  0
  4 90  1  0  0  0
  5  6  1  0  0  0
  5 26  1  0  0  0
  5 91  1  0  0  0
  6 25  1  0  0  0
  6 92  1  0  0  0
  6 93  1  0  0  0
  7  8  2  0  0  0
  7 26  1  0  0  0
  7 29  1  0  0  0
  8  9  1  0  0  0
  8 22  1  0  0  0
  9 10  1  0  0  0
  9 27  2  0  0  0
 10 11  2  0  0  0
 10 15  1  0  0  0
 11 12  1  0  0  0
 11 94  1  0  0  0
 12 13  2  0  0  0
 12 95  1  0  0  0
 13 14  1  0  0  0
 13 31  1  0  0  0
 14 15  2  0  0  0
 14 96  1  0  0  0
 15 97  1  0  0  0
 16 17  2  0  0  0
 16 21  1  0  0  0
 16 31  1  0  0  0
 17 18  1  0  0  0
 17 98  1  0  0  0
 18 19  2  0  0  0
 18 99  1  0  0  0
 19 20  1  0  0  0
 19 24  1  0  0  0
 20 21  2  0  0  0
 20100  1  0  0  0
 21 23  1  0  0  0
 22 28  1  0  0  0
 22 32  2  0  0  0
 26 27  1  0  0  0
 28101  1  0  0  0
 28102  1  0  0  0
 29103  1  0  0  0
 29104  1  0  0  0
 33 34  1  0  0  0
 33 66  1  0  0  0
 33 70  2  0  0  0
 34 36  1  0  0  0
 34 59  1  0  0  0
 34105  1  0  0  0
 35 44  2  0  0  0
 35 45  1  0  0  0
 35 68  1  0  0  0
 36 56  1  0  0  0
 36106  1  0  0  0
 37 39  1  0  0  0
 37 47  1  0  0  0
 37 66  1  0  0  0
 37107  1  0  0  0
 38 43  2  0  0  0
 38 46  1  0  0  0
 38 47  1  0  0  0
 39 64  1  0  0  0
 39 67  2  0  0  0
 40 52  1  0  0  0
 40 53  2  0  0  0
 40 58  1  0  0  0
 41108  1  0  0  0
 41109  1  0  0  0
 41110  1  0  0  0
 41 48  1  0  0  0
 42 43  1  0  0  0
 42 66  1  0  0  0
 42111  1  0  0  0
 42112  1  0  0  0
 43 44  1  0  0  0
 44113  1  0  0  0
 45 46  2  0  0  0
 45114  1  0  0  0
 46115  1  0  0  0
 47116  1  0  0  0
 47117  1  0  0  0
 48 56  1  0  0  0
 48 65  1  0  0  0
 48118  1  0  0  0
 49 50  1  0  0  0
 49 53  1  0  0  0
 49 64  1  0  0  0
 49119  1  0  0  0
 50 51  1  0  0  0
 50120  1  0  0  0
 50121  1  0  0  0
 51 52  1  0  0  0
 51122  1  0  0  0
 51123  1  0  0  0
 52124  1  0  0  0
 52125  1  0  0  0
 53 54  1  0  0  0
 54 55  2  0  0  0
 54126  1  0  0  0
 55 57  1  0  0  0
 55127  1  0  0  0
 56 69  2  0  0  0
 57 58  2  0  0  0
 57128  1  0  0  0
 58129  1  0  0  0
 59 60  1  0  0  0
 59 61  1  0  0  0
 59 62  1  0  0  0
 60130  1  0  0  0
 60131  1  0  0  0
 60132  1  0  0  0
 61133  1  0  0  0
 61134  1  0  0  0
 61135  1  0  0  0
 62136  1  0  0  0
 62137  1  0  0  0
 62138  1  0  0  0
 63 65  1  0  0  0
 63139  1  0  0  0
 63140  1  0  0  0
 63141  1  0  0  0
 64142  1  0  0  0
 65143  1  0  0  0
 68 83  1  0  0  0
 71 73  2  0  0  0
 71 75  1  0  0  0
 71144  1  0  0  0
 72 75  2  0  0  0
 72 76  1  0  0  0
 72145  1  0  0  0
 73 74  1  0  0  0
 73 80  1  0  0  0
 74 76  2  0  0  0
 74 77  1  0  0  0
 75 82  1  0  0  0
 76 81  1  0  0  0
 77 78  1  0  0  0
 77146  1  0  0  0
 77147  1  0  0  0
 78 79  1  0  0  0
 78148  1  0  0  0
 78149  1  0  0  0
 79 80  1  0  0  0
 79150  1  0  0  0
 79151  1  0  0  0
 80 84  1  0  0  0
 80152  1  0  0  0
 81153  1  0  0  0
 81154  1  0  0  0
 81155  1  0  0  0
 82 83  1  0  0  0
 82156  1  0  0  0
 82157  1  0  0  0
 83158  1  0  0  0
 83159  1  0  0  0
 84160  1  0  0  0
M  ISO  4   1 100  68 101  83 101  84 100
M  END
> <chiral flag>
0

> <version>
0

> <s_m_source_file>
/data/baiqing/PycharmProjects/Reinvent-master-3.2/result/LINK_invent/BTK/process_docking_weight1_custom_sum_contain_oxygen_bond_distance_aromatic_linkinvent_7_9_3/rearranged_h_0139.sdf

> <i_m_source_file_index>
71

> <r_mmod_Potential_Energy-OPLS-2005>
863.621337890625

> <r_mmod_Stretch_Energy-OPLS-2005>
314.111877441406

> <r_mmod_Bend_Energy-OPLS-2005>
370.369812011719

> <r_mmod_Torsional_Energy-OPLS-2005>
308.783905029297

> <r_mmod_Improper_Torsional_Energy-OPLS-2005>
6.02653408050537

> <r_mmod_Van_der_Waal_Energy-OPLS-2005>
145.791488647461

> <r_mmod_Electrostatic_Energy-OPLS-2005>
-408.850006103516

> <r_mmod_Solvation_Energy-OPLS-2005>
-203.531005859375

> <b_mmod_Minimization_Converged-OPLS-2005>
0

> <r_mmod_RMS_Derivative-OPLS-2005>
7.07111883163452

$$$$
71
                    3D
 Structure written by MMmdl.
161169  0  0  1  0            999 V2000
  -30.6196  -14.6384   20.5119 C   0  0  0  0  0  0
  -30.4365  -12.3977   19.4444 C   0  0  0  0  0  0
  -29.5053  -12.5082   18.2172 C   0  0  0  0  0  0
  -28.0280  -12.3436   18.6287 C   0  0  0  0  0  0
  -27.6494  -13.2141   19.8562 C   0  0  2  0  0  0
  -28.6932  -13.0721   20.9849 C   0  0  0  0  0  0
  -25.2547  -13.8151   20.5641 C   0  0  0  0  0  0
  -24.1819  -13.0430   20.9185 C   0  0  0  0  0  0
  -24.6385  -11.6899   20.8742 C   0  0  0  0  0  0
  -23.9053  -10.4284   21.0404 C   0  0  0  0  0  0
  -24.3607   -9.4202   21.9181 C   0  0  0  0  0  0
  -23.6284   -8.2238   22.0753 C   0  0  0  0  0  0
  -22.4270   -8.0272   21.3540 C   0  0  0  0  0  0
  -21.9898   -9.0246   20.4646 C   0  0  0  0  0  0
  -22.7225  -10.2126   20.3053 C   0  0  0  0  0  0
  -21.6851   -6.0727   22.5281 C   0  0  0  0  0  0
  -21.4020   -6.5635   23.8214 C   0  0  0  0  0  0
  -21.3655   -5.6788   24.9174 C   0  0  0  0  0  0
  -21.6037   -4.3051   24.7227 C   0  0  0  0  0  0
  -21.8822   -3.8143   23.4351 C   0  0  0  0  0  0
  -21.9195   -4.6955   22.3405 C   0  0  0  0  0  0
  -22.7845  -13.5234   21.1852 C   0  0  0  0  0  0
  -22.1665   -4.2142   21.0982 F   0  0  0  0  0  0
  -21.5619   -3.4536   25.7739 F   0  0  0  0  0  0
  -30.0045  -13.4188   20.4175 N   0  0  0  0  0  0
  -26.2965  -12.9330   20.3269 N   0  0  0  0  0  0
  -25.9309  -11.6492   20.5735 N   0  0  0  0  0  0
  -22.0484  -12.8229   22.0408 N   0  0  0  0  0  0
  -25.4262  -15.1864   20.3980 N   0  0  0  0  0  0
  -31.7924  -14.8006   20.1651 O   0  0  0  0  0  0
  -21.6638   -6.8869   21.4241 O   0  0  0  0  0  0
  -22.3541  -14.5542   20.6694 O   0  0  0  0  0  0
  -24.6262  -31.8599   23.2014 C   0  0  0  0  0  0
  -25.9116  -32.4776   23.8340 C   0  0  1  0  0  0
  -27.2247  -27.3172   20.1158 C   0  0  0  0  0  0
  -25.5946  -33.8574   24.2281 N   0  0  0  0  0  0
  -23.4174  -30.4852   21.5445 C   0  0  2  0  0  0
  -24.8605  -28.9340   20.1160 C   0  0  0  0  0  0
  -22.7471  -29.4634   22.4929 C   0  0  0  0  0  0
  -18.0296  -28.1385   22.8488 C   0  0  0  0  0  0
  -24.1488  -36.7275   23.2638 C   0  0  0  0  0  0
  -25.9579  -30.7912   21.3701 C   0  0  0  0  0  0
  -26.0298  -29.4166   20.7165 C   0  0  0  0  0  0
  -27.2111  -28.6200   20.7064 C   0  0  0  0  0  0
  -26.0228  -26.8769   19.5154 C   0  0  0  0  0  0
  -24.8585  -27.6688   19.5099 C   0  0  0  0  0  0
  -23.6311  -29.8180   20.1602 C   0  0  0  0  0  0
  -25.4113  -36.3076   24.0336 C   0  0  1  0  0  0
  -20.5892  -28.3687   23.1284 C   0  0  2  0  0  0
  -20.6776  -26.9408   22.5411 C   0  0  0  0  0  0
  -19.5750  -26.6385   21.5214 C   0  0  0  0  0  0
  -18.1933  -26.7929   22.1623 C   0  0  0  0  0  0
  -19.1544  -28.8851   23.2881 C   0  0  0  0  0  0
  -18.9465  -30.1461   23.8890 C   0  0  0  0  0  0
  -17.6462  -30.6581   24.0564 C   0  0  0  0  0  0
  -25.9052  -34.9451   23.5096 C   0  0  0  0  0  0
  -16.5356  -29.9079   23.6334 C   0  0  0  0  0  0
  -16.7281  -28.6498   23.0349 C   0  0  0  0  0  0
  -26.4504  -31.6581   25.0709 C   0  0  0  0  0  0
  -25.3750  -31.3735   26.1447 C   0  0  0  0  0  0
  -27.0327  -30.3001   24.6148 C   0  0  0  0  0  0
  -27.6065  -32.4304   25.7487 C   0  0  0  0  0  0
  -27.5581  -37.1795   24.8469 C   0  0  0  0  0  0
  -21.4187  -29.3043   22.3679 N   0  0  0  0  0  0
  -26.4288  -37.3779   23.9420 N   0  0  0  0  0  0
  -24.6861  -31.0624   22.0955 N   0  0  0  0  0  0
  -23.4206  -28.8180   23.3001 O   0  0  0  0  0  0
  -28.3878  -26.5311   20.1199 O   0  0  0  0  0  0
  -26.5602  -34.8921   22.4656 O   0  0  0  0  0  0
  -23.5434  -32.1392   23.7366 O   0  0  0  0  0  0
  -27.9735  -24.3054   19.0333 C   0  0  0  0  0  0
  -28.2490  -22.9089   18.9898 C   0  0  0  0  0  0
  -29.0683  -22.2926   19.9870 C   0  0  0  0  0  0
  -29.4964  -23.1908   21.0149 C   0  0  0  0  0  0
  -28.4379  -25.1149   20.0937 C   0  0  0  0  0  0
  -27.7061  -22.1240   17.8068 C   0  0  0  0  0  0
  -29.5874  -22.5249   23.4600 C   0  0  0  0  0  0
  -29.6312  -20.8104   19.7954 C   0  0  0  0  0  0
  -30.3820  -22.7326   22.1635 C   0  0  0  0  0  0
  -30.1233  -17.1531   21.0837 C   0  0  0  0  0  0
  -29.3518  -18.2429   20.2106 C   0  0  0  0  0  0
  -29.1853  -24.5260   21.0634 N   0  0  0  0  0  0
  -29.8129  -15.6972   20.8338 N   0  0  0  0  0  0
  -29.2993  -19.6732   20.7428 N   0  3  0  0  0  0
  -31.4773  -12.5293   19.1433 H   0  0  0  0  0  0
  -30.3764  -11.4027   19.8878 H   0  0  0  0  0  0
  -29.7727  -11.7595   17.4708 H   0  0  0  0  0  0
  -29.6443  -13.4788   17.7380 H   0  0  0  0  0  0
  -27.8643  -11.2899   18.8583 H   0  0  0  0  0  0
  -27.3745  -12.5753   17.7869 H   0  0  0  0  0  0
  -27.6661  -14.2482   19.5126 H   0  0  0  0  0  0
  -28.7070  -12.0503   21.3672 H   0  0  0  0  0  0
  -28.4382  -13.7051   21.8361 H   0  0  0  0  0  0
  -25.2751   -9.5678   22.4753 H   0  0  0  0  0  0
  -23.9994   -7.4627   22.7469 H   0  0  0  0  0  0
  -21.0829   -8.8756   19.8953 H   0  0  0  0  0  0
  -22.3678  -10.9657   19.6159 H   0  0  0  0  0  0
  -21.2024   -7.6145   23.9715 H   0  0  0  0  0  0
  -21.1467   -6.0518   25.9073 H   0  0  0  0  0  0
  -22.0606   -2.7606   23.2853 H   0  0  0  0  0  0
  -22.4091  -11.9884   22.4793 H   0  0  0  0  0  0
  -21.1104  -13.1266   22.2615 H   0  0  0  0  0  0
  -24.6471  -15.8324   20.4651 H   0  0  0  0  0  0
  -26.2534  -15.6068   19.9957 H   0  0  0  0  0  0
  -26.7185  -32.5446   23.1092 H   0  0  0  0  0  0
  -25.0185  -33.9715   25.0485 H   0  0  0  0  0  0
  -22.7117  -31.3063   21.4034 H   0  0  0  0  0  0
  -23.3764  -35.9595   23.3305 H   0  0  0  0  0  0
  -24.3579  -36.8879   22.2049 H   0  0  0  0  0  0
  -23.7229  -37.6476   23.6645 H   0  0  0  0  0  0
  -26.0925  -31.5547   20.6020 H   0  0  0  0  0  0
  -26.8373  -30.8392   22.0002 H   0  0  0  0  0  0
  -28.1129  -28.9949   21.1708 H   0  0  0  0  0  0
  -25.9444  -25.9077   19.0545 H   0  0  0  0  0  0
  -23.9578  -27.2900   19.0452 H   0  0  0  0  0  0
  -23.7564  -30.5933   19.4041 H   0  0  0  0  0  0
  -22.7493  -29.2509   19.8551 H   0  0  0  0  0  0
  -25.1299  -36.1925   25.0833 H   0  0  0  0  0  0
  -20.9996  -28.3260   24.1397 H   0  0  0  0  0  0
  -20.5660  -26.2302   23.3614 H   0  0  0  0  0  0
  -21.6652  -26.7416   22.1220 H   0  0  0  0  0  0
  -19.6897  -25.6294   21.1246 H   0  0  0  0  0  0
  -19.6692  -27.3192   20.6739 H   0  0  0  0  0  0
  -17.4210  -26.6704   21.4014 H   0  0  0  0  0  0
  -18.0314  -26.0059   22.9003 H   0  0  0  0  0  0
  -19.7939  -30.7289   24.2243 H   0  0  0  0  0  0
  -17.5013  -31.6256   24.5177 H   0  0  0  0  0  0
  -15.5353  -30.2977   23.7644 H   0  0  0  0  0  0
  -15.8692  -28.0816   22.7052 H   0  0  0  0  0  0
  -24.5965  -30.7015   25.7824 H   0  0  0  0  0  0
  -24.8900  -32.2906   26.4800 H   0  0  0  0  0  0
  -25.8108  -30.9010   27.0261 H   0  0  0  0  0  0
  -26.2880  -29.6765   24.1191 H   0  0  0  0  0  0
  -27.4053  -29.7246   25.4635 H   0  0  0  0  0  0
  -27.8748  -30.4291   23.9344 H   0  0  0  0  0  0
  -27.2698  -33.3652   26.1987 H   0  0  0  0  0  0
  -28.3931  -32.6772   25.0342 H   0  0  0  0  0  0
  -28.0664  -31.8467   26.5473 H   0  0  0  0  0  0
  -28.2604  -38.0087   24.7520 H   0  0  0  0  0  0
  -28.1074  -36.2622   24.6294 H   0  0  0  0  0  0
  -27.2305  -37.1444   25.8873 H   0  0  0  0  0  0
  -20.9360  -29.8778   21.6902 H   0  0  0  0  0  0
  -26.0169  -38.2853   24.1424 H   0  0  0  0  0  0
  -27.4534  -24.7622   18.2052 H   0  0  0  0  0  0
  -26.9339  -22.6861   17.2805 H   0  0  0  0  0  0
  -27.2541  -21.1875   18.1324 H   0  0  0  0  0  0
  -28.5005  -21.9043   17.0935 H   0  0  0  0  0  0
  -30.2359  -22.1815   24.2653 H   0  0  0  0  0  0
  -28.7950  -21.7881   23.3293 H   0  0  0  0  0  0
  -29.1218  -23.4555   23.7864 H   0  0  0  0  0  0
  -30.7187  -20.8828   19.7513 H   0  0  0  0  0  0
  -29.3663  -20.4676   18.7972 H   0  0  0  0  0  0
  -31.1550  -23.4836   22.3294 H   0  0  0  0  0  0
  -30.9237  -21.8239   21.9089 H   0  0  0  0  0  0
  -29.9009  -17.3315   22.1356 H   0  0  0  0  0  0
  -31.1978  -17.3127   20.9823 H   0  0  0  0  0  0
  -28.3175  -17.9251   20.0761 H   0  0  0  0  0  0
  -29.7841  -18.2416   19.2094 H   0  0  0  0  0  0
  -28.8607  -15.4286   21.0337 H   0  0  0  0  0  0
  -28.3589  -19.8122   21.0749 H   0  0  0  0  0  0
  -29.9054  -19.7307   21.5437 H   0  0  0  0  0  0
  1 25  1  0  0  0
  1 30  2  0  0  0
  1 83  1  0  0  0
  2  3  1  0  0  0
  2 25  1  0  0  0
  2 85  1  0  0  0
  2 86  1  0  0  0
  3  4  1  0  0  0
  3 87  1  0  0  0
  3 88  1  0  0  0
  4  5  1  0  0  0
  4 89  1  0  0  0
  4 90  1  0  0  0
  5  6  1  0  0  0
  5 26  1  0  0  0
  5 91  1  0  0  0
  6 25  1  0  0  0
  6 92  1  0  0  0
  6 93  1  0  0  0
  7  8  2  0  0  0
  7 26  1  0  0  0
  7 29  1  0  0  0
  8  9  1  0  0  0
  8 22  1  0  0  0
  9 10  1  0  0  0
  9 27  2  0  0  0
 10 11  2  0  0  0
 10 15  1  0  0  0
 11 12  1  0  0  0
 11 94  1  0  0  0
 12 13  2  0  0  0
 12 95  1  0  0  0
 13 14  1  0  0  0
 13 31  1  0  0  0
 14 15  2  0  0  0
 14 96  1  0  0  0
 15 97  1  0  0  0
 16 17  2  0  0  0
 16 21  1  0  0  0
 16 31  1  0  0  0
 17 18  1  0  0  0
 17 98  1  0  0  0
 18 19  2  0  0  0
 18 99  1  0  0  0
 19 20  1  0  0  0
 19 24  1  0  0  0
 20 21  2  0  0  0
 20100  1  0  0  0
 21 23  1  0  0  0
 22 28  1  0  0  0
 22 32  2  0  0  0
 26 27  1  0  0  0
 28101  1  0  0  0
 28102  1  0  0  0
 29103  1  0  0  0
 29104  1  0  0  0
 33 34  1  0  0  0
 33 66  1  0  0  0
 33 70  2  0  0  0
 34 36  1  0  0  0
 34 59  1  0  0  0
 34105  1  0  0  0
 35 44  2  0  0  0
 35 45  1  0  0  0
 35 68  1  0  0  0
 36 56  1  0  0  0
 36106  1  0  0  0
 37 39  1  0  0  0
 37 47  1  0  0  0
 37 66  1  0  0  0
 37107  1  0  0  0
 38 43  2  0  0  0
 38 46  1  0  0  0
 38 47  1  0  0  0
 39 64  1  0  0  0
 39 67  2  0  0  0
 40 52  1  0  0  0
 40 53  2  0  0  0
 40 58  1  0  0  0
 41108  1  0  0  0
 41109  1  0  0  0
 41110  1  0  0  0
 41 48  1  0  0  0
 42 43  1  0  0  0
 42 66  1  0  0  0
 42111  1  0  0  0
 42112  1  0  0  0
 43 44  1  0  0  0
 44113  1  0  0  0
 45 46  2  0  0  0
 45114  1  0  0  0
 46115  1  0  0  0
 47116  1  0  0  0
 47117  1  0  0  0
 48 56  1  0  0  0
 48 65  1  0  0  0
 48118  1  0  0  0
 49 50  1  0  0  0
 49 53  1  0  0  0
 49 64  1  0  0  0
 49119  1  0  0  0
 50 51  1  0  0  0
 50120  1  0  0  0
 50121  1  0  0  0
 51 52  1  0  0  0
 51122  1  0  0  0
 51123  1  0  0  0
 52124  1  0  0  0
 52125  1  0  0  0
 53 54  1  0  0  0
 54 55  2  0  0  0
 54126  1  0  0  0
 55 57  1  0  0  0
 55127  1  0  0  0
 56 69  2  0  0  0
 57 58  2  0  0  0
 57128  1  0  0  0
 58129  1  0  0  0
 59 60  1  0  0  0
 59 61  1  0  0  0
 59 62  1  0  0  0
 60130  1  0  0  0
 60131  1  0  0  0
 60132  1  0  0  0
 61133  1  0  0  0
 61134  1  0  0  0
 61135  1  0  0  0
 62136  1  0  0  0
 62137  1  0  0  0
 62138  1  0  0  0
 63 65  1  0  0  0
 63139  1  0  0  0
 63140  1  0  0  0
 63141  1  0  0  0
 64142  1  0  0  0
 65143  1  0  0  0
 68 75  1  0  0  0
 71 72  2  0  0  0
 71 75  1  0  0  0
 71144  1  0  0  0
 72 73  1  0  0  0
 72 76  1  0  0  0
 73 74  2  0  0  0
 73 78  1  0  0  0
 74 79  1  0  0  0
 74 82  1  0  0  0
 75 82  2  0  0  0
 76145  1  0  0  0
 76146  1  0  0  0
 76147  1  0  0  0
 77 79  1  0  0  0
 77148  1  0  0  0
 77149  1  0  0  0
 77150  1  0  0  0
 78 84  1  0  0  0
 78151  1  0  0  0
 78152  1  0  0  0
 79153  1  0  0  0
 79154  1  0  0  0
 80 81  1  0  0  0
 80 83  1  0  0  0
 80155  1  0  0  0
 80156  1  0  0  0
 81 84  1  0  0  0
 81157  1  0  0  0
 81158  1  0  0  0
 83159  1  0  0  0
 84160  1  0  0  0
 84161  1  0  0  0
M  CHG  1  84   1
M  ISO  4   1 100  68 101  75 101  83 100
M  END
> <chiral flag>
0

> <version>
0

> <s_m_source_file>
/data/baiqing/PycharmProjects/Reinvent-master-3.2/result/LINK_invent/BTK/process_docking_weight1_custom_sum_contain_oxygen_bond_distance_aromatic_linkinvent_7_9_3/rearranged_h_0139.sdf

> <i_m_source_file_index>
72

> <r_mmod_Potential_Energy-OPLS-2005>
-268.715301513672

> <r_mmod_Stretch_Energy-OPLS-2005>
81.0629348754883

> <r_mmod_Bend_Energy-OPLS-2005>
148.123779296875

> <r_mmod_Torsional_Energy-OPLS-2005>
216.076034545898

> <r_mmod_Improper_Torsional_Energy-OPLS-2005>
6.87751960754395

> <r_mmod_Van_der_Waal_Energy-OPLS-2005>
144.287384033203

> <r_mmod_Electrostatic_Energy-OPLS-2005>
-408.131500244141

> <r_mmod_Solvation_Energy-OPLS-2005>
-502.395355224609

> <b_mmod_Minimization_Converged-OPLS-2005>
0

> <r_mmod_RMS_Derivative-OPLS-2005>
1.4809775352478

$$$$
72
                    3D
 Structure written by MMmdl.
174184  0  0  1  0            999 V2000
  -30.5372  -14.9099   20.4936 C   0  0  0  0  0  0
  -30.4484  -12.5937   19.4569 C   0  0  0  0  0  0
  -29.4978  -12.5783   18.2341 C   0  0  0  0  0  0
  -28.0272  -12.3701   18.6462 C   0  0  0  0  0  0
  -27.6361  -13.2269   19.8788 C   0  0  2  0  0  0
  -28.7077  -13.0960   20.9865 C   0  0  0  0  0  0
  -25.2273  -13.7909   20.5488 C   0  0  0  0  0  0
  -24.1673  -13.0244   20.9201 C   0  0  0  0  0  0
  -24.6368  -11.6776   20.8821 C   0  0  0  0  0  0
  -23.9060  -10.4214   21.0455 C   0  0  0  0  0  0
  -24.3639   -9.4143   21.9218 C   0  0  0  0  0  0
  -23.6309   -8.2193   22.0762 C   0  0  0  0  0  0
  -22.4285   -8.0249   21.3554 C   0  0  0  0  0  0
  -21.9922   -9.0214   20.4649 C   0  0  0  0  0  0
  -22.7247  -10.2078   20.3078 C   0  0  0  0  0  0
  -21.6852   -6.0735   22.5288 C   0  0  0  0  0  0
  -21.4002   -6.5651   23.8211 C   0  0  0  0  0  0
  -21.3634   -5.6799   24.9176 C   0  0  0  0  0  0
  -21.6046   -4.3061   24.7220 C   0  0  0  0  0  0
  -21.8846   -3.8156   23.4342 C   0  0  0  0  0  0
  -21.9188   -4.6973   22.3400 C   0  0  0  0  0  0
  -22.7713  -13.5072   21.1879 C   0  0  0  0  0  0
  -22.1667   -4.2174   21.0974 F   0  0  0  0  0  0
  -21.5607   -3.4534   25.7718 F   0  0  0  0  0  0
  -29.9551  -13.6339   20.4123 N   0  0  0  0  0  0
  -26.2883  -12.9257   20.3441 N   0  0  0  0  0  0
  -25.9330  -11.6410   20.5938 N   0  0  0  0  0  0
  -22.0397  -12.8095   22.0474 N   0  0  0  0  0  0
  -25.3536  -15.1492   20.3348 N   0  0  0  0  0  0
  -31.7112  -14.9891   20.1081 O   0  0  0  0  0  0
  -21.6634   -6.8867   21.4252 O   0  0  0  0  0  0
  -22.3413  -14.5408   20.6741 O   0  0  0  0  0  0
  -24.6359  -31.8459   23.1856 C   0  0  0  0  0  0
  -25.9164  -32.4694   23.8248 C   0  0  1  0  0  0
  -27.2519  -27.2035   20.1518 C   0  0  0  0  0  0
  -25.5931  -33.8496   24.2178 N   0  0  0  0  0  0
  -23.4376  -30.4606   21.5274 C   0  0  2  0  0  0
  -24.8908  -28.8790   20.1118 C   0  0  0  0  0  0
  -22.7523  -29.4554   22.4845 C   0  0  0  0  0  0
  -18.0299  -28.1393   22.8488 C   0  0  0  0  0  0
  -24.1480  -36.7254   23.2642 C   0  0  0  0  0  0
  -25.9823  -30.7422   21.3683 C   0  0  0  0  0  0
  -26.0581  -29.3535   20.7195 C   0  0  0  0  0  0
  -27.2344  -28.5326   20.7142 C   0  0  0  0  0  0
  -26.0559  -26.7898   19.5279 C   0  0  0  0  0  0
  -24.8972  -27.6074   19.5048 C   0  0  0  0  0  0
  -23.6615  -29.7742   20.1498 C   0  0  0  0  0  0
  -25.4113  -36.3027   24.0313 C   0  0  1  0  0  0
  -20.5906  -28.3702   23.1234 C   0  0  2  0  0  0
  -20.6769  -26.9402   22.5402 C   0  0  0  0  0  0
  -19.5750  -26.6378   21.5205 C   0  0  0  0  0  0
  -18.1935  -26.7937   22.1627 C   0  0  0  0  0  0
  -19.1553  -28.8867   23.2863 C   0  0  0  0  0  0
  -18.9480  -30.1465   23.8883 C   0  0  0  0  0  0
  -17.6478  -30.6586   24.0568 C   0  0  0  0  0  0
  -25.9061  -34.9407   23.5062 C   0  0  0  0  0  0
  -16.5366  -29.9090   23.6333 C   0  0  0  0  0  0
  -16.7289  -28.6510   23.0356 C   0  0  0  0  0  0
  -26.4523  -31.6560   25.0679 C   0  0  0  0  0  0
  -25.3731  -31.3730   26.1393 C   0  0  0  0  0  0
  -27.0384  -30.2968   24.6211 C   0  0  0  0  0  0
  -27.6063  -32.4321   25.7469 C   0  0  0  0  0  0
  -27.5559  -37.1773   24.8464 C   0  0  0  0  0  0
  -21.4220  -29.3039   22.3605 N   0  0  0  0  0  0
  -26.4270  -37.3745   23.9412 N   0  0  0  0  0  0
  -24.7052  -31.0364   22.0845 N   0  0  0  0  0  0
  -23.4189  -28.8130   23.3002 O   0  0  0  0  0  0
  -28.4181  -26.3844   20.1997 O   0  0  0  0  0  0
  -26.5647  -34.8911   22.4632 O   0  0  0  0  0  0
  -23.5500  -32.1321   23.7106 O   0  0  0  0  0  0
  -25.9885  -20.1097   17.9094 C   0  0  0  0  0  0
  -26.5070  -20.2435   16.6109 C   0  0  0  0  0  0
  -26.5765  -19.2019   18.8109 C   0  0  0  0  0  0
  -27.6096  -19.4661   16.2194 C   0  0  0  0  0  0
  -27.6998  -18.4199   18.4405 C   0  0  0  0  0  0
  -28.2127  -18.5572   17.1166 C   0  0  0  0  0  0
  -28.7210  -24.0348   18.8608 C   0  0  0  0  0  0
  -28.0424  -23.8587   21.2565 C   0  0  0  0  0  0
  -28.7133  -22.4303   18.9520 C   0  0  0  0  0  0
  -28.7971  -22.4370   21.4291 C   0  0  0  0  0  0
  -27.6898  -17.3282   20.8464 C   0  0  0  0  0  0
  -28.6025  -16.3056   21.5548 C   0  0  0  0  0  0
  -28.2760  -17.3904   19.4318 C   0  0  2  0  0  0
  -28.6158  -24.8582   20.1906 C   0  0  2  0  0  0
  -29.3828  -21.6724   20.1655 C   0  0  1  0  0  0
  -29.7551  -17.4509   19.8536 C   0  0  2  0  0  0
  -29.3934  -17.7496   16.5980 C   0  0  0  0  0  0
  -30.0541  -18.9842   20.4726 C   0  0  0  0  0  0
  -29.7879  -16.1208   20.6863 N   0  0  0  0  0  0
  -29.1824  -20.1658   20.0534 O   0  0  0  0  0  0
  -31.4621  -12.7989   19.1110 H   0  0  0  0  0  0
  -30.5028  -11.6083   19.9236 H   0  0  0  0  0  0
  -29.7938  -11.8073   17.5230 H   0  0  0  0  0  0
  -29.5828  -13.5326   17.7118 H   0  0  0  0  0  0
  -27.8868  -11.3122   18.8695 H   0  0  0  0  0  0
  -27.3678  -12.5924   17.8049 H   0  0  0  0  0  0
  -27.6271  -14.2616   19.5424 H   0  0  0  0  0  0
  -28.4411  -13.5210   21.9488 H   0  0  0  0  0  0
  -28.8273  -12.0421   21.2402 H   0  0  0  0  0  0
  -25.2809   -9.5627   22.4755 H   0  0  0  0  0  0
  -24.0024   -7.4599   22.7481 H   0  0  0  0  0  0
  -21.0856   -8.8731   19.8972 H   0  0  0  0  0  0
  -22.3733  -10.9614   19.6164 H   0  0  0  0  0  0
  -21.2009   -7.6166   23.9704 H   0  0  0  0  0  0
  -21.1414   -6.0538   25.9063 H   0  0  0  0  0  0
  -22.0660   -2.7626   23.2820 H   0  0  0  0  0  0
  -22.4067  -11.9788   22.4873 H   0  0  0  0  0  0
  -21.1012  -13.1076   22.2708 H   0  0  0  0  0  0
  -24.5550  -15.7727   20.3881 H   0  0  0  0  0  0
  -26.1843  -15.5869   19.9641 H   0  0  0  0  0  0
  -26.7223  -32.5326   23.0978 H   0  0  0  0  0  0
  -25.0097  -33.9609   25.0339 H   0  0  0  0  0  0
  -22.7382  -31.2835   21.3650 H   0  0  0  0  0  0
  -23.3740  -35.9581   23.3300 H   0  0  0  0  0  0
  -24.3568  -36.8901   22.2055 H   0  0  0  0  0  0
  -23.7233  -37.6447   23.6691 H   0  0  0  0  0  0
  -26.1211  -31.4958   20.5915 H   0  0  0  0  0  0
  -26.8581  -30.8000   22.0035 H   0  0  0  0  0  0
  -28.1342  -28.9011   21.1869 H   0  0  0  0  0  0
  -26.0107  -25.8150   19.0629 H   0  0  0  0  0  0
  -24.0024  -27.2371   19.0237 H   0  0  0  0  0  0
  -23.7878  -30.5413   19.3841 H   0  0  0  0  0  0
  -22.7797  -29.2059   19.8469 H   0  0  0  0  0  0
  -25.1295  -36.1861   25.0801 H   0  0  0  0  0  0
  -21.0027  -28.3300   24.1343 H   0  0  0  0  0  0
  -20.5632  -26.2324   23.3631 H   0  0  0  0  0  0
  -21.6642  -26.7389   22.1213 H   0  0  0  0  0  0
  -19.6909  -25.6287   21.1246 H   0  0  0  0  0  0
  -19.6689  -27.3181   20.6735 H   0  0  0  0  0  0
  -17.4196  -26.6684   21.4036 H   0  0  0  0  0  0
  -18.0334  -26.0073   22.9021 H   0  0  0  0  0  0
  -19.7951  -30.7291   24.2237 H   0  0  0  0  0  0
  -17.5029  -31.6270   24.5173 H   0  0  0  0  0  0
  -15.5365  -30.2996   23.7655 H   0  0  0  0  0  0
  -15.8691  -28.0832   22.7064 H   0  0  0  0  0  0
  -24.5926  -30.7057   25.7732 H   0  0  0  0  0  0
  -24.8900  -32.2898   26.4770 H   0  0  0  0  0  0
  -25.8041  -30.8954   27.0203 H   0  0  0  0  0  0
  -26.2977  -29.6690   24.1241 H   0  0  0  0  0  0
  -27.4057  -29.7270   25.4760 H   0  0  0  0  0  0
  -27.8860  -30.4223   23.9473 H   0  0  0  0  0  0
  -27.2666  -33.3652   26.1976 H   0  0  0  0  0  0
  -28.3917  -32.6826   25.0327 H   0  0  0  0  0  0
  -28.0685  -31.8490   26.5446 H   0  0  0  0  0  0
  -28.2570  -38.0075   24.7509 H   0  0  0  0  0  0
  -28.1067  -36.2602   24.6301 H   0  0  0  0  0  0
  -27.2281  -37.1435   25.8870 H   0  0  0  0  0  0
  -20.9416  -29.8777   21.6810 H   0  0  0  0  0  0
  -26.0141  -38.2809   24.1442 H   0  0  0  0  0  0
  -25.1414  -20.7094   18.2153 H   0  0  0  0  0  0
  -26.0597  -20.9360   15.9109 H   0  0  0  0  0  0
  -26.1462  -19.1214   19.7981 H   0  0  0  0  0  0
  -27.9893  -19.5694   15.2121 H   0  0  0  0  0  0
  -27.9032  -24.3372   18.2050 H   0  0  0  0  0  0
  -29.6281  -24.3469   18.3435 H   0  0  0  0  0  0
  -28.0082  -24.3582   22.2249 H   0  0  0  0  0  0
  -27.0009  -23.6618   21.0040 H   0  0  0  0  0  0
  -29.1264  -22.0346   18.0234 H   0  0  0  0  0  0
  -27.6674  -22.1234   18.9437 H   0  0  0  0  0  0
  -28.1183  -21.7627   21.9531 H   0  0  0  0  0  0
  -29.6220  -22.5823   22.1267 H   0  0  0  0  0  0
  -27.7486  -18.2881   21.3596 H   0  0  0  0  0  0
  -26.6389  -17.0851   20.8832 H   0  0  0  0  0  0
  -28.0000  -15.4299   21.7252 H   0  0  0  0  0  0
  -28.9066  -16.6699   22.5379 H   0  0  0  0  0  0
  -28.0800  -16.4365   18.9431 H   0  0  0  0  0  0
  -29.6615  -24.8743   20.5041 H   0  0  0  0  0  0
  -30.4568  -21.8585   20.1100 H   0  0  0  0  0  0
  -30.4045  -17.3008   18.9945 H   0  0  0  0  0  0
  -29.4424  -17.7851   15.5090 H   0  0  0  0  0  0
  -29.3204  -16.6999   16.8830 H   0  0  0  0  0  0
  -30.3377  -18.1558   16.9636 H   0  0  0  0  0  0
  -31.0849  -19.2341   20.2253 H   0  0  0  0  0  0
  -30.0331  -18.9406   21.5633 H   0  0  0  0  0  0
  1 25  1  0  0  0
  1 30  2  0  0  0
  1 89  1  0  0  0
  2  3  1  0  0  0
  2 25  1  0  0  0
  2 91  1  0  0  0
  2 92  1  0  0  0
  3  4  1  0  0  0
  3 93  1  0  0  0
  3 94  1  0  0  0
  4  5  1  0  0  0
  4 95  1  0  0  0
  4 96  1  0  0  0
  5  6  1  0  0  0
  5 26  1  0  0  0
  5 97  1  0  0  0
  6 25  1  0  0  0
  6 98  1  0  0  0
  6 99  1  0  0  0
  7  8  2  0  0  0
  7 26  1  0  0  0
  7 29  1  0  0  0
  8  9  1  0  0  0
  8 22  1  0  0  0
  9 10  1  0  0  0
  9 27  2  0  0  0
 10 11  2  0  0  0
 10 15  1  0  0  0
 11 12  1  0  0  0
 11100  1  0  0  0
 12 13  2  0  0  0
 12101  1  0  0  0
 13 14  1  0  0  0
 13 31  1  0  0  0
 14 15  2  0  0  0
 14102  1  0  0  0
 15103  1  0  0  0
 16 17  2  0  0  0
 16 21  1  0  0  0
 16 31  1  0  0  0
 17 18  1  0  0  0
 17104  1  0  0  0
 18 19  2  0  0  0
 18105  1  0  0  0
 19 20  1  0  0  0
 19 24  1  0  0  0
 20 21  2  0  0  0
 20106  1  0  0  0
 21 23  1  0  0  0
 22 28  1  0  0  0
 22 32  2  0  0  0
 26 27  1  0  0  0
 28107  1  0  0  0
 28108  1  0  0  0
 29109  1  0  0  0
 29110  1  0  0  0
 33 34  1  0  0  0
 33 66  1  0  0  0
 33 70  2  0  0  0
 34 36  1  0  0  0
 34 59  1  0  0  0
 34111  1  0  0  0
 35 44  2  0  0  0
 35 45  1  0  0  0
 35 68  1  0  0  0
 36 56  1  0  0  0
 36112  1  0  0  0
 37 39  1  0  0  0
 37 47  1  0  0  0
 37 66  1  0  0  0
 37113  1  0  0  0
 38 43  2  0  0  0
 38 46  1  0  0  0
 38 47  1  0  0  0
 39 64  1  0  0  0
 39 67  2  0  0  0
 40 52  1  0  0  0
 40 53  2  0  0  0
 40 58  1  0  0  0
 41114  1  0  0  0
 41115  1  0  0  0
 41116  1  0  0  0
 41 48  1  0  0  0
 42 43  1  0  0  0
 42 66  1  0  0  0
 42117  1  0  0  0
 42118  1  0  0  0
 43 44  1  0  0  0
 44119  1  0  0  0
 45 46  2  0  0  0
 45120  1  0  0  0
 46121  1  0  0  0
 47122  1  0  0  0
 47123  1  0  0  0
 48 56  1  0  0  0
 48 65  1  0  0  0
 48124  1  0  0  0
 49 50  1  0  0  0
 49 53  1  0  0  0
 49 64  1  0  0  0
 49125  1  0  0  0
 50 51  1  0  0  0
 50126  1  0  0  0
 50127  1  0  0  0
 51 52  1  0  0  0
 51128  1  0  0  0
 51129  1  0  0  0
 52130  1  0  0  0
 52131  1  0  0  0
 53 54  1  0  0  0
 54 55  2  0  0  0
 54132  1  0  0  0
 55 57  1  0  0  0
 55133  1  0  0  0
 56 69  2  0  0  0
 57 58  2  0  0  0
 57134  1  0  0  0
 58135  1  0  0  0
 59 60  1  0  0  0
 59 61  1  0  0  0
 59 62  1  0  0  0
 60136  1  0  0  0
 60137  1  0  0  0
 60138  1  0  0  0
 61139  1  0  0  0
 61140  1  0  0  0
 61141  1  0  0  0
 62142  1  0  0  0
 62143  1  0  0  0
 62144  1  0  0  0
 63 65  1  0  0  0
 63145  1  0  0  0
 63146  1  0  0  0
 63147  1  0  0  0
 64148  1  0  0  0
 65149  1  0  0  0
 68 84  1  0  0  0
 71 72  2  0  0  0
 71 73  1  0  0  0
 71150  1  0  0  0
 72 74  1  0  0  0
 72151  1  0  0  0
 73 75  2  0  0  0
 73152  1  0  0  0
 74 76  2  0  0  0
 74153  1  0  0  0
 75 76  1  0  0  0
 75 83  1  0  0  0
 76 87  1  0  0  0
 77 79  1  0  0  0
 77 84  1  0  0  0
 77154  1  0  0  0
 77155  1  0  0  0
 78 80  1  0  0  0
 78 84  1  0  0  0
 78156  1  0  0  0
 78157  1  0  0  0
 79 85  1  0  0  0
 79158  1  0  0  0
 79159  1  0  0  0
 80 85  1  0  0  0
 80160  1  0  0  0
 80161  1  0  0  0
 81 82  1  0  0  0
 81 83  1  0  0  0
 81162  1  0  0  0
 81163  1  0  0  0
 82 89  1  0  0  0
 82164  1  0  0  0
 82165  1  0  0  0
 83 86  1  0  0  0
 83166  1  0  0  0
 84167  1  0  0  0
 85 90  1  0  0  0
 85168  1  0  0  0
 86 88  1  0  0  0
 86 89  1  0  0  0
 86169  1  0  0  0
 87170  1  0  0  0
 87171  1  0  0  0
 87172  1  0  0  0
 88 90  1  0  0  0
 88173  1  0  0  0
 88174  1  0  0  0
M  ISO  4   1 100  68 101  84 101  89 100
M  END
> <chiral flag>
0

> <version>
0

> <s_m_source_file>
/data/baiqing/PycharmProjects/Reinvent-master-3.2/result/LINK_invent/BTK/process_docking_weight1_custom_sum_contain_oxygen_bond_distance_aromatic_linkinvent_7_9_3/rearranged_h_0139.sdf

> <i_m_source_file_index>
73

> <r_mmod_Potential_Energy-OPLS-2005>
770.99267578125

> <r_mmod_Stretch_Energy-OPLS-2005>
215.089370727539

> <r_mmod_Bend_Energy-OPLS-2005>
405.457550048828

> <r_mmod_Torsional_Energy-OPLS-2005>
392.744323730469

> <r_mmod_Improper_Torsional_Energy-OPLS-2005>
8.84379196166992

> <r_mmod_Van_der_Waal_Energy-OPLS-2005>
140.894668579102

> <r_mmod_Electrostatic_Energy-OPLS-2005>
-329.394439697266

> <r_mmod_Solvation_Energy-OPLS-2005>
-197.038467407227

> <b_mmod_Minimization_Converged-OPLS-2005>
0

> <r_mmod_RMS_Derivative-OPLS-2005>
3.05939149856567

$$$$
73
                    3D
 Structure written by MMmdl.
169178  0  0  1  0            999 V2000
  -30.6509  -14.6105   20.5436 C   0  0  0  0  0  0
  -30.4234  -12.3875   19.4568 C   0  0  0  0  0  0
  -29.4916  -12.5018   18.2295 C   0  0  0  0  0  0
  -28.0212  -12.3251   18.6495 C   0  0  0  0  0  0
  -27.6465  -13.2129   19.8632 C   0  0  2  0  0  0
  -28.6825  -13.0894   20.9980 C   0  0  0  0  0  0
  -25.2516  -13.8162   20.5698 C   0  0  0  0  0  0
  -24.1782  -13.0475   20.9196 C   0  0  0  0  0  0
  -24.6327  -11.6918   20.8751 C   0  0  0  0  0  0
  -23.9032  -10.4308   21.0439 C   0  0  0  0  0  0
  -24.3609   -9.4216   21.9210 C   0  0  0  0  0  0
  -23.6292   -8.2254   22.0767 C   0  0  0  0  0  0
  -22.4277   -8.0272   21.3553 C   0  0  0  0  0  0
  -21.9918   -9.0255   20.4661 C   0  0  0  0  0  0
  -22.7227  -10.2130   20.3077 C   0  0  0  0  0  0
  -21.6859   -6.0733   22.5264 C   0  0  0  0  0  0
  -21.4029   -6.5648   23.8192 C   0  0  0  0  0  0
  -21.3660   -5.6800   24.9164 C   0  0  0  0  0  0
  -21.6051   -4.3063   24.7213 C   0  0  0  0  0  0
  -21.8828   -3.8148   23.4337 C   0  0  0  0  0  0
  -21.9192   -4.6966   22.3386 C   0  0  0  0  0  0
  -22.7794  -13.5247   21.1834 C   0  0  0  0  0  0
  -22.1665   -4.2152   21.0966 F   0  0  0  0  0  0
  -21.5622   -3.4542   25.7725 F   0  0  0  0  0  0
  -30.0025  -13.4116   20.4352 N   0  0  0  0  0  0
  -26.2941  -12.9351   20.3332 N   0  0  0  0  0  0
  -25.9257  -11.6524   20.5799 N   0  0  0  0  0  0
  -22.0453  -12.8248   22.0387 N   0  0  0  0  0  0
  -25.4276  -15.1894   20.4046 N   0  0  0  0  0  0
  -31.8078  -14.7563   20.1366 O   0  0  0  0  0  0
  -21.6647   -6.8872   21.4221 O   0  0  0  0  0  0
  -22.3490  -14.5585   20.6652 O   0  0  0  0  0  0
  -24.6227  -31.8663   23.2156 C   0  0  0  0  0  0
  -25.9106  -32.4807   23.8462 C   0  0  1  0  0  0
  -27.2093  -27.3502   20.0663 C   0  0  0  0  0  0
  -25.5965  -33.8611   24.2354 N   0  0  0  0  0  0
  -23.4128  -30.5037   21.5534 C   0  0  2  0  0  0
  -24.8554  -28.9705   20.1134 C   0  0  0  0  0  0
  -22.7332  -29.4844   22.4951 C   0  0  0  0  0  0
  -18.0380  -28.1382   22.8555 C   0  0  0  0  0  0
  -24.1497  -36.7290   23.2628 C   0  0  0  0  0  0
  -25.9628  -30.7857   21.4058 C   0  0  0  0  0  0
  -26.0231  -29.4230   20.7413 C   0  0  0  0  0  0
  -27.1946  -28.6111   20.7354 C   0  0  0  0  0  0
  -26.0348  -26.9943   19.3760 C   0  0  0  0  0  0
  -24.8584  -27.7514   19.4316 C   0  0  0  0  0  0
  -23.6237  -29.8478   20.1660 C   0  0  0  0  0  0
  -25.4124  -36.3101   24.0328 C   0  0  1  0  0  0
  -20.5867  -28.4062   23.1502 C   0  0  2  0  0  0
  -20.6874  -26.9671   22.5982 C   0  0  0  0  0  0
  -19.6186  -26.6634   21.5497 C   0  0  0  0  0  0
  -18.2371  -26.7875   22.1915 C   0  0  0  0  0  0
  -19.1467  -28.9072   23.3003 C   0  0  0  0  0  0
  -18.9150  -30.1628   23.9071 C   0  0  0  0  0  0
  -17.6065  -30.6526   24.0525 C   0  0  0  0  0  0
  -25.9037  -34.9456   23.5115 C   0  0  0  0  0  0
  -16.5127  -29.8879   23.6103 C   0  0  0  0  0  0
  -16.7274  -28.6274   23.0281 C   0  0  0  0  0  0
  -26.4513  -31.6610   25.0820 C   0  0  0  0  0  0
  -25.3768  -31.3709   26.1541 C   0  0  0  0  0  0
  -27.0365  -30.3025   24.6321 C   0  0  0  0  0  0
  -27.6068  -32.4357   25.7575 C   0  0  0  0  0  0
  -27.5591  -37.1829   24.8471 C   0  0  0  0  0  0
  -21.4057  -29.3257   22.3634 N   0  0  0  0  0  0
  -26.4319  -37.3793   23.9390 N   0  0  0  0  0  0
  -24.6832  -31.0680   22.1124 N   0  0  0  0  0  0
  -23.4001  -28.8377   23.3085 O   0  0  0  0  0  0
  -28.3239  -26.5007   20.1055 O   0  0  0  0  0  0
  -26.5555  -34.8913   22.4657 O   0  0  0  0  0  0
  -23.5397  -32.1482   23.7455 O   0  0  0  0  0  0
  -25.1069  -23.3749   19.5713 C   0  0  0  0  0  0
  -26.2913  -23.8566   18.9900 C   0  0  0  0  0  0
  -25.1651  -23.0059   20.9193 C   0  0  0  0  0  0
  -26.3902  -22.8359   21.5608 C   0  0  0  0  0  0
  -27.4650  -24.0238   19.7666 C   0  0  0  0  0  0
  -27.6067  -23.1304   20.8898 C   0  0  0  0  0  0
  -23.9930  -22.7165   21.8078 C   0  0  0  0  0  0
  -26.1608  -22.3964   22.9915 C   0  0  0  0  0  0
  -24.6432  -22.6411   23.2046 C   0  0  0  0  0  0
  -29.4766  -22.6134   22.5641 C   0  0  0  0  0  0
  -28.4068  -25.2133   19.3725 C   0  0  0  0  0  0
  -30.3787  -17.1070   21.1562 C   0  0  0  0  0  0
  -29.3216  -18.2562   20.8400 C   0  0  0  0  0  0
  -28.5955  -20.7222   20.9686 C   0  0  0  0  0  0
  -28.8849  -22.2833   21.1793 C   0  0  1  0  0  0
  -29.9193  -15.6825   20.9723 N   0  0  0  0  0  0
  -29.6922  -19.6939   21.1759 N   0  3  0  0  0  0
  -31.4612  -12.5149   19.1442 H   0  0  0  0  0  0
  -30.3670  -11.3952   19.9062 H   0  0  0  0  0  0
  -29.7616  -11.7602   17.4775 H   0  0  0  0  0  0
  -29.6195  -13.4766   17.7557 H   0  0  0  0  0  0
  -27.8741  -11.2716   18.8970 H   0  0  0  0  0  0
  -27.3601  -12.5399   17.8102 H   0  0  0  0  0  0
  -27.6636  -14.2422   19.5048 H   0  0  0  0  0  0
  -28.6795  -12.0869   21.4237 H   0  0  0  0  0  0
  -28.4160  -13.7564   21.8171 H   0  0  0  0  0  0
  -25.2761   -9.5690   22.4781 H   0  0  0  0  0  0
  -24.0004   -7.4655   22.7486 H   0  0  0  0  0  0
  -21.0871   -8.8776   19.8951 H   0  0  0  0  0  0
  -22.3719  -10.9672   19.6180 H   0  0  0  0  0  0
  -21.2030   -7.6157   23.9697 H   0  0  0  0  0  0
  -21.1480   -6.0532   25.9066 H   0  0  0  0  0  0
  -22.0600   -2.7608   23.2826 H   0  0  0  0  0  0
  -22.4106  -11.9915   22.4756 H   0  0  0  0  0  0
  -21.1049  -13.1229   22.2604 H   0  0  0  0  0  0
  -24.6602  -15.8459   20.4992 H   0  0  0  0  0  0
  -26.2716  -15.6142   20.0462 H   0  0  0  0  0  0
  -26.7133  -32.5479   23.1182 H   0  0  0  0  0  0
  -25.0335  -33.9816   25.0626 H   0  0  0  0  0  0
  -22.7130  -31.3321   21.4113 H   0  0  0  0  0  0
  -23.3772  -35.9613   23.3302 H   0  0  0  0  0  0
  -24.3605  -36.8882   22.2046 H   0  0  0  0  0  0
  -23.7223  -37.6491   23.6608 H   0  0  0  0  0  0
  -26.1138  -31.5540   20.6474 H   0  0  0  0  0  0
  -26.8346  -30.8133   22.0494 H   0  0  0  0  0  0
  -28.0869  -28.9315   21.2553 H   0  0  0  0  0  0
  -25.9936  -26.1535   18.7277 H   0  0  0  0  0  0
  -23.9731  -27.4181   18.9067 H   0  0  0  0  0  0
  -23.7490  -30.6240   19.4123 H   0  0  0  0  0  0
  -22.7439  -29.2776   19.8636 H   0  0  0  0  0  0
  -25.1300  -36.2006   25.0827 H   0  0  0  0  0  0
  -20.9939  -28.4061   24.1607 H   0  0  0  0  0  0
  -20.5316  -26.2960   23.4399 H   0  0  0  0  0  0
  -21.6912  -26.7325   22.2412 H   0  0  0  0  0  0
  -19.7595  -25.6599   21.1447 H   0  0  0  0  0  0
  -19.7114  -27.3683   20.7202 H   0  0  0  0  0  0
  -17.4632  -26.5994   21.4521 H   0  0  0  0  0  0
  -18.1265  -26.0238   22.9560 H   0  0  0  0  0  0
  -19.7400  -30.7562   24.2788 H   0  0  0  0  0  0
  -17.4242  -31.6115   24.5205 H   0  0  0  0  0  0
  -15.5024  -30.2547   23.7252 H   0  0  0  0  0  0
  -15.8841  -28.0290   22.7051 H   0  0  0  0  0  0
  -24.5998  -30.6991   25.7864 H   0  0  0  0  0  0
  -24.8912  -32.2854   26.4960 H   0  0  0  0  0  0
  -25.8165  -30.8933   27.0305 H   0  0  0  0  0  0
  -26.2960  -29.6779   24.1320 H   0  0  0  0  0  0
  -27.3951  -29.7305   25.4875 H   0  0  0  0  0  0
  -27.8875  -30.4245   23.9622 H   0  0  0  0  0  0
  -27.2662  -33.3628   26.2185 H   0  0  0  0  0  0
  -28.3870  -32.6981   25.0419 H   0  0  0  0  0  0
  -28.0736  -31.8494   26.5490 H   0  0  0  0  0  0
  -28.2623  -38.0114   24.7521 H   0  0  0  0  0  0
  -28.1078  -36.2654   24.6301 H   0  0  0  0  0  0
  -27.2304  -37.1471   25.8873 H   0  0  0  0  0  0
  -20.9243  -29.8538   21.6471 H   0  0  0  0  0  0
  -26.0208  -38.2877   24.1381 H   0  0  0  0  0  0
  -24.1713  -23.4032   19.0345 H   0  0  0  0  0  0
  -26.2260  -24.2719   17.9962 H   0  0  0  0  0  0
  -23.5566  -21.7683   21.4916 H   0  0  0  0  0  0
  -23.2257  -23.4891   21.7346 H   0  0  0  0  0  0
  -26.7389  -22.9974   23.6887 H   0  0  0  0  0  0
  -26.4082  -21.3465   23.1351 H   0  0  0  0  0  0
  -24.1713  -21.9173   23.8721 H   0  0  0  0  0  0
  -24.5371  -23.6324   23.6586 H   0  0  0  0  0  0
  -29.5462  -23.6922   22.6955 H   0  0  0  0  0  0
  -30.4784  -22.1973   22.6751 H   0  0  0  0  0  0
  -28.8764  -22.2089   23.3756 H   0  0  0  0  0  0
  -28.2619  -25.4375   18.3132 H   0  0  0  0  0  0
  -29.4379  -24.8688   19.4401 H   0  0  0  0  0  0
  -30.7099  -17.1925   22.1919 H   0  0  0  0  0  0
  -31.2648  -17.2671   20.5440 H   0  0  0  0  0  0
  -28.3955  -18.0285   21.3633 H   0  0  0  0  0  0
  -29.0773  -18.2069   19.7791 H   0  0  0  0  0  0
  -28.2094  -20.5952   19.9564 H   0  0  0  0  0  0
  -27.7846  -20.4320   21.6329 H   0  0  0  0  0  0
  -29.6247  -22.5793   20.4375 H   0  0  0  0  0  0
  -28.9733  -15.4732   21.2507 H   0  0  0  0  0  0
  -30.5098  -19.9607   20.6593 H   0  0  0  0  0  0
  -29.9420  -19.7300   22.1525 H   0  0  0  0  0  0
  1 25  1  0  0  0
  1 30  2  0  0  0
  1 86  1  0  0  0
  2  3  1  0  0  0
  2 25  1  0  0  0
  2 88  1  0  0  0
  2 89  1  0  0  0
  3  4  1  0  0  0
  3 90  1  0  0  0
  3 91  1  0  0  0
  4  5  1  0  0  0
  4 92  1  0  0  0
  4 93  1  0  0  0
  5  6  1  0  0  0
  5 26  1  0  0  0
  5 94  1  0  0  0
  6 25  1  0  0  0
  6 95  1  0  0  0
  6 96  1  0  0  0
  7  8  2  0  0  0
  7 26  1  0  0  0
  7 29  1  0  0  0
  8  9  1  0  0  0
  8 22  1  0  0  0
  9 10  1  0  0  0
  9 27  2  0  0  0
 10 11  2  0  0  0
 10 15  1  0  0  0
 11 12  1  0  0  0
 11 97  1  0  0  0
 12 13  2  0  0  0
 12 98  1  0  0  0
 13 14  1  0  0  0
 13 31  1  0  0  0
 14 15  2  0  0  0
 14 99  1  0  0  0
 15100  1  0  0  0
 16 17  2  0  0  0
 16 21  1  0  0  0
 16 31  1  0  0  0
 17 18  1  0  0  0
 17101  1  0  0  0
 18 19  2  0  0  0
 18102  1  0  0  0
 19 20  1  0  0  0
 19 24  1  0  0  0
 20 21  2  0  0  0
 20103  1  0  0  0
 21 23  1  0  0  0
 22 28  1  0  0  0
 22 32  2  0  0  0
 26 27  1  0  0  0
 28104  1  0  0  0
 28105  1  0  0  0
 29106  1  0  0  0
 29107  1  0  0  0
 33 34  1  0  0  0
 33 66  1  0  0  0
 33 70  2  0  0  0
 34 36  1  0  0  0
 34 59  1  0  0  0
 34108  1  0  0  0
 35 44  2  0  0  0
 35 45  1  0  0  0
 35 68  1  0  0  0
 36 56  1  0  0  0
 36109  1  0  0  0
 37 39  1  0  0  0
 37 47  1  0  0  0
 37 66  1  0  0  0
 37110  1  0  0  0
 38 43  2  0  0  0
 38 46  1  0  0  0
 38 47  1  0  0  0
 39 64  1  0  0  0
 39 67  2  0  0  0
 40 52  1  0  0  0
 40 53  2  0  0  0
 40 58  1  0  0  0
 41111  1  0  0  0
 41112  1  0  0  0
 41113  1  0  0  0
 41 48  1  0  0  0
 42 43  1  0  0  0
 42 66  1  0  0  0
 42114  1  0  0  0
 42115  1  0  0  0
 43 44  1  0  0  0
 44116  1  0  0  0
 45 46  2  0  0  0
 45117  1  0  0  0
 46118  1  0  0  0
 47119  1  0  0  0
 47120  1  0  0  0
 48 56  1  0  0  0
 48 65  1  0  0  0
 48121  1  0  0  0
 49 50  1  0  0  0
 49 53  1  0  0  0
 49 64  1  0  0  0
 49122  1  0  0  0
 50 51  1  0  0  0
 50123  1  0  0  0
 50124  1  0  0  0
 51 52  1  0  0  0
 51125  1  0  0  0
 51126  1  0  0  0
 52127  1  0  0  0
 52128  1  0  0  0
 53 54  1  0  0  0
 54 55  2  0  0  0
 54129  1  0  0  0
 55 57  1  0  0  0
 55130  1  0  0  0
 56 69  2  0  0  0
 57 58  2  0  0  0
 57131  1  0  0  0
 58132  1  0  0  0
 59 60  1  0  0  0
 59 61  1  0  0  0
 59 62  1  0  0  0
 60133  1  0  0  0
 60134  1  0  0  0
 60135  1  0  0  0
 61136  1  0  0  0
 61137  1  0  0  0
 61138  1  0  0  0
 62139  1  0  0  0
 62140  1  0  0  0
 62141  1  0  0  0
 63 65  1  0  0  0
 63142  1  0  0  0
 63143  1  0  0  0
 63144  1  0  0  0
 64145  1  0  0  0
 65146  1  0  0  0
 68 81  1  0  0  0
 71 72  2  0  0  0
 71 73  1  0  0  0
 71147  1  0  0  0
 72 75  1  0  0  0
 72148  1  0  0  0
 73 74  2  0  0  0
 73 77  1  0  0  0
 74 76  1  0  0  0
 74 78  1  0  0  0
 75 76  2  0  0  0
 75 81  1  0  0  0
 76 85  1  0  0  0
 77 79  1  0  0  0
 77149  1  0  0  0
 77150  1  0  0  0
 78 79  1  0  0  0
 78151  1  0  0  0
 78152  1  0  0  0
 79153  1  0  0  0
 79154  1  0  0  0
 80155  1  0  0  0
 80156  1  0  0  0
 80157  1  0  0  0
 80 85  1  0  0  0
 81158  1  0  0  0
 81159  1  0  0  0
 82 83  1  0  0  0
 82 86  1  0  0  0
 82160  1  0  0  0
 82161  1  0  0  0
 83 87  1  0  0  0
 83162  1  0  0  0
 83163  1  0  0  0
 84 85  1  0  0  0
 84 87  1  0  0  0
 84164  1  0  0  0
 84165  1  0  0  0
 85166  1  0  0  0
 86167  1  0  0  0
 87168  1  0  0  0
 87169  1  0  0  0
M  CHG  1  87   1
M  ISO  4   1 100  68 101  81 101  86 100
M  END
> <chiral flag>
0

> <version>
0

> <s_m_source_file>
/data/baiqing/PycharmProjects/Reinvent-master-3.2/result/LINK_invent/BTK/process_docking_weight1_custom_sum_contain_oxygen_bond_distance_aromatic_linkinvent_7_9_3/rearranged_h_0139.sdf

> <i_m_source_file_index>
74

> <r_mmod_Potential_Energy-OPLS-2005>
7.24706077575684

> <r_mmod_Stretch_Energy-OPLS-2005>
81.2781524658203

> <r_mmod_Bend_Energy-OPLS-2005>
193.652465820312

> <r_mmod_Torsional_Energy-OPLS-2005>
343.605499267578

> <r_mmod_Improper_Torsional_Energy-OPLS-2005>
6.47990894317627

> <r_mmod_Van_der_Waal_Energy-OPLS-2005>
148.254547119141

> <r_mmod_Electrostatic_Energy-OPLS-2005>
-324.210845947266

> <r_mmod_Solvation_Energy-OPLS-2005>
-488.051055908203

> <b_mmod_Minimization_Converged-OPLS-2005>
0

> <r_mmod_RMS_Derivative-OPLS-2005>
7.8456335067749

$$$$
74
                    3D
 Structure written by MMmdl.
157165  0  0  1  0            999 V2000
  -30.6917  -14.6265   20.4929 C   0  0  0  0  0  0
  -30.4186  -12.3878   19.4590 C   0  0  0  0  0  0
  -29.4959  -12.4883   18.2263 C   0  0  0  0  0  0
  -28.0228  -12.3301   18.6461 C   0  0  0  0  0  0
  -27.6459  -13.2262   19.8563 C   0  0  2  0  0  0
  -28.6938  -13.1349   20.9890 C   0  0  0  0  0  0
  -25.2533  -13.8194   20.5729 C   0  0  0  0  0  0
  -24.1802  -13.0444   20.9210 C   0  0  0  0  0  0
  -24.6383  -11.6921   20.8753 C   0  0  0  0  0  0
  -23.9059  -10.4296   21.0408 C   0  0  0  0  0  0
  -24.3610   -9.4212   21.9189 C   0  0  0  0  0  0
  -23.6293   -8.2241   22.0751 C   0  0  0  0  0  0
  -22.4275   -8.0278   21.3542 C   0  0  0  0  0  0
  -21.9911   -9.0247   20.4645 C   0  0  0  0  0  0
  -22.7230  -10.2131   20.3060 C   0  0  0  0  0  0
  -21.6854   -6.0740   22.5275 C   0  0  0  0  0  0
  -21.4013   -6.5648   23.8206 C   0  0  0  0  0  0
  -21.3656   -5.6797   24.9168 C   0  0  0  0  0  0
  -21.6041   -4.3059   24.7217 C   0  0  0  0  0  0
  -21.8819   -3.8155   23.4340 C   0  0  0  0  0  0
  -21.9195   -4.6970   22.3399 C   0  0  0  0  0  0
  -22.7821  -13.5230   21.1871 C   0  0  0  0  0  0
  -22.1667   -4.2157   21.0973 F   0  0  0  0  0  0
  -21.5623   -3.4541   25.7733 F   0  0  0  0  0  0
  -30.0069  -13.4432   20.4083 N   0  0  0  0  0  0
  -26.2956  -12.9394   20.3341 N   0  0  0  0  0  0
  -25.9318  -11.6542   20.5791 N   0  0  0  0  0  0
  -22.0476  -12.8207   22.0420 N   0  0  0  0  0  0
  -25.4242  -15.1911   20.4141 N   0  0  0  0  0  0
  -31.8635  -14.7000   20.1190 O   0  0  0  0  0  0
  -21.6643   -6.8875   21.4235 O   0  0  0  0  0  0
  -22.3506  -14.5537   20.6719 O   0  0  0  0  0  0
  -24.6269  -31.8613   23.2048 C   0  0  0  0  0  0
  -25.9130  -32.4782   23.8353 C   0  0  1  0  0  0
  -27.2029  -27.3007   20.1000 C   0  0  0  0  0  0
  -25.5935  -33.8581   24.2273 N   0  0  0  0  0  0
  -23.4184  -30.4927   21.5496 C   0  0  2  0  0  0
  -24.8594  -28.9611   20.1062 C   0  0  0  0  0  0
  -22.7460  -29.4658   22.4929 C   0  0  0  0  0  0
  -18.0284  -28.1379   22.8502 C   0  0  0  0  0  0
  -24.1492  -36.7308   23.2640 C   0  0  0  0  0  0
  -25.9658  -30.7818   21.3848 C   0  0  0  0  0  0
  -26.0341  -29.4117   20.7219 C   0  0  0  0  0  0
  -27.2066  -28.5919   20.7210 C   0  0  0  0  0  0
  -26.0071  -26.9394   19.4258 C   0  0  0  0  0  0
  -24.8499  -27.7280   19.4513 C   0  0  0  0  0  0
  -23.6303  -29.8414   20.1602 C   0  0  0  0  0  0
  -25.4111  -36.3091   24.0325 C   0  0  1  0  0  0
  -20.5889  -28.3691   23.1274 C   0  0  2  0  0  0
  -20.6778  -26.9414   22.5401 C   0  0  0  0  0  0
  -19.5750  -26.6384   21.5211 C   0  0  0  0  0  0
  -18.1932  -26.7927   22.1621 C   0  0  0  0  0  0
  -19.1540  -28.8845   23.2887 C   0  0  0  0  0  0
  -18.9462  -30.1451   23.8905 C   0  0  0  0  0  0
  -17.6467  -30.6592   24.0570 C   0  0  0  0  0  0
  -25.9052  -34.9464   23.5101 C   0  0  0  0  0  0
  -16.5361  -29.9090   23.6336 C   0  0  0  0  0  0
  -16.7273  -28.6496   23.0378 C   0  0  0  0  0  0
  -26.4481  -31.6599   25.0733 C   0  0  0  0  0  0
  -25.3705  -31.3758   26.1458 C   0  0  0  0  0  0
  -27.0321  -30.3009   24.6228 C   0  0  0  0  0  0
  -27.6019  -32.4356   25.7502 C   0  0  0  0  0  0
  -27.5591  -37.1798   24.8453 C   0  0  0  0  0  0
  -21.4173  -29.3068   22.3677 N   0  0  0  0  0  0
  -26.4280  -37.3792   23.9432 N   0  0  0  0  0  0
  -24.6895  -31.0621   22.1013 N   0  0  0  0  0  0
  -23.4183  -28.8157   23.2976 O   0  0  0  0  0  0
  -28.2745  -26.3777   20.1777 O   0  0  0  0  0  0
  -26.5628  -34.8928   22.4673 O   0  0  0  0  0  0
  -23.5435  -32.1412   23.7375 O   0  0  0  0  0  0
  -29.8968  -23.3278   19.4325 C   0  0  0  0  0  0
  -30.4202  -22.0051   19.4993 C   0  0  0  0  0  0
  -28.7489  -23.6801   20.1786 C   0  0  0  0  0  0
  -28.2296  -22.6285   21.0014 C   0  0  0  0  0  0
  -29.7950  -21.0125   20.2889 C   0  0  0  0  0  0
  -27.0089  -22.8381   21.8778 C   0  0  0  0  0  0
  -31.4750  -17.3280   22.0903 C   0  0  0  0  0  0
  -27.9130  -24.9735   19.8372 C   0  0  0  0  0  0
  -29.6139  -18.4170   20.7025 C   0  0  0  0  0  0
  -30.5956  -17.1654   20.8360 C   0  0  2  0  0  0
  -28.7284  -21.3506   21.0456 N   0  0  0  0  0  0
  -30.3025  -19.6787   20.2938 N   0  0  0  0  0  0
  -30.0114  -15.7725   20.8218 N   0  0  0  0  0  0
  -31.4631  -12.4770   19.1556 H   0  0  0  0  0  0
  -30.3295  -11.4064   19.9286 H   0  0  0  0  0  0
  -29.7566  -11.7194   17.4977 H   0  0  0  0  0  0
  -29.6365  -13.4484   17.7264 H   0  0  0  0  0  0
  -27.8698  -11.2814   18.9052 H   0  0  0  0  0  0
  -27.3609  -12.5316   17.8033 H   0  0  0  0  0  0
  -27.6505  -14.2522   19.4879 H   0  0  0  0  0  0
  -28.7036  -12.1361   21.4265 H   0  0  0  0  0  0
  -28.4482  -13.8190   21.8025 H   0  0  0  0  0  0
  -25.2746   -9.5699   22.4771 H   0  0  0  0  0  0
  -24.0009   -7.4631   22.7465 H   0  0  0  0  0  0
  -21.0846   -8.8750   19.8945 H   0  0  0  0  0  0
  -22.3675  -10.9667   19.6175 H   0  0  0  0  0  0
  -21.2006   -7.6156   23.9712 H   0  0  0  0  0  0
  -21.1478   -6.0529   25.9067 H   0  0  0  0  0  0
  -22.0603   -2.7622   23.2832 H   0  0  0  0  0  0
  -22.4097  -11.9870   22.4804 H   0  0  0  0  0  0
  -21.1084  -13.1209   22.2637 H   0  0  0  0  0  0
  -24.6610  -15.8492   20.5268 H   0  0  0  0  0  0
  -26.2766  -15.6269   20.0856 H   0  0  0  0  0  0
  -26.7188  -32.5420   23.1085 H   0  0  0  0  0  0
  -25.0057  -33.9726   25.0405 H   0  0  0  0  0  0
  -22.7147  -31.3167   21.4130 H   0  0  0  0  0  0
  -23.3757  -35.9633   23.3257 H   0  0  0  0  0  0
  -24.3596  -36.8967   22.2068 H   0  0  0  0  0  0
  -23.7224  -37.6489   23.6682 H   0  0  0  0  0  0
  -26.1105  -31.5473   20.6208 H   0  0  0  0  0  0
  -26.8432  -30.8206   22.0179 H   0  0  0  0  0  0
  -28.0970  -28.9296   21.2320 H   0  0  0  0  0  0
  -25.9013  -26.0199   18.8702 H   0  0  0  0  0  0
  -23.9555  -27.3821   18.9516 H   0  0  0  0  0  0
  -23.7483  -30.6252   19.4109 H   0  0  0  0  0  0
  -22.7488  -29.2753   19.8526 H   0  0  0  0  0  0
  -25.1277  -36.1930   25.0809 H   0  0  0  0  0  0
  -20.9993  -28.3274   24.1390 H   0  0  0  0  0  0
  -20.5696  -26.2303   23.3610 H   0  0  0  0  0  0
  -21.6640  -26.7453   22.1183 H   0  0  0  0  0  0
  -19.6915  -25.6294   21.1246 H   0  0  0  0  0  0
  -19.6676  -27.3197   20.6753 H   0  0  0  0  0  0
  -17.4196  -26.6694   21.4036 H   0  0  0  0  0  0
  -18.0328  -26.0049   22.8995 H   0  0  0  0  0  0
  -19.7942  -30.7265   24.2280 H   0  0  0  0  0  0
  -17.5021  -31.6280   24.5171 H   0  0  0  0  0  0
  -15.5365  -30.3003   23.7648 H   0  0  0  0  0  0
  -15.8668  -28.0808   22.7127 H   0  0  0  0  0  0
  -24.5878  -30.7100   25.7799 H   0  0  0  0  0  0
  -24.8906  -32.2939   26.4862 H   0  0  0  0  0  0
  -25.8025  -30.8948   27.0245 H   0  0  0  0  0  0
  -26.2904  -29.6771   24.1229 H   0  0  0  0  0  0
  -27.3960  -29.7253   25.4750 H   0  0  0  0  0  0
  -27.8793  -30.4253   23.9482 H   0  0  0  0  0  0
  -27.2595  -33.3666   26.2025 H   0  0  0  0  0  0
  -28.3842  -32.6912   25.0348 H   0  0  0  0  0  0
  -28.0655  -31.8523   26.5462 H   0  0  0  0  0  0
  -28.2550  -38.0163   24.7579 H   0  0  0  0  0  0
  -28.1144  -36.2693   24.6146 H   0  0  0  0  0  0
  -27.2321  -37.1275   25.8856 H   0  0  0  0  0  0
  -20.9340  -29.8831   21.6928 H   0  0  0  0  0  0
  -26.0155  -38.2849   24.1482 H   0  0  0  0  0  0
  -30.3373  -24.0420   18.7514 H   0  0  0  0  0  0
  -31.2829  -21.7584   18.8944 H   0  0  0  0  0  0
  -26.1019  -22.8486   21.2738 H   0  0  0  0  0  0
  -27.0802  -23.7839   22.4157 H   0  0  0  0  0  0
  -26.9086  -22.0458   22.6208 H   0  0  0  0  0  0
  -31.9359  -18.3155   22.1316 H   0  0  0  0  0  0
  -32.2864  -16.6000   22.1067 H   0  0  0  0  0  0
  -30.8943  -17.1972   23.0043 H   0  0  0  0  0  0
  -26.9286  -24.7692   20.2498 H   0  0  0  0  0  0
  -27.7957  -24.9400   18.7533 H   0  0  0  0  0  0
  -29.0817  -18.5805   21.6403 H   0  0  0  0  0  0
  -28.8522  -18.2047   19.9517 H   0  0  0  0  0  0
  -31.2515  -17.2097   19.9640 H   0  0  0  0  0  0
  -31.1300  -19.5341   19.7260 H   0  0  0  0  0  0
  -29.0362  -15.6739   21.0614 H   0  0  0  0  0  0
  1 25  1  0  0  0
  1 30  2  0  0  0
  1 83  1  0  0  0
  2  3  1  0  0  0
  2 25  1  0  0  0
  2 84  1  0  0  0
  2 85  1  0  0  0
  3  4  1  0  0  0
  3 86  1  0  0  0
  3 87  1  0  0  0
  4  5  1  0  0  0
  4 88  1  0  0  0
  4 89  1  0  0  0
  5  6  1  0  0  0
  5 26  1  0  0  0
  5 90  1  0  0  0
  6 25  1  0  0  0
  6 91  1  0  0  0
  6 92  1  0  0  0
  7  8  2  0  0  0
  7 26  1  0  0  0
  7 29  1  0  0  0
  8  9  1  0  0  0
  8 22  1  0  0  0
  9 10  1  0  0  0
  9 27  2  0  0  0
 10 11  2  0  0  0
 10 15  1  0  0  0
 11 12  1  0  0  0
 11 93  1  0  0  0
 12 13  2  0  0  0
 12 94  1  0  0  0
 13 14  1  0  0  0
 13 31  1  0  0  0
 14 15  2  0  0  0
 14 95  1  0  0  0
 15 96  1  0  0  0
 16 17  2  0  0  0
 16 21  1  0  0  0
 16 31  1  0  0  0
 17 18  1  0  0  0
 17 97  1  0  0  0
 18 19  2  0  0  0
 18 98  1  0  0  0
 19 20  1  0  0  0
 19 24  1  0  0  0
 20 21  2  0  0  0
 20 99  1  0  0  0
 21 23  1  0  0  0
 22 28  1  0  0  0
 22 32  2  0  0  0
 26 27  1  0  0  0
 28100  1  0  0  0
 28101  1  0  0  0
 29102  1  0  0  0
 29103  1  0  0  0
 33 34  1  0  0  0
 33 66  1  0  0  0
 33 70  2  0  0  0
 34 36  1  0  0  0
 34 59  1  0  0  0
 34104  1  0  0  0
 35 44  2  0  0  0
 35 45  1  0  0  0
 35 68  1  0  0  0
 36 56  1  0  0  0
 36105  1  0  0  0
 37 39  1  0  0  0
 37 47  1  0  0  0
 37 66  1  0  0  0
 37106  1  0  0  0
 38 43  2  0  0  0
 38 46  1  0  0  0
 38 47  1  0  0  0
 39 64  1  0  0  0
 39 67  2  0  0  0
 40 52  1  0  0  0
 40 53  2  0  0  0
 40 58  1  0  0  0
 41107  1  0  0  0
 41108  1  0  0  0
 41109  1  0  0  0
 41 48  1  0  0  0
 42 43  1  0  0  0
 42 66  1  0  0  0
 42110  1  0  0  0
 42111  1  0  0  0
 43 44  1  0  0  0
 44112  1  0  0  0
 45 46  2  0  0  0
 45113  1  0  0  0
 46114  1  0  0  0
 47115  1  0  0  0
 47116  1  0  0  0
 48 56  1  0  0  0
 48 65  1  0  0  0
 48117  1  0  0  0
 49 50  1  0  0  0
 49 53  1  0  0  0
 49 64  1  0  0  0
 49118  1  0  0  0
 50 51  1  0  0  0
 50119  1  0  0  0
 50120  1  0  0  0
 51 52  1  0  0  0
 51121  1  0  0  0
 51122  1  0  0  0
 52123  1  0  0  0
 52124  1  0  0  0
 53 54  1  0  0  0
 54 55  2  0  0  0
 54125  1  0  0  0
 55 57  1  0  0  0
 55126  1  0  0  0
 56 69  2  0  0  0
 57 58  2  0  0  0
 57127  1  0  0  0
 58128  1  0  0  0
 59 60  1  0  0  0
 59 61  1  0  0  0
 59 62  1  0  0  0
 60129  1  0  0  0
 60130  1  0  0  0
 60131  1  0  0  0
 61132  1  0  0  0
 61133  1  0  0  0
 61134  1  0  0  0
 62135  1  0  0  0
 62136  1  0  0  0
 62137  1  0  0  0
 63 65  1  0  0  0
 63138  1  0  0  0
 63139  1  0  0  0
 63140  1  0  0  0
 64141  1  0  0  0
 65142  1  0  0  0
 68 78  1  0  0  0
 71 72  2  0  0  0
 71 73  1  0  0  0
 71143  1  0  0  0
 72 75  1  0  0  0
 72144  1  0  0  0
 73 74  2  0  0  0
 73 78  1  0  0  0
 74 76  1  0  0  0
 74 81  1  0  0  0
 75 81  2  0  0  0
 75 82  1  0  0  0
 76145  1  0  0  0
 76146  1  0  0  0
 76147  1  0  0  0
 77148  1  0  0  0
 77149  1  0  0  0
 77150  1  0  0  0
 77 80  1  0  0  0
 78151  1  0  0  0
 78152  1  0  0  0
 79 80  1  0  0  0
 79 82  1  0  0  0
 79153  1  0  0  0
 79154  1  0  0  0
 80 83  1  0  0  0
 80155  1  0  0  0
 82156  1  0  0  0
 83157  1  0  0  0
M  ISO  4   1 100  68 101  78 101  83 100
M  END
> <chiral flag>
0

> <version>
0

> <s_m_source_file>
/data/baiqing/PycharmProjects/Reinvent-master-3.2/result/LINK_invent/BTK/process_docking_weight1_custom_sum_contain_oxygen_bond_distance_aromatic_linkinvent_7_9_3/rearranged_h_0139.sdf

> <i_m_source_file_index>
75

> <r_mmod_Potential_Energy-OPLS-2005>
-179.422576904297

> <r_mmod_Stretch_Energy-OPLS-2005>
80.3204498291016

> <r_mmod_Bend_Energy-OPLS-2005>
159.60432434082

> <r_mmod_Torsional_Energy-OPLS-2005>
211.92546081543

> <r_mmod_Improper_Torsional_Energy-OPLS-2005>
7.43237066268921

> <r_mmod_Van_der_Waal_Energy-OPLS-2005>
163.68212890625

> <r_mmod_Electrostatic_Energy-OPLS-2005>
-628.970153808594

> <r_mmod_Solvation_Energy-OPLS-2005>
-233.638000488281

> <b_mmod_Minimization_Converged-OPLS-2005>
0

> <r_mmod_RMS_Derivative-OPLS-2005>
2.08243989944458

$$$$
75
                    3D
 Structure written by MMmdl.
153161  0  0  1  0            999 V2000
  -30.6035  -14.8591   20.4334 C   0  0  0  0  0  0
  -30.4291  -12.5298   19.4979 C   0  0  0  0  0  0
  -29.5166  -12.5317   18.2539 C   0  0  0  0  0  0
  -28.0502  -12.3209   18.6716 C   0  0  0  0  0  0
  -27.6346  -13.2486   19.8446 C   0  0  2  0  0  0
  -28.6750  -13.2649   20.9872 C   0  0  0  0  0  0
  -25.2491  -13.8230   20.5730 C   0  0  0  0  0  0
  -24.1811  -13.0463   20.9222 C   0  0  0  0  0  0
  -24.6412  -11.6942   20.8738 C   0  0  0  0  0  0
  -23.9090  -10.4314   21.0393 C   0  0  0  0  0  0
  -24.3630   -9.4236   21.9181 C   0  0  0  0  0  0
  -23.6297   -8.2272   22.0761 C   0  0  0  0  0  0
  -22.4277   -8.0310   21.3556 C   0  0  0  0  0  0
  -21.9912   -9.0282   20.4656 C   0  0  0  0  0  0
  -22.7245  -10.2155   20.3049 C   0  0  0  0  0  0
  -21.6876   -6.0740   22.5267 C   0  0  0  0  0  0
  -21.4043   -6.5641   23.8203 C   0  0  0  0  0  0
  -21.3662   -5.6794   24.9166 C   0  0  0  0  0  0
  -21.6030   -4.3048   24.7218 C   0  0  0  0  0  0
  -21.8827   -3.8143   23.4342 C   0  0  0  0  0  0
  -21.9209   -4.6965   22.3402 C   0  0  0  0  0  0
  -22.7833  -13.5225   21.1880 C   0  0  0  0  0  0
  -22.1684   -4.2145   21.0983 F   0  0  0  0  0  0
  -21.5608   -3.4546   25.7740 F   0  0  0  0  0  0
  -29.9659  -13.6279   20.3900 N   0  0  0  0  0  0
  -26.2919  -12.9460   20.3264 N   0  0  0  0  0  0
  -25.9344  -11.6587   20.5747 N   0  0  0  0  0  0
  -22.0483  -12.8194   22.0419 N   0  0  0  0  0  0
  -25.4150  -15.1973   20.4185 N   0  0  0  0  0  0
  -31.8048  -14.8959   20.1524 O   0  0  0  0  0  0
  -21.6655   -6.8898   21.4238 O   0  0  0  0  0  0
  -22.3522  -14.5543   20.6733 O   0  0  0  0  0  0
  -24.6362  -31.8487   23.1932 C   0  0  0  0  0  0
  -25.9152  -32.4733   23.8300 C   0  0  1  0  0  0
  -27.2202  -27.1934   20.1441 C   0  0  0  0  0  0
  -25.5918  -33.8536   24.2226 N   0  0  0  0  0  0
  -23.4405  -30.4679   21.5389 C   0  0  2  0  0  0
  -24.8914  -28.9079   20.1092 C   0  0  0  0  0  0
  -22.7555  -29.4555   22.4896 C   0  0  0  0  0  0
  -18.0299  -28.1390   22.8495 C   0  0  0  0  0  0
  -24.1493  -36.7269   23.2639 C   0  0  0  0  0  0
  -25.9921  -30.7418   21.3848 C   0  0  0  0  0  0
  -26.0657  -29.3591   20.7251 C   0  0  0  0  0  0
  -27.2320  -28.5160   20.7278 C   0  0  0  0  0  0
  -26.0281  -26.8404   19.4734 C   0  0  0  0  0  0
  -24.8818  -27.6605   19.4694 C   0  0  0  0  0  0
  -23.6635  -29.7996   20.1572 C   0  0  0  0  0  0
  -25.4123  -36.3060   24.0317 C   0  0  1  0  0  0
  -20.5910  -28.3690   23.1262 C   0  0  2  0  0  0
  -20.6784  -26.9398   22.5420 C   0  0  0  0  0  0
  -19.5755  -26.6383   21.5229 C   0  0  0  0  0  0
  -18.1931  -26.7931   22.1638 C   0  0  0  0  0  0
  -19.1557  -28.8864   23.2872 C   0  0  0  0  0  0
  -18.9472  -30.1468   23.8884 C   0  0  0  0  0  0
  -17.6467  -30.6587   24.0563 C   0  0  0  0  0  0
  -25.9058  -34.9428   23.5080 C   0  0  0  0  0  0
  -16.5357  -29.9081   23.6342 C   0  0  0  0  0  0
  -16.7285  -28.6505   23.0355 C   0  0  0  0  0  0
  -26.4493  -31.6570   25.0709 C   0  0  0  0  0  0
  -25.3690  -31.3714   26.1408 C   0  0  0  0  0  0
  -27.0342  -30.2976   24.6233 C   0  0  0  0  0  0
  -27.6055  -32.4304   25.7473 C   0  0  0  0  0  0
  -27.5581  -37.1790   24.8463 C   0  0  0  0  0  0
  -21.4249  -29.3031   22.3647 N   0  0  0  0  0  0
  -26.4296  -37.3764   23.9400 N   0  0  0  0  0  0
  -24.7096  -31.0390   22.0953 N   0  0  0  0  0  0
  -23.4208  -28.8115   23.3048 O   0  0  0  0  0  0
  -28.2845  -26.2381   20.2369 O   0  0  0  0  0  0
  -26.5656  -34.8907   22.4664 O   0  0  0  0  0  0
  -23.5495  -32.1336   23.7188 O   0  0  0  0  0  0
  -29.4413  -19.7475   21.5272 C   0  0  0  0  0  0
  -29.1844  -21.1759   21.5117 C   0  0  0  0  0  0
  -29.6736  -19.7793   19.1759 C   0  0  0  0  0  0
  -29.7485  -18.9738   20.3601 C   0  0  0  0  0  0
  -29.1949  -21.9921   20.3297 C   0  0  0  0  0  0
  -29.4148  -21.2034   19.1529 C   0  0  0  0  0  0
  -27.0340  -24.3713   21.3381 C   0  0  0  0  0  0
  -29.2654  -23.6308   20.3474 C   0  0  0  0  0  0
  -30.4608  -17.4998   20.3690 C   0  0  0  0  0  0
  -28.0316  -24.7143   20.2184 C   0  0  1  0  0  0
  -29.8866  -16.0668   20.5668 N   0  0  0  0  0  0
  -29.4743  -21.9934   17.6184 Cl  0  0  0  0  0  0
  -31.4715  -12.6521   19.1978 H   0  0  0  0  0  0
  -30.3812  -11.5688   20.0108 H   0  0  0  0  0  0
  -29.8277  -11.7621   17.5440 H   0  0  0  0  0  0
  -29.6194  -13.4885   17.7373 H   0  0  0  0  0  0
  -27.9418  -11.2789   18.9759 H   0  0  0  0  0  0
  -27.3829  -12.4579   17.8209 H   0  0  0  0  0  0
  -27.6046  -14.2544   19.4243 H   0  0  0  0  0  0
  -28.7286  -12.2991   21.4949 H   0  0  0  0  0  0
  -28.3904  -13.9956   21.7453 H   0  0  0  0  0  0
  -25.2772   -9.5714   22.4751 H   0  0  0  0  0  0
  -24.0012   -7.4672   22.7481 H   0  0  0  0  0  0
  -21.0843   -8.8798   19.8972 H   0  0  0  0  0  0
  -22.3697  -10.9699   19.6151 H   0  0  0  0  0  0
  -21.2055   -7.6153   23.9705 H   0  0  0  0  0  0
  -21.1471   -6.0528   25.9070 H   0  0  0  0  0  0
  -22.0600   -2.7600   23.2850 H   0  0  0  0  0  0
  -22.4123  -11.9861   22.4809 H   0  0  0  0  0  0
  -21.1099  -13.1212   22.2640 H   0  0  0  0  0  0
  -24.6472  -15.8448   20.5589 H   0  0  0  0  0  0
  -26.2558  -15.6528   20.0872 H   0  0  0  0  0  0
  -26.7222  -32.5376   23.1043 H   0  0  0  0  0  0
  -25.0014  -33.9655   25.0340 H   0  0  0  0  0  0
  -22.7391  -31.2896   21.3876 H   0  0  0  0  0  0
  -23.3765  -35.9591   23.3292 H   0  0  0  0  0  0
  -24.3591  -36.8903   22.2058 H   0  0  0  0  0  0
  -23.7230  -37.6454   23.6678 H   0  0  0  0  0  0
  -26.1371  -31.4998   20.6137 H   0  0  0  0  0  0
  -26.8654  -30.7919   22.0228 H   0  0  0  0  0  0
  -28.1273  -28.8544   21.2293 H   0  0  0  0  0  0
  -25.9456  -25.8875   18.9733 H   0  0  0  0  0  0
  -23.9837  -27.3077   18.9811 H   0  0  0  0  0  0
  -23.7919  -30.5724   19.3994 H   0  0  0  0  0  0
  -22.7827  -29.2312   19.8547 H   0  0  0  0  0  0
  -25.1316  -36.1903   25.0811 H   0  0  0  0  0  0
  -21.0002  -28.3273   24.1384 H   0  0  0  0  0  0
  -20.5690  -26.2294   23.3629 H   0  0  0  0  0  0
  -21.6641  -26.7418   22.1205 H   0  0  0  0  0  0
  -19.6901  -25.6299   21.1249 H   0  0  0  0  0  0
  -19.6687  -27.3203   20.6765 H   0  0  0  0  0  0
  -17.4205  -26.6693   21.4034 H   0  0  0  0  0  0
  -18.0307  -26.0075   22.9032 H   0  0  0  0  0  0
  -19.7943  -30.7300   24.2230 H   0  0  0  0  0  0
  -17.5010  -31.6261   24.5166 H   0  0  0  0  0  0
  -15.5352  -30.2967   23.7670 H   0  0  0  0  0  0
  -15.8690  -28.0819   22.7058 H   0  0  0  0  0  0
  -24.5930  -30.6987   25.7730 H   0  0  0  0  0  0
  -24.8796  -32.2865   26.4750 H   0  0  0  0  0  0
  -25.7993  -30.8968   27.0235 H   0  0  0  0  0  0
  -26.2943  -29.6721   24.1225 H   0  0  0  0  0  0
  -27.3966  -29.7241   25.4771 H   0  0  0  0  0  0
  -27.8847  -30.4228   23.9529 H   0  0  0  0  0  0
  -27.2706  -33.3664   26.1947 H   0  0  0  0  0  0
  -28.3912  -32.6742   25.0312 H   0  0  0  0  0  0
  -28.0654  -31.8468   26.5457 H   0  0  0  0  0  0
  -28.2597  -38.0091   24.7527 H   0  0  0  0  0  0
  -28.1081  -36.2620   24.6287 H   0  0  0  0  0  0
  -27.2293  -37.1432   25.8864 H   0  0  0  0  0  0
  -20.9441  -29.8708   21.6802 H   0  0  0  0  0  0
  -26.0170  -38.2829   24.1421 H   0  0  0  0  0  0
  -29.4952  -19.2590   22.4900 H   0  0  0  0  0  0
  -29.0614  -21.6707   22.4653 H   0  0  0  0  0  0
  -29.9111  -19.3094   18.2313 H   0  0  0  0  0  0
  -26.7689  -23.3144   21.3047 H   0  0  0  0  0  0
  -26.1014  -24.9280   21.2637 H   0  0  0  0  0  0
  -27.4671  -24.5722   22.3177 H   0  0  0  0  0  0
  -29.7798  -23.8837   21.2752 H   0  0  0  0  0  0
  -29.9867  -23.9057   19.5792 H   0  0  0  0  0  0
  -31.0075  -17.4500   19.4247 H   0  0  0  0  0  0
  -31.2505  -17.5865   21.1172 H   0  0  0  0  0  0
  -27.5689  -24.4865   19.2571 H   0  0  0  0  0  0
  -28.8996  -15.9877   20.7558 H   0  0  0  0  0  0
  1 25  1  0  0  0
  1 30  2  0  0  0
  1 81  1  0  0  0
  2  3  1  0  0  0
  2 25  1  0  0  0
  2 83  1  0  0  0
  2 84  1  0  0  0
  3  4  1  0  0  0
  3 85  1  0  0  0
  3 86  1  0  0  0
  4  5  1  0  0  0
  4 87  1  0  0  0
  4 88  1  0  0  0
  5  6  1  0  0  0
  5 26  1  0  0  0
  5 89  1  0  0  0
  6 25  1  0  0  0
  6 90  1  0  0  0
  6 91  1  0  0  0
  7  8  2  0  0  0
  7 26  1  0  0  0
  7 29  1  0  0  0
  8  9  1  0  0  0
  8 22  1  0  0  0
  9 10  1  0  0  0
  9 27  2  0  0  0
 10 11  2  0  0  0
 10 15  1  0  0  0
 11 12  1  0  0  0
 11 92  1  0  0  0
 12 13  2  0  0  0
 12 93  1  0  0  0
 13 14  1  0  0  0
 13 31  1  0  0  0
 14 15  2  0  0  0
 14 94  1  0  0  0
 15 95  1  0  0  0
 16 17  2  0  0  0
 16 21  1  0  0  0
 16 31  1  0  0  0
 17 18  1  0  0  0
 17 96  1  0  0  0
 18 19  2  0  0  0
 18 97  1  0  0  0
 19 20  1  0  0  0
 19 24  1  0  0  0
 20 21  2  0  0  0
 20 98  1  0  0  0
 21 23  1  0  0  0
 22 28  1  0  0  0
 22 32  2  0  0  0
 26 27  1  0  0  0
 28 99  1  0  0  0
 28100  1  0  0  0
 29101  1  0  0  0
 29102  1  0  0  0
 33 34  1  0  0  0
 33 66  1  0  0  0
 33 70  2  0  0  0
 34 36  1  0  0  0
 34 59  1  0  0  0
 34103  1  0  0  0
 35 44  2  0  0  0
 35 45  1  0  0  0
 35 68  1  0  0  0
 36 56  1  0  0  0
 36104  1  0  0  0
 37 39  1  0  0  0
 37 47  1  0  0  0
 37 66  1  0  0  0
 37105  1  0  0  0
 38 43  2  0  0  0
 38 46  1  0  0  0
 38 47  1  0  0  0
 39 64  1  0  0  0
 39 67  2  0  0  0
 40 52  1  0  0  0
 40 53  2  0  0  0
 40 58  1  0  0  0
 41106  1  0  0  0
 41107  1  0  0  0
 41108  1  0  0  0
 41 48  1  0  0  0
 42 43  1  0  0  0
 42 66  1  0  0  0
 42109  1  0  0  0
 42110  1  0  0  0
 43 44  1  0  0  0
 44111  1  0  0  0
 45 46  2  0  0  0
 45112  1  0  0  0
 46113  1  0  0  0
 47114  1  0  0  0
 47115  1  0  0  0
 48 56  1  0  0  0
 48 65  1  0  0  0
 48116  1  0  0  0
 49 50  1  0  0  0
 49 53  1  0  0  0
 49 64  1  0  0  0
 49117  1  0  0  0
 50 51  1  0  0  0
 50118  1  0  0  0
 50119  1  0  0  0
 51 52  1  0  0  0
 51120  1  0  0  0
 51121  1  0  0  0
 52122  1  0  0  0
 52123  1  0  0  0
 53 54  1  0  0  0
 54 55  2  0  0  0
 54124  1  0  0  0
 55 57  1  0  0  0
 55125  1  0  0  0
 56 69  2  0  0  0
 57 58  2  0  0  0
 57126  1  0  0  0
 58127  1  0  0  0
 59 60  1  0  0  0
 59 61  1  0  0  0
 59 62  1  0  0  0
 60128  1  0  0  0
 60129  1  0  0  0
 60130  1  0  0  0
 61131  1  0  0  0
 61132  1  0  0  0
 61133  1  0  0  0
 62134  1  0  0  0
 62135  1  0  0  0
 62136  1  0  0  0
 63 65  1  0  0  0
 63137  1  0  0  0
 63138  1  0  0  0
 63139  1  0  0  0
 64140  1  0  0  0
 65141  1  0  0  0
 68 80  1  0  0  0
 71 72  2  0  0  0
 71 74  1  0  0  0
 71142  1  0  0  0
 72 75  1  0  0  0
 72143  1  0  0  0
 73 74  2  0  0  0
 73 76  1  0  0  0
 73144  1  0  0  0
 74 79  1  0  0  0
 75 76  2  0  0  0
 75 78  1  0  0  0
 76 82  1  0  0  0
 77145  1  0  0  0
 77146  1  0  0  0
 77147  1  0  0  0
 77 80  1  0  0  0
 78 80  1  0  0  0
 78148  1  0  0  0
 78149  1  0  0  0
 79 81  1  0  0  0
 79150  1  0  0  0
 79151  1  0  0  0
 80152  1  0  0  0
 81153  1  0  0  0
M  ISO  4   1 100  68 101  80 101  81 100
M  END
> <chiral flag>
0

> <version>
0

> <s_m_source_file>
/data/baiqing/PycharmProjects/Reinvent-master-3.2/result/LINK_invent/BTK/process_docking_weight1_custom_sum_contain_oxygen_bond_distance_aromatic_linkinvent_7_9_3/rearranged_h_0139.sdf

> <i_m_source_file_index>
76

> <r_mmod_Potential_Energy-OPLS-2005>
308.584503173828

> <r_mmod_Stretch_Energy-OPLS-2005>
184.131729125977

> <r_mmod_Bend_Energy-OPLS-2005>
228.398864746094

> <r_mmod_Torsional_Energy-OPLS-2005>
224.081100463867

> <r_mmod_Improper_Torsional_Energy-OPLS-2005>
9.53048515319824

> <r_mmod_Van_der_Waal_Energy-OPLS-2005>
135.430694580078

> <r_mmod_Electrostatic_Energy-OPLS-2005>
-410.857421875

> <r_mmod_Solvation_Energy-OPLS-2005>
-204.246246337891

> <b_mmod_Minimization_Converged-OPLS-2005>
0

> <r_mmod_RMS_Derivative-OPLS-2005>
3.36402082443237

$$$$
76
                    3D
 Structure written by MMmdl.
175184  0  0  1  0            999 V2000
  -30.7573  -14.3513   20.6874 C   0  0  0  0  0  0
  -30.4256  -12.2773   19.3922 C   0  0  0  0  0  0
  -29.4877  -12.5222   18.1940 C   0  0  0  0  0  0
  -28.0106  -12.3846   18.6100 C   0  0  0  0  0  0
  -27.6742  -13.1967   19.8877 C   0  0  2  0  0  0
  -28.7107  -12.9104   20.9966 C   0  0  0  0  0  0
  -25.2651  -13.8149   20.5684 C   0  0  0  0  0  0
  -24.1872  -13.0446   20.9167 C   0  0  0  0  0  0
  -24.6397  -11.6905   20.8727 C   0  0  0  0  0  0
  -23.9056  -10.4297   21.0406 C   0  0  0  0  0  0
  -24.3604   -9.4211   21.9188 C   0  0  0  0  0  0
  -23.6282   -8.2244   22.0758 C   0  0  0  0  0  0
  -22.4274   -8.0279   21.3535 C   0  0  0  0  0  0
  -21.9903   -9.0255   20.4645 C   0  0  0  0  0  0
  -22.7228  -10.2137   20.3056 C   0  0  0  0  0  0
  -21.6850   -6.0740   22.5278 C   0  0  0  0  0  0
  -21.4014   -6.5639   23.8211 C   0  0  0  0  0  0
  -21.3653   -5.6789   24.9169 C   0  0  0  0  0  0
  -21.6044   -4.3055   24.7217 C   0  0  0  0  0  0
  -21.8820   -3.8149   23.4337 C   0  0  0  0  0  0
  -21.9192   -4.6970   22.3398 C   0  0  0  0  0  0
  -22.7889  -13.5253   21.1816 C   0  0  0  0  0  0
  -22.1664   -4.2153   21.0975 F   0  0  0  0  0  0
  -21.5623   -3.4539   25.7731 F   0  0  0  0  0  0
  -30.0597  -13.2059   20.4705 N   0  0  0  0  0  0
  -26.3094  -12.9301   20.3422 N   0  0  0  0  0  0
  -25.9324  -11.6468   20.5771 N   0  0  0  0  0  0
  -22.0514  -12.8259   22.0373 N   0  0  0  0  0  0
  -25.4418  -15.1862   20.4102 N   0  0  0  0  0  0
  -31.7669  -14.6644   20.0468 O   0  0  0  0  0  0
  -21.6636   -6.8881   21.4238 O   0  0  0  0  0  0
  -22.3584  -14.5556   20.6660 O   0  0  0  0  0  0
  -24.6117  -31.8714   23.2144 C   0  0  0  0  0  0
  -25.9050  -32.4833   23.8405 C   0  0  1  0  0  0
  -27.2376  -27.4709   20.0877 C   0  0  0  0  0  0
  -25.5955  -33.8627   24.2353 N   0  0  0  0  0  0
  -23.3975  -30.4941   21.5544 C   0  0  2  0  0  0
  -24.8451  -28.9627   20.1191 C   0  0  0  0  0  0
  -22.7406  -29.4660   22.5026 C   0  0  0  0  0  0
  -18.0266  -28.1356   22.8468 C   0  0  0  0  0  0
  -24.1493  -36.7312   23.2641 C   0  0  0  0  0  0
  -25.9225  -30.8438   21.3655 C   0  0  0  0  0  0
  -26.0001  -29.4775   20.7217 C   0  0  0  0  0  0
  -27.2006  -28.7343   20.7145 C   0  0  0  0  0  0
  -26.0731  -26.9692   19.4705 C   0  0  0  0  0  0
  -24.8727  -27.7040   19.4950 C   0  0  0  0  0  0
  -23.6046  -29.8274   20.1664 C   0  0  0  0  0  0
  -25.4108  -36.3107   24.0346 C   0  0  1  0  0  0
  -20.5854  -28.3643   23.1336 C   0  0  2  0  0  0
  -20.6771  -26.9391   22.5411 C   0  0  0  0  0  0
  -19.5752  -26.6364   21.5202 C   0  0  0  0  0  0
  -18.1916  -26.7896   22.1598 C   0  0  0  0  0  0
  -19.1512  -28.8815   23.2882 C   0  0  0  0  0  0
  -18.9454  -30.1424   23.8890 C   0  0  0  0  0  0
  -17.6462  -30.6571   24.0550 C   0  0  0  0  0  0
  -25.9044  -34.9479   23.5128 C   0  0  0  0  0  0
  -16.5345  -29.9076   23.6315 C   0  0  0  0  0  0
  -16.7254  -28.6491   23.0331 C   0  0  0  0  0  0
  -26.4488  -31.6598   25.0720 C   0  0  0  0  0  0
  -25.3764  -31.3711   26.1476 C   0  0  0  0  0  0
  -27.0323  -30.3052   24.6062 C   0  0  0  0  0  0
  -27.6048  -32.4329   25.7497 C   0  0  0  0  0  0
  -27.5574  -37.1810   24.8469 C   0  0  0  0  0  0
  -21.4140  -29.3016   22.3765 N   0  0  0  0  0  0
  -26.4292  -37.3791   23.9405 N   0  0  0  0  0  0
  -24.6610  -31.0851   22.1028 N   0  0  0  0  0  0
  -23.4200  -28.8210   23.3054 O   0  0  0  0  0  0
  -28.4025  -26.7500   20.0147 O   0  0  0  0  0  0
  -26.5567  -34.8942   22.4660 O   0  0  0  0  0  0
  -23.5334  -32.1464   23.7569 O   0  0  0  0  0  0
  -28.9484  -17.0183   22.1590 C   0  0  0  0  0  0
  -31.2011  -17.3690   21.3445 C   0  0  0  0  0  0
  -29.7221  -19.3114   21.6906 C   0  0  0  0  0  0
  -28.7069  -18.4051   22.1306 C   0  0  0  0  0  0
  -30.9953  -18.7655   21.3268 C   0  0  0  0  0  0
  -30.1722  -16.4892   21.7305 C   0  0  0  0  0  0
  -29.9567  -21.6256   20.4189 C   0  0  0  0  0  0
  -29.1418  -22.9148   20.1842 C   0  0  0  0  0  0
  -29.3727  -20.8194   21.5940 C   0  0  2  0  0  0
  -29.4850  -21.6491   22.9097 C   0  0  2  0  0  0
  -29.2683  -23.1826   22.6711 C   0  0  2  0  0  0
  -27.3086  -18.8459   22.5520 C   0  0  0  0  0  0
  -32.1887  -19.6027   20.8900 C   0  0  0  0  0  0
  -30.7633  -21.3753   23.7280 C   0  0  0  0  0  0
  -28.6202  -23.8260   23.9180 C   0  0  0  0  0  0
  -27.7857  -24.7177   21.2385 C   0  0  0  0  0  0
  -28.7063  -25.9585   21.1628 C   0  0  0  0  0  0
  -30.3000  -15.0796   21.7137 N   0  0  0  0  0  0
  -28.4698  -23.4053   21.4240 N   0  3  1  0  0  0
  -31.4679  -12.3854   19.0858 H   0  0  0  0  0  0
  -30.3290  -11.2497   19.7455 H   0  0  0  0  0  0
  -29.7125  -11.8171   17.3928 H   0  0  0  0  0  0
  -29.6638  -13.5175   17.7837 H   0  0  0  0  0  0
  -27.8088  -11.3266   18.7811 H   0  0  0  0  0  0
  -27.3574  -12.6889   17.7910 H   0  0  0  0  0  0
  -27.7416  -14.2547   19.6319 H   0  0  0  0  0  0
  -28.6678  -11.8583   21.2831 H   0  0  0  0  0  0
  -28.4527  -13.4578   21.9032 H   0  0  0  0  0  0
  -25.2745   -9.5692   22.4768 H   0  0  0  0  0  0
  -23.9992   -7.4640   22.7478 H   0  0  0  0  0  0
  -21.0834   -8.8767   19.8949 H   0  0  0  0  0  0
  -22.3680  -10.9676   19.6166 H   0  0  0  0  0  0
  -21.2009   -7.6149   23.9710 H   0  0  0  0  0  0
  -21.1473   -6.0522   25.9069 H   0  0  0  0  0  0
  -22.0607   -2.7613   23.2835 H   0  0  0  0  0  0
  -22.4109  -11.9919   22.4775 H   0  0  0  0  0  0
  -21.1126  -13.1300   22.2544 H   0  0  0  0  0  0
  -24.6819  -15.8490   20.5205 H   0  0  0  0  0  0
  -26.3021  -15.6188   20.0983 H   0  0  0  0  0  0
  -26.7142  -32.5569   23.1193 H   0  0  0  0  0  0
  -25.0179  -33.9786   25.0554 H   0  0  0  0  0  0
  -22.6843  -31.3096   21.4187 H   0  0  0  0  0  0
  -23.3743  -35.9658   23.3312 H   0  0  0  0  0  0
  -24.3606  -36.8908   22.2057 H   0  0  0  0  0  0
  -23.7257  -37.6533   23.6639 H   0  0  0  0  0  0
  -26.0271  -31.6101   20.5957 H   0  0  0  0  0  0
  -26.8134  -30.9016   21.9776 H   0  0  0  0  0  0
  -28.0950  -29.1332   21.1716 H   0  0  0  0  0  0
  -26.0904  -26.0181   18.9603 H   0  0  0  0  0  0
  -23.9892  -27.3069   19.0156 H   0  0  0  0  0  0
  -23.7136  -30.6049   19.4077 H   0  0  0  0  0  0
  -22.7279  -29.2479   19.8693 H   0  0  0  0  0  0
  -25.1273  -36.1970   25.0844 H   0  0  0  0  0  0
  -20.9903  -28.3191   24.1477 H   0  0  0  0  0  0
  -20.5717  -26.2255   23.3591 H   0  0  0  0  0  0
  -21.6646  -26.7470   22.1190 H   0  0  0  0  0  0
  -19.6943  -25.6282   21.1231 H   0  0  0  0  0  0
  -19.6703  -27.3184   20.6739 H   0  0  0  0  0  0
  -17.4202  -26.6654   21.3982 H   0  0  0  0  0  0
  -18.0305  -26.0033   22.8998 H   0  0  0  0  0  0
  -19.7946  -30.7199   24.2300 H   0  0  0  0  0  0
  -17.5036  -31.6274   24.5114 H   0  0  0  0  0  0
  -15.5350  -30.2969   23.7670 H   0  0  0  0  0  0
  -15.8651  -28.0819   22.7036 H   0  0  0  0  0  0
  -24.5920  -30.7074   25.7826 H   0  0  0  0  0  0
  -24.8972  -32.2878   26.4924 H   0  0  0  0  0  0
  -25.8121  -30.8882   27.0222 H   0  0  0  0  0  0
  -26.2852  -29.6817   24.1141 H   0  0  0  0  0  0
  -27.4155  -29.7290   25.4488 H   0  0  0  0  0  0
  -27.8662  -30.4400   23.9163 H   0  0  0  0  0  0
  -27.2627  -33.3608   26.2093 H   0  0  0  0  0  0
  -28.3849  -32.6926   25.0329 H   0  0  0  0  0  0
  -28.0723  -31.8448   26.5403 H   0  0  0  0  0  0
  -28.2583  -38.0113   24.7495 H   0  0  0  0  0  0
  -28.1073  -36.2635   24.6299 H   0  0  0  0  0  0
  -27.2297  -37.1470   25.8879 H   0  0  0  0  0  0
  -20.9340  -29.8757   21.6986 H   0  0  0  0  0  0
  -26.0176  -38.2873   24.1401 H   0  0  0  0  0  0
  -28.1628  -16.3473   22.4777 H   0  0  0  0  0  0
  -32.1613  -16.9682   21.0476 H   0  0  0  0  0  0
  -30.9874  -21.9137   20.6177 H   0  0  0  0  0  0
  -29.9581  -21.0346   19.5009 H   0  0  0  0  0  0
  -28.3726  -22.7218   19.4341 H   0  0  0  0  0  0
  -29.7961  -23.6795   19.7625 H   0  0  0  0  0  0
  -28.3140  -20.8032   21.3412 H   0  0  0  0  0  0
  -28.6711  -21.3084   23.5472 H   0  0  0  0  0  0
  -30.2402  -23.6570   22.5200 H   0  0  0  0  0  0
  -26.7439  -18.0159   22.9782 H   0  0  0  0  0  0
  -26.7375  -19.2030   21.6952 H   0  0  0  0  0  0
  -27.3303  -19.6222   23.3131 H   0  0  0  0  0  0
  -33.1091  -19.0175   20.9034 H   0  0  0  0  0  0
  -32.3564  -20.4455   21.5545 H   0  0  0  0  0  0
  -32.0618  -19.9616   19.8687 H   0  0  0  0  0  0
  -31.6551  -21.7428   23.2205 H   0  0  0  0  0  0
  -30.9001  -20.3123   23.9249 H   0  0  0  0  0  0
  -30.7251  -21.8674   24.6994 H   0  0  0  0  0  0
  -27.6064  -23.4576   24.0764 H   0  0  0  0  0  0
  -28.5755  -24.9112   23.8487 H   0  0  0  0  0  0
  -29.1854  -23.6004   24.8219 H   0  0  0  0  0  0
  -27.2175  -24.6296   20.3136 H   0  0  0  0  0  0
  -27.0346  -24.8697   22.0130 H   0  0  0  0  0  0
  -29.7544  -25.6697   21.0914 H   0  0  0  0  0  0
  -28.6224  -26.5568   22.0716 H   0  0  0  0  0  0
  -29.5916  -14.5883   22.2371 H   0  0  0  0  0  0
  -27.6980  -22.7644   21.5354 H   0  0  0  0  0  0
  1 25  1  0  0  0
  1 30  2  0  0  0
  1 88  1  0  0  0
  2  3  1  0  0  0
  2 25  1  0  0  0
  2 90  1  0  0  0
  2 91  1  0  0  0
  3  4  1  0  0  0
  3 92  1  0  0  0
  3 93  1  0  0  0
  4  5  1  0  0  0
  4 94  1  0  0  0
  4 95  1  0  0  0
  5  6  1  0  0  0
  5 26  1  0  0  0
  5 96  1  0  0  0
  6 25  1  0  0  0
  6 97  1  0  0  0
  6 98  1  0  0  0
  7  8  2  0  0  0
  7 26  1  0  0  0
  7 29  1  0  0  0
  8  9  1  0  0  0
  8 22  1  0  0  0
  9 10  1  0  0  0
  9 27  2  0  0  0
 10 11  2  0  0  0
 10 15  1  0  0  0
 11 12  1  0  0  0
 11 99  1  0  0  0
 12 13  2  0  0  0
 12100  1  0  0  0
 13 14  1  0  0  0
 13 31  1  0  0  0
 14 15  2  0  0  0
 14101  1  0  0  0
 15102  1  0  0  0
 16 17  2  0  0  0
 16 21  1  0  0  0
 16 31  1  0  0  0
 17 18  1  0  0  0
 17103  1  0  0  0
 18 19  2  0  0  0
 18104  1  0  0  0
 19 20  1  0  0  0
 19 24  1  0  0  0
 20 21  2  0  0  0
 20105  1  0  0  0
 21 23  1  0  0  0
 22 28  1  0  0  0
 22 32  2  0  0  0
 26 27  1  0  0  0
 28106  1  0  0  0
 28107  1  0  0  0
 29108  1  0  0  0
 29109  1  0  0  0
 33 34  1  0  0  0
 33 66  1  0  0  0
 33 70  2  0  0  0
 34 36  1  0  0  0
 34 59  1  0  0  0
 34110  1  0  0  0
 35 44  2  0  0  0
 35 45  1  0  0  0
 35 68  1  0  0  0
 36 56  1  0  0  0
 36111  1  0  0  0
 37 39  1  0  0  0
 37 47  1  0  0  0
 37 66  1  0  0  0
 37112  1  0  0  0
 38 43  2  0  0  0
 38 46  1  0  0  0
 38 47  1  0  0  0
 39 64  1  0  0  0
 39 67  2  0  0  0
 40 52  1  0  0  0
 40 53  2  0  0  0
 40 58  1  0  0  0
 41113  1  0  0  0
 41114  1  0  0  0
 41115  1  0  0  0
 41 48  1  0  0  0
 42 43  1  0  0  0
 42 66  1  0  0  0
 42116  1  0  0  0
 42117  1  0  0  0
 43 44  1  0  0  0
 44118  1  0  0  0
 45 46  2  0  0  0
 45119  1  0  0  0
 46120  1  0  0  0
 47121  1  0  0  0
 47122  1  0  0  0
 48 56  1  0  0  0
 48 65  1  0  0  0
 48123  1  0  0  0
 49 50  1  0  0  0
 49 53  1  0  0  0
 49 64  1  0  0  0
 49124  1  0  0  0
 50 51  1  0  0  0
 50125  1  0  0  0
 50126  1  0  0  0
 51 52  1  0  0  0
 51127  1  0  0  0
 51128  1  0  0  0
 52129  1  0  0  0
 52130  1  0  0  0
 53 54  1  0  0  0
 54 55  2  0  0  0
 54131  1  0  0  0
 55 57  1  0  0  0
 55132  1  0  0  0
 56 69  2  0  0  0
 57 58  2  0  0  0
 57133  1  0  0  0
 58134  1  0  0  0
 59 60  1  0  0  0
 59 61  1  0  0  0
 59 62  1  0  0  0
 60135  1  0  0  0
 60136  1  0  0  0
 60137  1  0  0  0
 61138  1  0  0  0
 61139  1  0  0  0
 61140  1  0  0  0
 62141  1  0  0  0
 62142  1  0  0  0
 62143  1  0  0  0
 63 65  1  0  0  0
 63144  1  0  0  0
 63145  1  0  0  0
 63146  1  0  0  0
 64147  1  0  0  0
 65148  1  0  0  0
 68 87  1  0  0  0
 71 74  2  0  0  0
 71 76  1  0  0  0
 71149  1  0  0  0
 72 75  1  0  0  0
 72 76  2  0  0  0
 72150  1  0  0  0
 73 74  1  0  0  0
 73 75  2  0  0  0
 73 79  1  0  0  0
 74 82  1  0  0  0
 75 83  1  0  0  0
 76 88  1  0  0  0
 77 78  1  0  0  0
 77 79  1  0  0  0
 77151  1  0  0  0
 77152  1  0  0  0
 78 89  1  0  0  0
 78153  1  0  0  0
 78154  1  0  0  0
 79 80  1  0  0  0
 79155  1  0  0  0
 80 81  1  0  0  0
 80 84  1  0  0  0
 80156  1  0  0  0
 81 85  1  0  0  0
 81 89  1  0  0  0
 81157  1  0  0  0
 82158  1  0  0  0
 82159  1  0  0  0
 82160  1  0  0  0
 83161  1  0  0  0
 83162  1  0  0  0
 83163  1  0  0  0
 84164  1  0  0  0
 84165  1  0  0  0
 84166  1  0  0  0
 85167  1  0  0  0
 85168  1  0  0  0
 85169  1  0  0  0
 86 87  1  0  0  0
 86170  1  0  0  0
 86171  1  0  0  0
 86 89  1  0  0  0
 87172  1  0  0  0
 87173  1  0  0  0
 88174  1  0  0  0
 89175  1  0  0  0
M  CHG  1  89   1
M  ISO  4   1 100  68 101  87 101  88 100
M  END
> <chiral flag>
0

> <version>
0

> <s_m_source_file>
/data/baiqing/PycharmProjects/Reinvent-master-3.2/result/LINK_invent/BTK/process_docking_weight1_custom_sum_contain_oxygen_bond_distance_aromatic_linkinvent_7_9_3/rearranged_h_0139.sdf

> <i_m_source_file_index>
77

> <r_mmod_Potential_Energy-OPLS-2005>
-3.97551584243774

> <r_mmod_Stretch_Energy-OPLS-2005>
42.8052749633789

> <r_mmod_Bend_Energy-OPLS-2005>
126.01375579834

> <r_mmod_Torsional_Energy-OPLS-2005>
320.222015380859

> <r_mmod_Improper_Torsional_Energy-OPLS-2005>
4.8832540512085

> <r_mmod_Van_der_Waal_Energy-OPLS-2005>
175.04231262207

> <r_mmod_Electrostatic_Energy-OPLS-2005>
-269.763793945312

> <r_mmod_Solvation_Energy-OPLS-2005>
-409.678314208984

> <b_mmod_Minimization_Converged-OPLS-2005>
0

> <r_mmod_RMS_Derivative-OPLS-2005>
2.40077710151672

$$$$
77
                    3D
 Structure written by MMmdl.
174183  0  0  1  0            999 V2000
  -30.7879  -14.3708   20.6699 C   0  0  0  0  0  0
  -30.4069  -12.2935   19.3965 C   0  0  0  0  0  0
  -29.4790  -12.5267   18.1911 C   0  0  0  0  0  0
  -28.0067  -12.3721   18.6120 C   0  0  0  0  0  0
  -27.6609  -13.2084   19.8719 C   0  0  2  0  0  0
  -28.7014  -12.9808   20.9921 C   0  0  0  0  0  0
  -25.2576  -13.8184   20.5673 C   0  0  0  0  0  0
  -24.1826  -13.0453   20.9187 C   0  0  0  0  0  0
  -24.6391  -11.6929   20.8743 C   0  0  0  0  0  0
  -23.9059  -10.4304   21.0408 C   0  0  0  0  0  0
  -24.3612   -9.4218   21.9185 C   0  0  0  0  0  0
  -23.6293   -8.2248   22.0754 C   0  0  0  0  0  0
  -22.4278   -8.0279   21.3542 C   0  0  0  0  0  0
  -21.9914   -9.0254   20.4639 C   0  0  0  0  0  0
  -22.7241  -10.2135   20.3048 C   0  0  0  0  0  0
  -21.6844   -6.0739   22.5283 C   0  0  0  0  0  0
  -21.4013   -6.5642   23.8223 C   0  0  0  0  0  0
  -21.3663   -5.6793   24.9181 C   0  0  0  0  0  0
  -21.6043   -4.3055   24.7228 C   0  0  0  0  0  0
  -21.8819   -3.8153   23.4347 C   0  0  0  0  0  0
  -21.9193   -4.6969   22.3404 C   0  0  0  0  0  0
  -22.7851  -13.5249   21.1859 C   0  0  0  0  0  0
  -22.1655   -4.2152   21.0981 F   0  0  0  0  0  0
  -21.5631   -3.4534   25.7736 F   0  0  0  0  0  0
  -30.0460  -13.2546   20.4491 N   0  0  0  0  0  0
  -26.3017  -12.9361   20.3352 N   0  0  0  0  0  0
  -25.9312  -11.6521   20.5759 N   0  0  0  0  0  0
  -22.0474  -12.8209   22.0383 N   0  0  0  0  0  0
  -25.4294  -15.1893   20.4074 N   0  0  0  0  0  0
  -31.8155  -14.6411   20.0442 O   0  0  0  0  0  0
  -21.6633   -6.8877   21.4244 O   0  0  0  0  0  0
  -22.3542  -14.5558   20.6720 O   0  0  0  0  0  0
  -24.6140  -31.8648   23.2054 C   0  0  0  0  0  0
  -25.9042  -32.4789   23.8330 C   0  0  1  0  0  0
  -27.2404  -27.4307   20.0959 C   0  0  0  0  0  0
  -25.5917  -33.8593   24.2306 N   0  0  0  0  0  0
  -23.4001  -30.4854   21.5450 C   0  0  2  0  0  0
  -24.8472  -28.9495   20.1117 C   0  0  0  0  0  0
  -22.7390  -29.4620   22.4961 C   0  0  0  0  0  0
  -18.0255  -28.1343   22.8494 C   0  0  0  0  0  0
  -24.1477  -36.7293   23.2645 C   0  0  0  0  0  0
  -25.9280  -30.8276   21.3597 C   0  0  0  0  0  0
  -26.0048  -29.4609   20.7113 C   0  0  0  0  0  0
  -27.1985  -28.7071   20.7028 C   0  0  0  0  0  0
  -26.0654  -26.9364   19.4832 C   0  0  0  0  0  0
  -24.8726  -27.6856   19.4944 C   0  0  0  0  0  0
  -23.6106  -29.8168   20.1588 C   0  0  0  0  0  0
  -25.4096  -36.3107   24.0357 C   0  0  1  0  0  0
  -20.5848  -28.3630   23.1310 C   0  0  2  0  0  0
  -20.6750  -26.9378   22.5395 C   0  0  0  0  0  0
  -19.5738  -26.6379   21.5184 C   0  0  0  0  0  0
  -18.1912  -26.7896   22.1608 C   0  0  0  0  0  0
  -19.1510  -28.8803   23.2898 C   0  0  0  0  0  0
  -18.9441  -30.1423   23.8893 C   0  0  0  0  0  0
  -17.6445  -30.6559   24.0549 C   0  0  0  0  0  0
  -25.9035  -34.9471   23.5129 C   0  0  0  0  0  0
  -16.5330  -29.9068   23.6340 C   0  0  0  0  0  0
  -16.7249  -28.6483   23.0363 C   0  0  0  0  0  0
  -26.4505  -31.6550   25.0626 C   0  0  0  0  0  0
  -25.3813  -31.3604   26.1392 C   0  0  0  0  0  0
  -27.0344  -30.3007   24.5948 C   0  0  0  0  0  0
  -27.6067  -32.4262   25.7418 C   0  0  0  0  0  0
  -27.5574  -37.1800   24.8473 C   0  0  0  0  0  0
  -21.4115  -29.3017   22.3739 N   0  0  0  0  0  0
  -26.4281  -37.3802   23.9426 N   0  0  0  0  0  0
  -24.6653  -31.0739   22.0957 N   0  0  0  0  0  0
  -23.4173  -28.8201   23.3015 O   0  0  0  0  0  0
  -28.4325  -26.7313   20.1254 O   0  0  0  0  0  0
  -26.5586  -34.8936   22.4683 O   0  0  0  0  0  0
  -23.5339  -32.1394   23.7474 O   0  0  0  0  0  0
  -25.9301  -21.5807   23.2231 C   0  0  0  0  0  0
  -26.6282  -22.3515   22.3757 C   0  0  0  0  0  0
  -28.4039  -20.9274   21.6269 C   0  0  0  0  0  0
  -26.1199  -20.3517   23.7337 C   0  0  0  0  0  0
  -28.3199  -19.7749   22.3413 C   0  0  0  0  0  0
  -27.7345  -22.1065   21.6390 C   0  0  0  0  0  0
  -27.3326  -19.5400   23.4423 C   0  0  0  0  0  0
  -24.4057  -17.1933   24.0204 C   0  0  0  0  0  0
  -23.1511  -17.8729   24.5170 C   0  0  0  0  0  0
  -24.2210  -18.6798   23.8190 C   0  0  0  0  0  0
  -25.0434  -19.6922   24.5957 C   0  0  0  0  0  0
  -29.8627  -18.1689   20.9829 C   0  0  0  0  0  0
  -31.1261  -16.2726   22.2461 C   0  0  0  0  0  0
  -28.4699  -25.3323   19.7969 C   0  0  0  0  0  0
  -27.7538  -24.4188   20.8207 C   0  0  0  0  0  0
  -31.2264  -17.5522   21.3650 C   0  0  2  0  0  0
  -29.1482  -18.6655   22.1572 N   0  0  0  0  0  0
  -30.3669  -15.1589   21.6651 N   0  0  0  0  0  0
  -32.0292  -18.5760   22.0523 N   0  3  0  0  0  0
  -27.5582  -18.5656   24.1727 O   0  0  0  0  0  0
  -28.2815  -23.0790   20.8071 O   0  0  0  0  0  0
  -31.4529  -12.3734   19.0953 H   0  0  0  0  0  0
  -30.2860  -11.2772   19.7742 H   0  0  0  0  0  0
  -29.7152  -11.8260   17.3890 H   0  0  0  0  0  0
  -29.6430  -13.5265   17.7857 H   0  0  0  0  0  0
  -27.8272  -11.3149   18.8109 H   0  0  0  0  0  0
  -27.3466  -12.6408   17.7862 H   0  0  0  0  0  0
  -27.7090  -14.2577   19.5783 H   0  0  0  0  0  0
  -28.6613  -11.9493   21.3441 H   0  0  0  0  0  0
  -28.4473  -13.5914   21.8590 H   0  0  0  0  0  0
  -25.2761   -9.5692   22.4756 H   0  0  0  0  0  0
  -24.0006   -7.4638   22.7477 H   0  0  0  0  0  0
  -21.0849   -8.8769   19.8939 H   0  0  0  0  0  0
  -22.3711  -10.9664   19.6138 H   0  0  0  0  0  0
  -21.2000   -7.6154   23.9725 H   0  0  0  0  0  0
  -21.1482   -6.0520   25.9082 H   0  0  0  0  0  0
  -22.0591   -2.7618   23.2844 H   0  0  0  0  0  0
  -22.4059  -11.9840   22.4732 H   0  0  0  0  0  0
  -21.1100  -13.1250   22.2587 H   0  0  0  0  0  0
  -24.6654  -15.8469   20.5164 H   0  0  0  0  0  0
  -26.2894  -15.6279   20.1038 H   0  0  0  0  0  0
  -26.7101  -32.5480   23.1085 H   0  0  0  0  0  0
  -25.0148  -33.9776   25.0499 H   0  0  0  0  0  0
  -22.6875  -31.3017   21.4060 H   0  0  0  0  0  0
  -23.3751  -35.9612   23.3289 H   0  0  0  0  0  0
  -24.3585  -36.8895   22.2062 H   0  0  0  0  0  0
  -23.7210  -37.6491   23.6645 H   0  0  0  0  0  0
  -26.0367  -31.5910   20.5881 H   0  0  0  0  0  0
  -26.8196  -30.8811   21.9726 H   0  0  0  0  0  0
  -28.0911  -29.0979   21.1740 H   0  0  0  0  0  0
  -26.0512  -25.9798   18.9816 H   0  0  0  0  0  0
  -23.9865  -27.2876   19.0170 H   0  0  0  0  0  0
  -23.7219  -30.5912   19.4006 H   0  0  0  0  0  0
  -22.7335  -29.2387   19.8621 H   0  0  0  0  0  0
  -25.1271  -36.1987   25.0854 H   0  0  0  0  0  0
  -20.9901  -28.3171   24.1438 H   0  0  0  0  0  0
  -20.5593  -26.2244   23.3570 H   0  0  0  0  0  0
  -21.6637  -26.7395   22.1228 H   0  0  0  0  0  0
  -19.6880  -25.6300   21.1196 H   0  0  0  0  0  0
  -19.6690  -27.3217   20.6735 H   0  0  0  0  0  0
  -17.4195  -26.6674   21.3993 H   0  0  0  0  0  0
  -18.0303  -26.0005   22.8970 H   0  0  0  0  0  0
  -19.7923  -30.7238   24.2242 H   0  0  0  0  0  0
  -17.5019  -31.6237   24.5165 H   0  0  0  0  0  0
  -15.5342  -30.2970   23.7663 H   0  0  0  0  0  0
  -15.8650  -28.0803   22.7065 H   0  0  0  0  0  0
  -24.6010  -30.6921   25.7736 H   0  0  0  0  0  0
  -24.8957  -32.2737   26.4839 H   0  0  0  0  0  0
  -25.8219  -30.8784   27.0134 H   0  0  0  0  0  0
  -26.2845  -29.6727   24.1107 H   0  0  0  0  0  0
  -27.4298  -29.7276   25.4348 H   0  0  0  0  0  0
  -27.8600  -30.4348   23.8949 H   0  0  0  0  0  0
  -27.2661  -33.3578   26.1952 H   0  0  0  0  0  0
  -28.3909  -32.6771   25.0264 H   0  0  0  0  0  0
  -28.0669  -31.8379   26.5377 H   0  0  0  0  0  0
  -28.2596  -38.0096   24.7543 H   0  0  0  0  0  0
  -28.1070  -36.2629   24.6279 H   0  0  0  0  0  0
  -27.2298  -37.1403   25.8878 H   0  0  0  0  0  0
  -20.9248  -29.8767   21.7009 H   0  0  0  0  0  0
  -26.0161  -38.2884   24.1415 H   0  0  0  0  0  0
  -25.0164  -22.0498   23.5595 H   0  0  0  0  0  0
  -26.1758  -23.3210   22.2688 H   0  0  0  0  0  0
  -29.2217  -20.9305   20.9234 H   0  0  0  0  0  0
  -24.3307  -16.5612   23.1363 H   0  0  0  0  0  0
  -25.1328  -16.8679   24.7629 H   0  0  0  0  0  0
  -23.0395  -17.9942   25.5941 H   0  0  0  0  0  0
  -22.2248  -17.7103   23.9679 H   0  0  0  0  0  0
  -23.9693  -18.9973   22.8084 H   0  0  0  0  0  0
  -24.3626  -20.4564   24.9693 H   0  0  0  0  0  0
  -25.4776  -19.2287   25.4824 H   0  0  0  0  0  0
  -29.2427  -17.4214   20.4891 H   0  0  0  0  0  0
  -30.0076  -18.9590   20.2468 H   0  0  0  0  0  0
  -30.6730  -16.5137   23.2088 H   0  0  0  0  0  0
  -32.1284  -15.9098   22.4786 H   0  0  0  0  0  0
  -28.1204  -25.1481   18.7807 H   0  0  0  0  0  0
  -29.5268  -25.0616   19.7941 H   0  0  0  0  0  0
  -26.6903  -24.4196   20.5845 H   0  0  0  0  0  0
  -27.8804  -24.8309   21.8235 H   0  0  0  0  0  0
  -31.7570  -17.2974   20.4462 H   0  0  0  0  0  0
  -28.8911  -17.9344   22.8196 H   0  0  0  0  0  0
  -29.5312  -14.8623   22.1467 H   0  0  0  0  0  0
  -31.5095  -18.9334   22.8352 H   0  0  0  0  0  0
  -32.2129  -19.3415   21.4285 H   0  0  0  0  0  0
  -32.9053  -18.2030   22.3713 H   0  0  0  0  0  0
  1 25  1  0  0  0
  1 30  2  0  0  0
  1 88  1  0  0  0
  2  3  1  0  0  0
  2 25  1  0  0  0
  2 92  1  0  0  0
  2 93  1  0  0  0
  3  4  1  0  0  0
  3 94  1  0  0  0
  3 95  1  0  0  0
  4  5  1  0  0  0
  4 96  1  0  0  0
  4 97  1  0  0  0
  5  6  1  0  0  0
  5 26  1  0  0  0
  5 98  1  0  0  0
  6 25  1  0  0  0
  6 99  1  0  0  0
  6100  1  0  0  0
  7  8  2  0  0  0
  7 26  1  0  0  0
  7 29  1  0  0  0
  8  9  1  0  0  0
  8 22  1  0  0  0
  9 10  1  0  0  0
  9 27  2  0  0  0
 10 11  2  0  0  0
 10 15  1  0  0  0
 11 12  1  0  0  0
 11101  1  0  0  0
 12 13  2  0  0  0
 12102  1  0  0  0
 13 14  1  0  0  0
 13 31  1  0  0  0
 14 15  2  0  0  0
 14103  1  0  0  0
 15104  1  0  0  0
 16 17  2  0  0  0
 16 21  1  0  0  0
 16 31  1  0  0  0
 17 18  1  0  0  0
 17105  1  0  0  0
 18 19  2  0  0  0
 18106  1  0  0  0
 19 20  1  0  0  0
 19 24  1  0  0  0
 20 21  2  0  0  0
 20107  1  0  0  0
 21 23  1  0  0  0
 22 28  1  0  0  0
 22 32  2  0  0  0
 26 27  1  0  0  0
 28108  1  0  0  0
 28109  1  0  0  0
 29110  1  0  0  0
 29111  1  0  0  0
 33 34  1  0  0  0
 33 66  1  0  0  0
 33 70  2  0  0  0
 34 36  1  0  0  0
 34 59  1  0  0  0
 34112  1  0  0  0
 35 44  2  0  0  0
 35 45  1  0  0  0
 35 68  1  0  0  0
 36 56  1  0  0  0
 36113  1  0  0  0
 37 39  1  0  0  0
 37 47  1  0  0  0
 37 66  1  0  0  0
 37114  1  0  0  0
 38 43  2  0  0  0
 38 46  1  0  0  0
 38 47  1  0  0  0
 39 64  1  0  0  0
 39 67  2  0  0  0
 40 52  1  0  0  0
 40 53  2  0  0  0
 40 58  1  0  0  0
 41115  1  0  0  0
 41116  1  0  0  0
 41117  1  0  0  0
 41 48  1  0  0  0
 42 43  1  0  0  0
 42 66  1  0  0  0
 42118  1  0  0  0
 42119  1  0  0  0
 43 44  1  0  0  0
 44120  1  0  0  0
 45 46  2  0  0  0
 45121  1  0  0  0
 46122  1  0  0  0
 47123  1  0  0  0
 47124  1  0  0  0
 48 56  1  0  0  0
 48 65  1  0  0  0
 48125  1  0  0  0
 49 50  1  0  0  0
 49 53  1  0  0  0
 49 64  1  0  0  0
 49126  1  0  0  0
 50 51  1  0  0  0
 50127  1  0  0  0
 50128  1  0  0  0
 51 52  1  0  0  0
 51129  1  0  0  0
 51130  1  0  0  0
 52131  1  0  0  0
 52132  1  0  0  0
 53 54  1  0  0  0
 54 55  2  0  0  0
 54133  1  0  0  0
 55 57  1  0  0  0
 55134  1  0  0  0
 56 69  2  0  0  0
 57 58  2  0  0  0
 57135  1  0  0  0
 58136  1  0  0  0
 59 60  1  0  0  0
 59 61  1  0  0  0
 59 62  1  0  0  0
 60137  1  0  0  0
 60138  1  0  0  0
 60139  1  0  0  0
 61140  1  0  0  0
 61141  1  0  0  0
 61142  1  0  0  0
 62143  1  0  0  0
 62144  1  0  0  0
 62145  1  0  0  0
 63 65  1  0  0  0
 63146  1  0  0  0
 63147  1  0  0  0
 63148  1  0  0  0
 64149  1  0  0  0
 65150  1  0  0  0
 68 84  1  0  0  0
 71 72  1  0  0  0
 71 74  2  0  0  0
 71151  1  0  0  0
 72 76  2  0  0  0
 72152  1  0  0  0
 73 75  2  0  0  0
 73 76  1  0  0  0
 73153  1  0  0  0
 74 77  1  0  0  0
 74 81  1  0  0  0
 75 77  1  0  0  0
 75 87  1  0  0  0
 76 91  1  0  0  0
 77 90  2  0  0  0
 78 79  1  0  0  0
 78 80  1  0  0  0
 78154  1  0  0  0
 78155  1  0  0  0
 79 80  1  0  0  0
 79156  1  0  0  0
 79157  1  0  0  0
 80 81  1  0  0  0
 80158  1  0  0  0
 81159  1  0  0  0
 81160  1  0  0  0
 82 86  1  0  0  0
 82 87  1  0  0  0
 82161  1  0  0  0
 82162  1  0  0  0
 83 86  1  0  0  0
 83 88  1  0  0  0
 83163  1  0  0  0
 83164  1  0  0  0
 84 85  1  0  0  0
 84165  1  0  0  0
 84166  1  0  0  0
 85 91  1  0  0  0
 85167  1  0  0  0
 85168  1  0  0  0
 86 89  1  0  0  0
 86169  1  0  0  0
 87170  1  0  0  0
 88171  1  0  0  0
 89172  1  0  0  0
 89173  1  0  0  0
 89174  1  0  0  0
M  CHG  1  89   1
M  ISO  4   1 100  68 101  84 101  88 100
M  END
> <chiral flag>
0

> <version>
0

> <s_m_source_file>
/data/baiqing/PycharmProjects/Reinvent-master-3.2/result/LINK_invent/BTK/process_docking_weight1_custom_sum_contain_oxygen_bond_distance_aromatic_linkinvent_7_9_3/rearranged_h_0139.sdf

> <i_m_source_file_index>
78

> <r_mmod_Potential_Energy-OPLS-2005>
-328.345336914062

> <r_mmod_Stretch_Energy-OPLS-2005>
42.3649024963379

> <r_mmod_Bend_Energy-OPLS-2005>
141.605255126953

> <r_mmod_Torsional_Energy-OPLS-2005>
192.313247680664

> <r_mmod_Improper_Torsional_Energy-OPLS-2005>
3.78983855247498

> <r_mmod_Van_der_Waal_Energy-OPLS-2005>
160.01025390625

> <r_mmod_Electrostatic_Energy-OPLS-2005>
-390.354187011719

> <r_mmod_Solvation_Energy-OPLS-2005>
-487.320739746094

> <b_mmod_Minimization_Converged-OPLS-2005>
0

> <r_mmod_RMS_Derivative-OPLS-2005>
3.19187116622925

$$$$
78
                    3D
 Structure written by MMmdl.
164172  0  0  1  0            999 V2000
  -30.6791  -14.4894   20.5760 C   0  0  0  0  0  0
  -30.4325  -12.3252   19.4122 C   0  0  0  0  0  0
  -29.4904  -12.5009   18.2022 C   0  0  0  0  0  0
  -28.0141  -12.3607   18.6268 C   0  0  0  0  0  0
  -27.6643  -13.2003   19.8856 C   0  0  2  0  0  0
  -28.7118  -12.9698   20.9971 C   0  0  0  0  0  0
  -25.2572  -13.8139   20.5641 C   0  0  0  0  0  0
  -24.1833  -13.0456   20.9194 C   0  0  0  0  0  0
  -24.6377  -11.6900   20.8805 C   0  0  0  0  0  0
  -23.9035  -10.4297   21.0433 C   0  0  0  0  0  0
  -24.3571   -9.4218   21.9221 C   0  0  0  0  0  0
  -23.6219   -8.2276   22.0792 C   0  0  0  0  0  0
  -22.4220   -8.0311   21.3550 C   0  0  0  0  0  0
  -21.9879   -9.0283   20.4641 C   0  0  0  0  0  0
  -22.7218  -10.2148   20.3054 C   0  0  0  0  0  0
  -21.6852   -6.0731   22.5258 C   0  0  0  0  0  0
  -21.4007   -6.5644   23.8181 C   0  0  0  0  0  0
  -21.3641   -5.6803   24.9150 C   0  0  0  0  0  0
  -21.6041   -4.3067   24.7202 C   0  0  0  0  0  0
  -21.8853   -3.8152   23.4333 C   0  0  0  0  0  0
  -21.9215   -4.6955   22.3387 C   0  0  0  0  0  0
  -22.7862  -13.5259   21.1830 C   0  0  0  0  0  0
  -22.1673   -4.2150   21.0957 F   0  0  0  0  0  0
  -21.5599   -3.4546   25.7712 F   0  0  0  0  0  0
  -30.0326  -13.3009   20.4356 N   0  0  0  0  0  0
  -26.3040  -12.9300   20.3464 N   0  0  0  0  0  0
  -25.9328  -11.6474   20.5913 N   0  0  0  0  0  0
  -22.0480  -12.8309   22.0406 N   0  0  0  0  0  0
  -25.4316  -15.1827   20.3875 N   0  0  0  0  0  0
  -31.8128  -14.6965   20.1352 O   0  0  0  0  0  0
  -21.6635   -6.8871   21.4203 O   0  0  0  0  0  0
  -22.3584  -14.5551   20.6631 O   0  0  0  0  0  0
  -24.6144  -31.8683   23.2106 C   0  0  0  0  0  0
  -25.9028  -32.4829   23.8427 C   0  0  1  0  0  0
  -27.2365  -27.4519   20.0945 C   0  0  0  0  0  0
  -25.5869  -33.8628   24.2337 N   0  0  0  0  0  0
  -23.4034  -30.4884   21.5521 C   0  0  2  0  0  0
  -24.8503  -28.9526   20.1188 C   0  0  0  0  0  0
  -22.7424  -29.4648   22.5036 C   0  0  0  0  0  0
  -18.0262  -28.1379   22.8491 C   0  0  0  0  0  0
  -24.1482  -36.7337   23.2641 C   0  0  0  0  0  0
  -25.9306  -30.8378   21.3624 C   0  0  0  0  0  0
  -26.0080  -29.4720   20.7128 C   0  0  0  0  0  0
  -27.2082  -28.7292   20.6951 C   0  0  0  0  0  0
  -26.0663  -26.9344   19.5072 C   0  0  0  0  0  0
  -24.8719  -27.6814   19.5154 C   0  0  0  0  0  0
  -23.6102  -29.8157   20.1680 C   0  0  0  0  0  0
  -25.4099  -36.3124   24.0345 C   0  0  1  0  0  0
  -20.5858  -28.3650   23.1333 C   0  0  2  0  0  0
  -20.6755  -26.9389   22.5419 C   0  0  0  0  0  0
  -19.5728  -26.6382   21.5221 C   0  0  0  0  0  0
  -18.1908  -26.7919   22.1632 C   0  0  0  0  0  0
  -19.1513  -28.8839   23.2905 C   0  0  0  0  0  0
  -18.9438  -30.1451   23.8911 C   0  0  0  0  0  0
  -17.6440  -30.6586   24.0563 C   0  0  0  0  0  0
  -25.9022  -34.9480   23.5145 C   0  0  0  0  0  0
  -16.5334  -29.9084   23.6326 C   0  0  0  0  0  0
  -16.7251  -28.6501   23.0343 C   0  0  0  0  0  0
  -26.4442  -31.6625   25.0774 C   0  0  0  0  0  0
  -25.3711  -31.3742   26.1538 C   0  0  0  0  0  0
  -27.0259  -30.3060   24.6158 C   0  0  0  0  0  0
  -27.6018  -32.4362   25.7515 C   0  0  0  0  0  0
  -27.5583  -37.1817   24.8468 C   0  0  0  0  0  0
  -21.4157  -29.3017   22.3761 N   0  0  0  0  0  0
  -26.4293  -37.3803   23.9419 N   0  0  0  0  0  0
  -24.6678  -31.0799   22.0993 N   0  0  0  0  0  0
  -23.4189  -28.8216   23.3098 O   0  0  0  0  0  0
  -28.3880  -26.7092   20.0533 O   0  0  0  0  0  0
  -26.5596  -34.8930   22.4716 O   0  0  0  0  0  0
  -23.5329  -32.1420   23.7492 O   0  0  0  0  0  0
  -25.7109  -20.8487   22.0124 C   0  0  0  0  0  0
  -25.9524  -22.1472   21.5360 C   0  0  0  0  0  0
  -28.2611  -21.5448   21.0814 C   0  0  0  0  0  0
  -28.0399  -20.2264   21.5622 C   0  0  0  0  0  0
  -26.7477  -19.8860   22.0552 C   0  0  0  0  0  0
  -27.2347  -22.5242   21.1023 C   0  0  0  0  0  0
  -25.4314  -17.8891   22.7857 C   0  0  0  0  0  0
  -25.5848  -16.5650   23.5222 C   0  0  0  0  0  0
  -29.2425  -19.2638   21.6424 C   0  0  0  0  0  0
  -29.0850  -17.8447   21.0199 C   0  0  0  0  0  0
  -30.2837  -16.8944   21.2977 C   0  0  0  0  0  0
  -28.6130  -25.9169   21.2210 C   0  0  0  0  0  0
  -28.7098  -24.4131   20.8841 C   0  0  0  0  0  0
  -26.5457  -18.6311   22.6912 N   0  0  0  0  0  0
  -29.9283  -15.4771   21.1015 N   0  0  0  0  0  0
  -24.3350  -18.2001   22.3151 O   0  0  0  0  0  0
  -27.4071  -23.8459   20.7451 O   0  0  0  0  0  0
  -31.4734  -12.4437   19.1087 H   0  0  0  0  0  0
  -30.3505  -11.3158   19.8166 H   0  0  0  0  0  0
  -29.7237  -11.7598   17.4389 H   0  0  0  0  0  0
  -29.6566  -13.4765   17.7435 H   0  0  0  0  0  0
  -27.8377  -11.3041   18.8330 H   0  0  0  0  0  0
  -27.3531  -12.6213   17.7993 H   0  0  0  0  0  0
  -27.7163  -14.2503   19.6002 H   0  0  0  0  0  0
  -28.7036  -11.9271   21.3204 H   0  0  0  0  0  0
  -28.4858  -13.5469   21.8943 H   0  0  0  0  0  0
  -25.2699   -9.5715   22.4823 H   0  0  0  0  0  0
  -23.9948   -7.4680   22.7517 H   0  0  0  0  0  0
  -21.0845   -8.8790   19.8881 H   0  0  0  0  0  0
  -22.3696  -10.9701   19.6156 H   0  0  0  0  0  0
  -21.1967   -7.6158   23.9665 H   0  0  0  0  0  0
  -21.1411   -6.0535   25.9054 H   0  0  0  0  0  0
  -22.0631   -2.7616   23.2827 H   0  0  0  0  0  0
  -22.4140  -12.0010   22.4826 H   0  0  0  0  0  0
  -21.1157  -13.1425   22.2738 H   0  0  0  0  0  0
  -24.6674  -15.8402   20.4975 H   0  0  0  0  0  0
  -26.2785  -15.6059   20.0311 H   0  0  0  0  0  0
  -26.7117  -32.5536   23.1215 H   0  0  0  0  0  0
  -25.0002  -33.9793   25.0464 H   0  0  0  0  0  0
  -22.6906  -31.3043   21.4123 H   0  0  0  0  0  0
  -23.3735  -35.9679   23.3304 H   0  0  0  0  0  0
  -24.3584  -36.8949   22.2057 H   0  0  0  0  0  0
  -23.7228  -37.6543   23.6648 H   0  0  0  0  0  0
  -26.0438  -31.5998   20.5893 H   0  0  0  0  0  0
  -26.8171  -30.8891   21.9819 H   0  0  0  0  0  0
  -28.1120  -29.1302   21.1333 H   0  0  0  0  0  0
  -26.0817  -25.9537   19.0528 H   0  0  0  0  0  0
  -23.9810  -27.2693   19.0637 H   0  0  0  0  0  0
  -23.7155  -30.5881   19.4053 H   0  0  0  0  0  0
  -22.7338  -29.2333   19.8782 H   0  0  0  0  0  0
  -25.1265  -36.2009   25.0834 H   0  0  0  0  0  0
  -20.9923  -28.3194   24.1464 H   0  0  0  0  0  0
  -20.5673  -26.2252   23.3597 H   0  0  0  0  0  0
  -21.6626  -26.7449   22.1207 H   0  0  0  0  0  0
  -19.6890  -25.6298   21.1234 H   0  0  0  0  0  0
  -19.6670  -27.3204   20.6760 H   0  0  0  0  0  0
  -17.4181  -26.6666   21.4031 H   0  0  0  0  0  0
  -18.0312  -26.0067   22.9032 H   0  0  0  0  0  0
  -19.7919  -30.7263   24.2280 H   0  0  0  0  0  0
  -17.4993  -31.6259   24.5166 H   0  0  0  0  0  0
  -15.5333  -30.2986   23.7648 H   0  0  0  0  0  0
  -15.8649  -28.0828   22.7047 H   0  0  0  0  0  0
  -24.5867  -30.7092   25.7917 H   0  0  0  0  0  0
  -24.8912  -32.2888   26.5025 H   0  0  0  0  0  0
  -25.8069  -30.8911   27.0287 H   0  0  0  0  0  0
  -26.2802  -29.6858   24.1163 H   0  0  0  0  0  0
  -27.3955  -29.7284   25.4643 H   0  0  0  0  0  0
  -27.8677  -30.4394   23.9359 H   0  0  0  0  0  0
  -27.2630  -33.3657   26.2112 H   0  0  0  0  0  0
  -28.3788  -32.6935   25.0305 H   0  0  0  0  0  0
  -28.0724  -31.8483   26.5407 H   0  0  0  0  0  0
  -28.2611  -38.0104   24.7501 H   0  0  0  0  0  0
  -28.1057  -36.2629   24.6293 H   0  0  0  0  0  0
  -27.2309  -37.1488   25.8874 H   0  0  0  0  0  0
  -20.9331  -29.8708   21.6947 H   0  0  0  0  0  0
  -26.0191  -38.2895   24.1379 H   0  0  0  0  0  0
  -24.7270  -20.6249   22.3968 H   0  0  0  0  0  0
  -25.1523  -22.8747   21.5589 H   0  0  0  0  0  0
  -29.2465  -21.8146   20.7293 H   0  0  0  0  0  0
  -26.3998  -15.9822   23.0918 H   0  0  0  0  0  0
  -24.6725  -15.9725   23.4522 H   0  0  0  0  0  0
  -25.8030  -16.7394   24.5759 H   0  0  0  0  0  0
  -29.5050  -19.1795   22.6960 H   0  0  0  0  0  0
  -30.1044  -19.7429   21.1759 H   0  0  0  0  0  0
  -28.9272  -17.9427   19.9440 H   0  0  0  0  0  0
  -28.2001  -17.3510   21.4036 H   0  0  0  0  0  0
  -30.6111  -17.0060   22.3330 H   0  0  0  0  0  0
  -31.1339  -17.1843   20.6788 H   0  0  0  0  0  0
  -29.5622  -26.2447   21.6454 H   0  0  0  0  0  0
  -27.8641  -26.0798   21.9993 H   0  0  0  0  0  0
  -29.2408  -23.9299   21.7064 H   0  0  0  0  0  0
  -29.2935  -24.2489   19.9790 H   0  0  0  0  0  0
  -27.3783  -18.1990   23.0639 H   0  0  0  0  0  0
  -29.0050  -15.1940   21.3943 H   0  0  0  0  0  0
  1 25  1  0  0  0
  1 30  2  0  0  0
  1 85  1  0  0  0
  2  3  1  0  0  0
  2 25  1  0  0  0
  2 88  1  0  0  0
  2 89  1  0  0  0
  3  4  1  0  0  0
  3 90  1  0  0  0
  3 91  1  0  0  0
  4  5  1  0  0  0
  4 92  1  0  0  0
  4 93  1  0  0  0
  5  6  1  0  0  0
  5 26  1  0  0  0
  5 94  1  0  0  0
  6 25  1  0  0  0
  6 95  1  0  0  0
  6 96  1  0  0  0
  7  8  2  0  0  0
  7 26  1  0  0  0
  7 29  1  0  0  0
  8  9  1  0  0  0
  8 22  1  0  0  0
  9 10  1  0  0  0
  9 27  2  0  0  0
 10 11  2  0  0  0
 10 15  1  0  0  0
 11 12  1  0  0  0
 11 97  1  0  0  0
 12 13  2  0  0  0
 12 98  1  0  0  0
 13 14  1  0  0  0
 13 31  1  0  0  0
 14 15  2  0  0  0
 14 99  1  0  0  0
 15100  1  0  0  0
 16 17  2  0  0  0
 16 21  1  0  0  0
 16 31  1  0  0  0
 17 18  1  0  0  0
 17101  1  0  0  0
 18 19  2  0  0  0
 18102  1  0  0  0
 19 20  1  0  0  0
 19 24  1  0  0  0
 20 21  2  0  0  0
 20103  1  0  0  0
 21 23  1  0  0  0
 22 28  1  0  0  0
 22 32  2  0  0  0
 26 27  1  0  0  0
 28104  1  0  0  0
 28105  1  0  0  0
 29106  1  0  0  0
 29107  1  0  0  0
 33 34  1  0  0  0
 33 66  1  0  0  0
 33 70  2  0  0  0
 34 36  1  0  0  0
 34 59  1  0  0  0
 34108  1  0  0  0
 35 44  2  0  0  0
 35 45  1  0  0  0
 35 68  1  0  0  0
 36 56  1  0  0  0
 36109  1  0  0  0
 37 39  1  0  0  0
 37 47  1  0  0  0
 37 66  1  0  0  0
 37110  1  0  0  0
 38 43  2  0  0  0
 38 46  1  0  0  0
 38 47  1  0  0  0
 39 64  1  0  0  0
 39 67  2  0  0  0
 40 52  1  0  0  0
 40 53  2  0  0  0
 40 58  1  0  0  0
 41111  1  0  0  0
 41112  1  0  0  0
 41113  1  0  0  0
 41 48  1  0  0  0
 42 43  1  0  0  0
 42 66  1  0  0  0
 42114  1  0  0  0
 42115  1  0  0  0
 43 44  1  0  0  0
 44116  1  0  0  0
 45 46  2  0  0  0
 45117  1  0  0  0
 46118  1  0  0  0
 47119  1  0  0  0
 47120  1  0  0  0
 48 56  1  0  0  0
 48 65  1  0  0  0
 48121  1  0  0  0
 49 50  1  0  0  0
 49 53  1  0  0  0
 49 64  1  0  0  0
 49122  1  0  0  0
 50 51  1  0  0  0
 50123  1  0  0  0
 50124  1  0  0  0
 51 52  1  0  0  0
 51125  1  0  0  0
 51126  1  0  0  0
 52127  1  0  0  0
 52128  1  0  0  0
 53 54  1  0  0  0
 54 55  2  0  0  0
 54129  1  0  0  0
 55 57  1  0  0  0
 55130  1  0  0  0
 56 69  2  0  0  0
 57 58  2  0  0  0
 57131  1  0  0  0
 58132  1  0  0  0
 59 60  1  0  0  0
 59 61  1  0  0  0
 59 62  1  0  0  0
 60133  1  0  0  0
 60134  1  0  0  0
 60135  1  0  0  0
 61136  1  0  0  0
 61137  1  0  0  0
 61138  1  0  0  0
 62139  1  0  0  0
 62140  1  0  0  0
 62141  1  0  0  0
 63 65  1  0  0  0
 63142  1  0  0  0
 63143  1  0  0  0
 63144  1  0  0  0
 64145  1  0  0  0
 65146  1  0  0  0
 68 82  1  0  0  0
 71 72  2  0  0  0
 71 75  1  0  0  0
 71147  1  0  0  0
 72 76  1  0  0  0
 72148  1  0  0  0
 73 74  1  0  0  0
 73 76  2  0  0  0
 73149  1  0  0  0
 74 75  2  0  0  0
 74 79  1  0  0  0
 75 84  1  0  0  0
 76 87  1  0  0  0
 77 78  1  0  0  0
 77 84  1  0  0  0
 77 86  2  0  0  0
 78150  1  0  0  0
 78151  1  0  0  0
 78152  1  0  0  0
 79 80  1  0  0  0
 79153  1  0  0  0
 79154  1  0  0  0
 80 81  1  0  0  0
 80155  1  0  0  0
 80156  1  0  0  0
 81 85  1  0  0  0
 81157  1  0  0  0
 81158  1  0  0  0
 82 83  1  0  0  0
 82159  1  0  0  0
 82160  1  0  0  0
 83 87  1  0  0  0
 83161  1  0  0  0
 83162  1  0  0  0
 84163  1  0  0  0
 85164  1  0  0  0
M  ISO  4   1 100  68 101  82 101  85 100
M  END
> <chiral flag>
0

> <version>
0

> <s_m_source_file>
/data/baiqing/PycharmProjects/Reinvent-master-3.2/result/LINK_invent/BTK/process_docking_weight1_custom_sum_contain_oxygen_bond_distance_aromatic_linkinvent_7_9_3/rearranged_h_0139.sdf

> <i_m_source_file_index>
79

> <r_mmod_Potential_Energy-OPLS-2005>
-124.198432922363

> <r_mmod_Stretch_Energy-OPLS-2005>
38.8288459777832

> <r_mmod_Bend_Energy-OPLS-2005>
105.259895324707

> <r_mmod_Torsional_Energy-OPLS-2005>
245.805084228516

> <r_mmod_Improper_Torsional_Energy-OPLS-2005>
4.12883186340332

> <r_mmod_Van_der_Waal_Energy-OPLS-2005>
146.206405639648

> <r_mmod_Electrostatic_Energy-OPLS-2005>
-436.610290527344

> <r_mmod_Solvation_Energy-OPLS-2005>
-240.660507202148

> <b_mmod_Minimization_Converged-OPLS-2005>
0

> <r_mmod_RMS_Derivative-OPLS-2005>
3.95218420028687

$$$$
79
                    3D
 Structure written by MMmdl.
163172  0  0  1  0            999 V2000
  -30.6860  -14.4661   20.5938 C   0  0  0  0  0  0
  -30.4312  -12.3129   19.4115 C   0  0  0  0  0  0
  -29.4966  -12.5210   18.2013 C   0  0  0  0  0  0
  -28.0170  -12.3711   18.6120 C   0  0  0  0  0  0
  -27.6621  -13.1989   19.8762 C   0  0  2  0  0  0
  -28.7045  -12.9574   20.9920 C   0  0  0  0  0  0
  -25.2563  -13.8105   20.5666 C   0  0  0  0  0  0
  -24.1819  -13.0398   20.9179 C   0  0  0  0  0  0
  -24.6375  -11.6872   20.8726 C   0  0  0  0  0  0
  -23.9044  -10.4267   21.0394 C   0  0  0  0  0  0
  -24.3602   -9.4195   21.9176 C   0  0  0  0  0  0
  -23.6280   -8.2234   22.0753 C   0  0  0  0  0  0
  -22.4262   -8.0267   21.3544 C   0  0  0  0  0  0
  -21.9892   -9.0231   20.4643 C   0  0  0  0  0  0
  -22.7218  -10.2109   20.3041 C   0  0  0  0  0  0
  -21.6847   -6.0726   22.5278 C   0  0  0  0  0  0
  -21.4007   -6.5632   23.8210 C   0  0  0  0  0  0
  -21.3660   -5.6786   24.9173 C   0  0  0  0  0  0
  -21.6048   -4.3051   24.7225 C   0  0  0  0  0  0
  -21.8820   -3.8141   23.4348 C   0  0  0  0  0  0
  -21.9192   -4.6955   22.3404 C   0  0  0  0  0  0
  -22.7847  -13.5218   21.1841 C   0  0  0  0  0  0
  -22.1660   -4.2144   21.0978 F   0  0  0  0  0  0
  -21.5635   -3.4535   25.7738 F   0  0  0  0  0  0
  -30.0372  -13.2786   20.4472 N   0  0  0  0  0  0
  -26.3013  -12.9283   20.3352 N   0  0  0  0  0  0
  -25.9300  -11.6449   20.5747 N   0  0  0  0  0  0
  -22.0472  -12.8227   22.0399 N   0  0  0  0  0  0
  -25.4222  -15.1811   20.4058 N   0  0  0  0  0  0
  -31.7994  -14.6961   20.1134 O   0  0  0  0  0  0
  -21.6635   -6.8863   21.4234 O   0  0  0  0  0  0
  -22.3547  -14.5528   20.6680 O   0  0  0  0  0  0
  -24.6133  -31.8685   23.2086 C   0  0  0  0  0  0
  -25.9034  -32.4821   23.8384 C   0  0  1  0  0  0
  -27.2432  -27.4441   20.1021 C   0  0  0  0  0  0
  -25.5896  -33.8620   24.2326 N   0  0  0  0  0  0
  -23.4020  -30.4884   21.5489 C   0  0  2  0  0  0
  -24.8514  -28.9473   20.1220 C   0  0  0  0  0  0
  -22.7402  -29.4664   22.5004 C   0  0  0  0  0  0
  -18.0268  -28.1373   22.8494 C   0  0  0  0  0  0
  -24.1482  -36.7304   23.2642 C   0  0  0  0  0  0
  -25.9281  -30.8359   21.3604 C   0  0  0  0  0  0
  -26.0093  -29.4675   20.7151 C   0  0  0  0  0  0
  -27.2103  -28.7231   20.7008 C   0  0  0  0  0  0
  -26.0716  -26.9296   19.5108 C   0  0  0  0  0  0
  -24.8762  -27.6761   19.5185 C   0  0  0  0  0  0
  -23.6113  -29.8123   20.1667 C   0  0  0  0  0  0
  -25.4106  -36.3111   24.0343 C   0  0  1  0  0  0
  -20.5856  -28.3664   23.1324 C   0  0  2  0  0  0
  -20.6762  -26.9402   22.5420 C   0  0  0  0  0  0
  -19.5747  -26.6387   21.5213 C   0  0  0  0  0  0
  -18.1919  -26.7925   22.1613 C   0  0  0  0  0  0
  -19.1514  -28.8834   23.2903 C   0  0  0  0  0  0
  -18.9448  -30.1439   23.8915 C   0  0  0  0  0  0
  -17.6452  -30.6585   24.0565 C   0  0  0  0  0  0
  -25.9036  -34.9477   23.5132 C   0  0  0  0  0  0
  -16.5342  -29.9089   23.6326 C   0  0  0  0  0  0
  -16.7256  -28.6499   23.0354 C   0  0  0  0  0  0
  -26.4470  -31.6594   25.0705 C   0  0  0  0  0  0
  -25.3742  -31.3690   26.1452 C   0  0  0  0  0  0
  -27.0300  -30.3039   24.6067 C   0  0  0  0  0  0
  -27.6044  -32.4309   25.7477 C   0  0  0  0  0  0
  -27.5581  -37.1804   24.8470 C   0  0  0  0  0  0
  -21.4130  -29.3035   22.3733 N   0  0  0  0  0  0
  -26.4295  -37.3796   23.9413 N   0  0  0  0  0  0
  -24.6658  -31.0789   22.0980 N   0  0  0  0  0  0
  -23.4173  -28.8221   23.3059 O   0  0  0  0  0  0
  -28.4132  -26.7243   20.0387 O   0  0  0  0  0  0
  -26.5595  -34.8929   22.4691 O   0  0  0  0  0  0
  -23.5330  -32.1437   23.7486 O   0  0  0  0  0  0
  -31.1589  -18.8297   22.1709 C   0  0  0  0  0  0
  -31.1065  -17.4198   22.1199 C   0  0  0  0  0  0
  -30.2034  -16.8269   21.2058 C   0  0  0  0  0  0
  -29.4406  -17.6818   20.3728 C   0  0  0  0  0  0
  -30.3262  -19.5995   21.3404 C   0  0  0  0  0  0
  -31.3556  -15.7925   24.1637 C   0  0  0  0  0  0
  -32.2023  -17.0025   24.4791 C   0  0  0  0  0  0
  -31.9656  -16.5991   23.0402 C   0  0  0  0  0  0
  -28.4616  -17.1352   19.3543 C   0  0  0  0  0  0
  -28.8152  -24.2919   20.2661 C   0  0  0  0  0  0
  -29.4259  -23.2218   21.2067 C   0  0  0  0  0  0
  -28.5388  -25.6432   20.9702 C   0  0  0  0  0  0
  -29.5242  -21.7948   20.6139 C   0  0  0  0  0  0
  -29.5010  -19.0312   20.4363 N   0  0  0  0  0  0
  -29.9619  -15.4196   21.2066 N   0  0  0  0  0  0
  -30.3285  -20.9781   21.4775 O   0  0  0  0  0  0
  -31.4744  -12.4293   19.1111 H   0  0  0  0  0  0
  -30.3450  -11.2950   19.7945 H   0  0  0  0  0  0
  -29.7412  -11.8111   17.4102 H   0  0  0  0  0  0
  -29.6593  -13.5152   17.7807 H   0  0  0  0  0  0
  -27.8292  -11.3131   18.7973 H   0  0  0  0  0  0
  -27.3672  -12.6534   17.7829 H   0  0  0  0  0  0
  -27.7095  -14.2490   19.5912 H   0  0  0  0  0  0
  -28.6841  -11.9124   21.3054 H   0  0  0  0  0  0
  -28.4603  -13.5264   21.8898 H   0  0  0  0  0  0
  -25.2743   -9.5685   22.4745 H   0  0  0  0  0  0
  -23.9992   -7.4633   22.7476 H   0  0  0  0  0  0
  -21.0827   -8.8739   19.8951 H   0  0  0  0  0  0
  -22.3672  -10.9640   19.6145 H   0  0  0  0  0  0
  -21.1988   -7.6140   23.9711 H   0  0  0  0  0  0
  -21.1484   -6.0516   25.9075 H   0  0  0  0  0  0
  -22.0601   -2.7603   23.2846 H   0  0  0  0  0  0
  -22.4058  -11.9886   22.4808 H   0  0  0  0  0  0
  -21.1086  -13.1263   22.2572 H   0  0  0  0  0  0
  -24.6497  -15.8308   20.5078 H   0  0  0  0  0  0
  -26.2622  -15.6168   20.0532 H   0  0  0  0  0  0
  -26.7108  -32.5546   23.1154 H   0  0  0  0  0  0
  -25.0062  -33.9788   25.0481 H   0  0  0  0  0  0
  -22.6895  -31.3031   21.4053 H   0  0  0  0  0  0
  -23.3751  -35.9631   23.3313 H   0  0  0  0  0  0
  -24.3577  -36.8908   22.2054 H   0  0  0  0  0  0
  -23.7224  -37.6507   23.6647 H   0  0  0  0  0  0
  -26.0377  -31.5989   20.5888 H   0  0  0  0  0  0
  -26.8161  -30.8936   21.9774 H   0  0  0  0  0  0
  -28.1097  -29.1277   21.1439 H   0  0  0  0  0  0
  -26.0905  -25.9588   19.0355 H   0  0  0  0  0  0
  -23.9872  -27.2700   19.0558 H   0  0  0  0  0  0
  -23.7171  -30.5821   19.4015 H   0  0  0  0  0  0
  -22.7366  -29.2278   19.8751 H   0  0  0  0  0  0
  -25.1287  -36.1978   25.0841 H   0  0  0  0  0  0
  -20.9941  -28.3228   24.1446 H   0  0  0  0  0  0
  -20.5665  -26.2275   23.3608 H   0  0  0  0  0  0
  -21.6636  -26.7456   22.1207 H   0  0  0  0  0  0
  -19.6910  -25.6300   21.1239 H   0  0  0  0  0  0
  -19.6692  -27.3200   20.6745 H   0  0  0  0  0  0
  -17.4199  -26.6685   21.4005 H   0  0  0  0  0  0
  -18.0306  -26.0056   22.8993 H   0  0  0  0  0  0
  -19.7927  -30.7244   24.2296 H   0  0  0  0  0  0
  -17.5013  -31.6274   24.5148 H   0  0  0  0  0  0
  -15.5344  -30.2999   23.7644 H   0  0  0  0  0  0
  -15.8654  -28.0825   22.7069 H   0  0  0  0  0  0
  -24.5920  -30.7035   25.7779 H   0  0  0  0  0  0
  -24.8932  -32.2843   26.4910 H   0  0  0  0  0  0
  -25.8100  -30.8847   27.0199 H   0  0  0  0  0  0
  -26.2833  -29.6792   24.1148 H   0  0  0  0  0  0
  -27.4106  -29.7279   25.4512 H   0  0  0  0  0  0
  -27.8652  -30.4357   23.9185 H   0  0  0  0  0  0
  -27.2659  -33.3594   26.2086 H   0  0  0  0  0  0
  -28.3847  -32.6890   25.0304 H   0  0  0  0  0  0
  -28.0720  -31.8413   26.5373 H   0  0  0  0  0  0
  -28.2608  -38.0093   24.7520 H   0  0  0  0  0  0
  -28.1070  -36.2629   24.6295 H   0  0  0  0  0  0
  -27.2302  -37.1446   25.8875 H   0  0  0  0  0  0
  -20.9291  -29.8743   21.6943 H   0  0  0  0  0  0
  -26.0188  -38.2877   24.1409 H   0  0  0  0  0  0
  -31.8166  -19.3260   22.8695 H   0  0  0  0  0  0
  -30.2822  -15.8760   24.3208 H   0  0  0  0  0  0
  -31.7865  -14.8170   24.3804 H   0  0  0  0  0  0
  -33.1897  -16.8194   24.8980 H   0  0  0  0  0  0
  -31.6874  -17.8815   24.8616 H   0  0  0  0  0  0
  -32.7988  -16.1563   22.4976 H   0  0  0  0  0  0
  -28.9036  -16.3160   18.7878 H   0  0  0  0  0  0
  -28.1546  -17.9015   18.6422 H   0  0  0  0  0  0
  -27.5710  -16.7735   19.8613 H   0  0  0  0  0  0
  -27.8881  -23.9226   19.8269 H   0  0  0  0  0  0
  -29.5027  -24.4530   19.4351 H   0  0  0  0  0  0
  -28.8439  -23.1745   22.1278 H   0  0  0  0  0  0
  -30.4239  -23.5507   21.4993 H   0  0  0  0  0  0
  -29.3761  -25.8908   21.6236 H   0  0  0  0  0  0
  -27.6650  -25.5548   21.6194 H   0  0  0  0  0  0
  -29.9850  -21.8226   19.6256 H   0  0  0  0  0  0
  -28.5167  -21.3918   20.4999 H   0  0  0  0  0  0
  -29.0431  -15.1232   21.5003 H   0  0  0  0  0  0
  1 25  1  0  0  0
  1 30  2  0  0  0
  1 85  1  0  0  0
  2  3  1  0  0  0
  2 25  1  0  0  0
  2 87  1  0  0  0
  2 88  1  0  0  0
  3  4  1  0  0  0
  3 89  1  0  0  0
  3 90  1  0  0  0
  4  5  1  0  0  0
  4 91  1  0  0  0
  4 92  1  0  0  0
  5  6  1  0  0  0
  5 26  1  0  0  0
  5 93  1  0  0  0
  6 25  1  0  0  0
  6 94  1  0  0  0
  6 95  1  0  0  0
  7  8  2  0  0  0
  7 26  1  0  0  0
  7 29  1  0  0  0
  8  9  1  0  0  0
  8 22  1  0  0  0
  9 10  1  0  0  0
  9 27  2  0  0  0
 10 11  2  0  0  0
 10 15  1  0  0  0
 11 12  1  0  0  0
 11 96  1  0  0  0
 12 13  2  0  0  0
 12 97  1  0  0  0
 13 14  1  0  0  0
 13 31  1  0  0  0
 14 15  2  0  0  0
 14 98  1  0  0  0
 15 99  1  0  0  0
 16 17  2  0  0  0
 16 21  1  0  0  0
 16 31  1  0  0  0
 17 18  1  0  0  0
 17100  1  0  0  0
 18 19  2  0  0  0
 18101  1  0  0  0
 19 20  1  0  0  0
 19 24  1  0  0  0
 20 21  2  0  0  0
 20102  1  0  0  0
 21 23  1  0  0  0
 22 28  1  0  0  0
 22 32  2  0  0  0
 26 27  1  0  0  0
 28103  1  0  0  0
 28104  1  0  0  0
 29105  1  0  0  0
 29106  1  0  0  0
 33 34  1  0  0  0
 33 66  1  0  0  0
 33 70  2  0  0  0
 34 36  1  0  0  0
 34 59  1  0  0  0
 34107  1  0  0  0
 35 44  2  0  0  0
 35 45  1  0  0  0
 35 68  1  0  0  0
 36 56  1  0  0  0
 36108  1  0  0  0
 37 39  1  0  0  0
 37 47  1  0  0  0
 37 66  1  0  0  0
 37109  1  0  0  0
 38 43  2  0  0  0
 38 46  1  0  0  0
 38 47  1  0  0  0
 39 64  1  0  0  0
 39 67  2  0  0  0
 40 52  1  0  0  0
 40 53  2  0  0  0
 40 58  1  0  0  0
 41110  1  0  0  0
 41111  1  0  0  0
 41112  1  0  0  0
 41 48  1  0  0  0
 42 43  1  0  0  0
 42 66  1  0  0  0
 42113  1  0  0  0
 42114  1  0  0  0
 43 44  1  0  0  0
 44115  1  0  0  0
 45 46  2  0  0  0
 45116  1  0  0  0
 46117  1  0  0  0
 47118  1  0  0  0
 47119  1  0  0  0
 48 56  1  0  0  0
 48 65  1  0  0  0
 48120  1  0  0  0
 49 50  1  0  0  0
 49 53  1  0  0  0
 49 64  1  0  0  0
 49121  1  0  0  0
 50 51  1  0  0  0
 50122  1  0  0  0
 50123  1  0  0  0
 51 52  1  0  0  0
 51124  1  0  0  0
 51125  1  0  0  0
 52126  1  0  0  0
 52127  1  0  0  0
 53 54  1  0  0  0
 54 55  2  0  0  0
 54128  1  0  0  0
 55 57  1  0  0  0
 55129  1  0  0  0
 56 69  2  0  0  0
 57 58  2  0  0  0
 57130  1  0  0  0
 58131  1  0  0  0
 59 60  1  0  0  0
 59 61  1  0  0  0
 59 62  1  0  0  0
 60132  1  0  0  0
 60133  1  0  0  0
 60134  1  0  0  0
 61135  1  0  0  0
 61136  1  0  0  0
 61137  1  0  0  0
 62138  1  0  0  0
 62139  1  0  0  0
 62140  1  0  0  0
 63 65  1  0  0  0
 63141  1  0  0  0
 63142  1  0  0  0
 63143  1  0  0  0
 64144  1  0  0  0
 65145  1  0  0  0
 68 82  1  0  0  0
 71 72  2  0  0  0
 71 75  1  0  0  0
 71146  1  0  0  0
 72 73  1  0  0  0
 72 78  1  0  0  0
 73 74  2  0  0  0
 73 85  1  0  0  0
 74 79  1  0  0  0
 74 84  1  0  0  0
 75 84  2  0  0  0
 75 86  1  0  0  0
 76 77  1  0  0  0
 76 78  1  0  0  0
 76147  1  0  0  0
 76148  1  0  0  0
 77 78  1  0  0  0
 77149  1  0  0  0
 77150  1  0  0  0
 78151  1  0  0  0
 79152  1  0  0  0
 79153  1  0  0  0
 79154  1  0  0  0
 80 81  1  0  0  0
 80 82  1  0  0  0
 80155  1  0  0  0
 80156  1  0  0  0
 81 83  1  0  0  0
 81157  1  0  0  0
 81158  1  0  0  0
 82159  1  0  0  0
 82160  1  0  0  0
 83 86  1  0  0  0
 83161  1  0  0  0
 83162  1  0  0  0
 85163  1  0  0  0
M  ISO  4   1 100  68 101  82 101  85 100
M  END
> <chiral flag>
0

> <version>
0

> <s_m_source_file>
/data/baiqing/PycharmProjects/Reinvent-master-3.2/result/LINK_invent/BTK/process_docking_weight1_custom_sum_contain_oxygen_bond_distance_aromatic_linkinvent_7_9_3/rearranged_h_0139.sdf

> <i_m_source_file_index>
80

> <r_mmod_Potential_Energy-OPLS-2005>
-232.16748046875

> <r_mmod_Stretch_Energy-OPLS-2005>
36.2705078125

> <r_mmod_Bend_Energy-OPLS-2005>
99.241569519043

> <r_mmod_Torsional_Energy-OPLS-2005>
279.261962890625

> <r_mmod_Improper_Torsional_Energy-OPLS-2005>
4.10266494750977

> <r_mmod_Van_der_Waal_Energy-OPLS-2005>
146.246154785156

> <r_mmod_Electrostatic_Energy-OPLS-2005>
-598.726196289062

> <r_mmod_Solvation_Energy-OPLS-2005>
-208.94709777832

> <b_mmod_Minimization_Converged-OPLS-2005>
0

> <r_mmod_RMS_Derivative-OPLS-2005>
0.961829006671906

$$$$
80
                    3D
 Structure written by MMmdl.
165174  0  0  1  0            999 V2000
  -30.6916  -14.4629   20.5931 C   0  0  0  0  0  0
  -30.4252  -12.3132   19.4165 C   0  0  0  0  0  0
  -29.4926  -12.5210   18.2059 C   0  0  0  0  0  0
  -28.0126  -12.3822   18.6147 C   0  0  0  0  0  0
  -27.6612  -13.2049   19.8837 C   0  0  2  0  0  0
  -28.7035  -12.9643   20.9961 C   0  0  0  0  0  0
  -25.2588  -13.8147   20.5688 C   0  0  0  0  0  0
  -24.1832  -13.0420   20.9162 C   0  0  0  0  0  0
  -24.6373  -11.6890   20.8726 C   0  0  0  0  0  0
  -23.9020  -10.4291   21.0423 C   0  0  0  0  0  0
  -24.3573   -9.4215   21.9200 C   0  0  0  0  0  0
  -23.6262   -8.2250   22.0764 C   0  0  0  0  0  0
  -22.4253   -8.0274   21.3549 C   0  0  0  0  0  0
  -21.9883   -9.0236   20.4649 C   0  0  0  0  0  0
  -22.7197  -10.2128   20.3082 C   0  0  0  0  0  0
  -21.6851   -6.0719   22.5276 C   0  0  0  0  0  0
  -21.4017   -6.5630   23.8202 C   0  0  0  0  0  0
  -21.3669   -5.6781   24.9156 C   0  0  0  0  0  0
  -21.6059   -4.3046   24.7215 C   0  0  0  0  0  0
  -21.8829   -3.8138   23.4334 C   0  0  0  0  0  0
  -21.9202   -4.6954   22.3394 C   0  0  0  0  0  0
  -22.7860  -13.5231   21.1828 C   0  0  0  0  0  0
  -22.1664   -4.2145   21.0969 F   0  0  0  0  0  0
  -21.5631   -3.4540   25.7729 F   0  0  0  0  0  0
  -30.0288  -13.2844   20.4433 N   0  0  0  0  0  0
  -26.3020  -12.9292   20.3402 N   0  0  0  0  0  0
  -25.9306  -11.6454   20.5778 N   0  0  0  0  0  0
  -22.0496  -12.8219   22.0377 N   0  0  0  0  0  0
  -25.4333  -15.1858   20.4100 N   0  0  0  0  0  0
  -31.8174  -14.6601   20.1265 O   0  0  0  0  0  0
  -21.6633   -6.8870   21.4242 O   0  0  0  0  0  0
  -22.3562  -14.5561   20.6708 O   0  0  0  0  0  0
  -24.6115  -31.8706   23.2119 C   0  0  0  0  0  0
  -25.9015  -32.4848   23.8413 C   0  0  1  0  0  0
  -27.2340  -27.4500   20.0845 C   0  0  0  0  0  0
  -25.5886  -33.8644   24.2362 N   0  0  0  0  0  0
  -23.3983  -30.4961   21.5524 C   0  0  2  0  0  0
  -24.8411  -28.9628   20.1131 C   0  0  0  0  0  0
  -22.7388  -29.4692   22.5009 C   0  0  0  0  0  0
  -18.0268  -28.1374   22.8503 C   0  0  0  0  0  0
  -24.1482  -36.7317   23.2641 C   0  0  0  0  0  0
  -25.9257  -30.8392   21.3630 C   0  0  0  0  0  0
  -25.9994  -29.4744   20.7092 C   0  0  0  0  0  0
  -27.1925  -28.7209   20.7001 C   0  0  0  0  0  0
  -26.0484  -26.9361   19.5105 C   0  0  0  0  0  0
  -24.8589  -27.6903   19.5166 C   0  0  0  0  0  0
  -23.6031  -29.8300   20.1655 C   0  0  0  0  0  0
  -25.4108  -36.3145   24.0356 C   0  0  1  0  0  0
  -20.5858  -28.3666   23.1324 C   0  0  2  0  0  0
  -20.6758  -26.9402   22.5426 C   0  0  0  0  0  0
  -19.5737  -26.6383   21.5217 C   0  0  0  0  0  0
  -18.1910  -26.7927   22.1621 C   0  0  0  0  0  0
  -19.1517  -28.8828   23.2918 C   0  0  0  0  0  0
  -18.9446  -30.1438   23.8921 C   0  0  0  0  0  0
  -17.6453  -30.6583   24.0564 C   0  0  0  0  0  0
  -25.9039  -34.9502   23.5167 C   0  0  0  0  0  0
  -16.5348  -29.9089   23.6321 C   0  0  0  0  0  0
  -16.7262  -28.6505   23.0351 C   0  0  0  0  0  0
  -26.4447  -31.6593   25.0718 C   0  0  0  0  0  0
  -25.3721  -31.3637   26.1464 C   0  0  0  0  0  0
  -27.0285  -30.3053   24.6046 C   0  0  0  0  0  0
  -27.6052  -32.4281   25.7462 C   0  0  0  0  0  0
  -27.5605  -37.1811   24.8468 C   0  0  0  0  0  0
  -21.4123  -29.3046   22.3736 N   0  0  0  0  0  0
  -26.4305  -37.3828   23.9431 N   0  0  0  0  0  0
  -24.6639  -31.0823   22.1017 N   0  0  0  0  0  0
  -23.4175  -28.8232   23.3041 O   0  0  0  0  0  0
  -28.4245  -26.7552   20.1188 O   0  0  0  0  0  0
  -26.5613  -34.8938   22.4733 O   0  0  0  0  0  0
  -23.5313  -32.1460   23.7521 O   0  0  0  0  0  0
  -30.2305  -22.4403   22.6980 C   0  0  0  0  0  0
  -28.8172  -20.9039   20.7650 C   0  0  0  0  0  0
  -29.6797  -23.0434   21.5602 C   0  0  0  0  0  0
  -28.9902  -22.2978   20.6141 C   0  0  0  0  0  0
  -30.0599  -21.0481   22.8815 C   0  0  0  0  0  0
  -29.3595  -20.2667   21.9151 C   0  0  0  0  0  0
  -29.7639  -24.4969   21.1742 C   0  0  0  0  0  0
  -28.5438  -23.1780   19.4678 C   0  0  0  0  0  0
  -29.3550  -24.4890   19.6788 C   0  0  1  0  0  0
  -30.6664  -20.4286   24.1293 C   0  0  0  0  0  0
  -31.0145  -16.8921   22.8629 C   0  0  0  0  0  0
  -28.7378  -25.7922   19.1080 C   0  0  0  0  0  0
  -29.3478  -17.8826   21.1030 C   0  0  0  0  0  0
  -30.4542  -16.8235   21.4272 C   0  0  2  0  0  0
  -29.1840  -18.8900   22.1545 N   0  0  0  0  0  0
  -29.9891  -15.4511   21.1806 N   0  0  0  0  0  0
  -31.4680  -12.4285   19.1128 H   0  0  0  0  0  0
  -30.3380  -11.2988   19.8107 H   0  0  0  0  0  0
  -29.7302  -11.8038   17.4187 H   0  0  0  0  0  0
  -29.6606  -13.5123   17.7792 H   0  0  0  0  0  0
  -27.8126  -11.3237   18.7873 H   0  0  0  0  0  0
  -27.3664  -12.6789   17.7902 H   0  0  0  0  0  0
  -27.7098  -14.2569   19.6045 H   0  0  0  0  0  0
  -28.6809  -11.9212   21.3123 H   0  0  0  0  0  0
  -28.4692  -13.5432   21.8905 H   0  0  0  0  0  0
  -25.2735   -9.5678   22.4729 H   0  0  0  0  0  0
  -23.9990   -7.4646   22.7474 H   0  0  0  0  0  0
  -21.0830   -8.8741   19.8924 H   0  0  0  0  0  0
  -22.3681  -10.9643   19.6168 H   0  0  0  0  0  0
  -21.1991   -7.6131   23.9695 H   0  0  0  0  0  0
  -21.1489   -6.0513   25.9058 H   0  0  0  0  0  0
  -22.0601   -2.7599   23.2837 H   0  0  0  0  0  0
  -22.4113  -11.9860   22.4721 H   0  0  0  0  0  0
  -21.1133  -13.1279   22.2637 H   0  0  0  0  0  0
  -24.6696  -15.8465   20.5181 H   0  0  0  0  0  0
  -26.2883  -15.6209   20.0883 H   0  0  0  0  0  0
  -26.7097  -32.5563   23.1188 H   0  0  0  0  0  0
  -25.0006  -33.9804   25.0490 H   0  0  0  0  0  0
  -22.6864  -31.3133   21.4180 H   0  0  0  0  0  0
  -23.3777  -35.9617   23.3284 H   0  0  0  0  0  0
  -24.3597  -36.8945   22.2066 H   0  0  0  0  0  0
  -23.7173  -37.6492   23.6651 H   0  0  0  0  0  0
  -26.0393  -31.6063   20.5952 H   0  0  0  0  0  0
  -26.8143  -30.8919   21.9809 H   0  0  0  0  0  0
  -28.0865  -29.1136   21.1641 H   0  0  0  0  0  0
  -26.0073  -25.9454   19.0848 H   0  0  0  0  0  0
  -23.9615  -27.2797   19.0753 H   0  0  0  0  0  0
  -23.7084  -30.6080   19.4085 H   0  0  0  0  0  0
  -22.7246  -29.2518   19.8735 H   0  0  0  0  0  0
  -25.1268  -36.2048   25.0850 H   0  0  0  0  0  0
  -20.9961  -28.3235   24.1440 H   0  0  0  0  0  0
  -20.5655  -26.2278   23.3620 H   0  0  0  0  0  0
  -21.6634  -26.7435   22.1223 H   0  0  0  0  0  0
  -19.6896  -25.6291   21.1247 H   0  0  0  0  0  0
  -19.6674  -27.3202   20.6751 H   0  0  0  0  0  0
  -17.4189  -26.6707   21.4010 H   0  0  0  0  0  0
  -18.0285  -26.0057   22.8993 H   0  0  0  0  0  0
  -19.7918  -30.7253   24.2311 H   0  0  0  0  0  0
  -17.5000  -31.6270   24.5153 H   0  0  0  0  0  0
  -15.5348  -30.3008   23.7599 H   0  0  0  0  0  0
  -15.8667  -28.0831   22.7047 H   0  0  0  0  0  0
  -24.5910  -30.6992   25.7750 H   0  0  0  0  0  0
  -24.8890  -32.2760   26.4967 H   0  0  0  0  0  0
  -25.8079  -30.8741   27.0182 H   0  0  0  0  0  0
  -26.2817  -29.6814   24.1122 H   0  0  0  0  0  0
  -27.4114  -29.7277   25.4468 H   0  0  0  0  0  0
  -27.8621  -30.4405   23.9153 H   0  0  0  0  0  0
  -27.2717  -33.3570   26.2095 H   0  0  0  0  0  0
  -28.3820  -32.6852   25.0248 H   0  0  0  0  0  0
  -28.0770  -31.8363   26.5318 H   0  0  0  0  0  0
  -28.2602  -38.0130   24.7586 H   0  0  0  0  0  0
  -28.1125  -36.2675   24.6209 H   0  0  0  0  0  0
  -27.2338  -37.1361   25.8870 H   0  0  0  0  0  0
  -20.9264  -29.8794   21.6990 H   0  0  0  0  0  0
  -26.0211  -38.2914   24.1436 H   0  0  0  0  0  0
  -30.7795  -23.0353   23.4155 H   0  0  0  0  0  0
  -28.2630  -20.3448   20.0256 H   0  0  0  0  0  0
  -30.7555  -24.9199   21.3368 H   0  0  0  0  0  0
  -29.0471  -25.0459   21.7865 H   0  0  0  0  0  0
  -27.4710  -23.3563   19.5486 H   0  0  0  0  0  0
  -28.7502  -22.7182   18.5010 H   0  0  0  0  0  0
  -30.2862  -24.3216   19.1343 H   0  0  0  0  0  0
  -30.7913  -21.1795   24.9110 H   0  0  0  0  0  0
  -31.6512  -20.0219   23.9010 H   0  0  0  0  0  0
  -30.0450  -19.6336   24.5424 H   0  0  0  0  0  0
  -31.5082  -17.8457   23.0440 H   0  0  0  0  0  0
  -31.7627  -16.1175   23.0402 H   0  0  0  0  0  0
  -30.2301  -16.7656   23.6102 H   0  0  0  0  0  0
  -27.9375  -25.5629   18.4085 H   0  0  0  0  0  0
  -29.4958  -26.2745   18.4884 H   0  0  0  0  0  0
  -28.3839  -17.3895   20.9698 H   0  0  0  0  0  0
  -29.5708  -18.3573   20.1451 H   0  0  0  0  0  0
  -31.2841  -17.0346   20.7509 H   0  0  0  0  0  0
  -29.5223  -18.5815   23.0575 H   0  0  0  0  0  0
  -29.0579  -15.2163   21.4893 H   0  0  0  0  0  0
  1 25  1  0  0  0
  1 30  2  0  0  0
  1 86  1  0  0  0
  2  3  1  0  0  0
  2 25  1  0  0  0
  2 87  1  0  0  0
  2 88  1  0  0  0
  3  4  1  0  0  0
  3 89  1  0  0  0
  3 90  1  0  0  0
  4  5  1  0  0  0
  4 91  1  0  0  0
  4 92  1  0  0  0
  5  6  1  0  0  0
  5 26  1  0  0  0
  5 93  1  0  0  0
  6 25  1  0  0  0
  6 94  1  0  0  0
  6 95  1  0  0  0
  7  8  2  0  0  0
  7 26  1  0  0  0
  7 29  1  0  0  0
  8  9  1  0  0  0
  8 22  1  0  0  0
  9 10  1  0  0  0
  9 27  2  0  0  0
 10 11  2  0  0  0
 10 15  1  0  0  0
 11 12  1  0  0  0
 11 96  1  0  0  0
 12 13  2  0  0  0
 12 97  1  0  0  0
 13 14  1  0  0  0
 13 31  1  0  0  0
 14 15  2  0  0  0
 14 98  1  0  0  0
 15 99  1  0  0  0
 16 17  2  0  0  0
 16 21  1  0  0  0
 16 31  1  0  0  0
 17 18  1  0  0  0
 17100  1  0  0  0
 18 19  2  0  0  0
 18101  1  0  0  0
 19 20  1  0  0  0
 19 24  1  0  0  0
 20 21  2  0  0  0
 20102  1  0  0  0
 21 23  1  0  0  0
 22 28  1  0  0  0
 22 32  2  0  0  0
 26 27  1  0  0  0
 28103  1  0  0  0
 28104  1  0  0  0
 29105  1  0  0  0
 29106  1  0  0  0
 33 34  1  0  0  0
 33 66  1  0  0  0
 33 70  2  0  0  0
 34 36  1  0  0  0
 34 59  1  0  0  0
 34107  1  0  0  0
 35 44  2  0  0  0
 35 45  1  0  0  0
 35 68  1  0  0  0
 36 56  1  0  0  0
 36108  1  0  0  0
 37 39  1  0  0  0
 37 47  1  0  0  0
 37 66  1  0  0  0
 37109  1  0  0  0
 38 43  2  0  0  0
 38 46  1  0  0  0
 38 47  1  0  0  0
 39 64  1  0  0  0
 39 67  2  0  0  0
 40 52  1  0  0  0
 40 53  2  0  0  0
 40 58  1  0  0  0
 41110  1  0  0  0
 41111  1  0  0  0
 41112  1  0  0  0
 41 48  1  0  0  0
 42 43  1  0  0  0
 42 66  1  0  0  0
 42113  1  0  0  0
 42114  1  0  0  0
 43 44  1  0  0  0
 44115  1  0  0  0
 45 46  2  0  0  0
 45116  1  0  0  0
 46117  1  0  0  0
 47118  1  0  0  0
 47119  1  0  0  0
 48 56  1  0  0  0
 48 65  1  0  0  0
 48120  1  0  0  0
 49 50  1  0  0  0
 49 53  1  0  0  0
 49 64  1  0  0  0
 49121  1  0  0  0
 50 51  1  0  0  0
 50122  1  0  0  0
 50123  1  0  0  0
 51 52  1  0  0  0
 51124  1  0  0  0
 51125  1  0  0  0
 52126  1  0  0  0
 52127  1  0  0  0
 53 54  1  0  0  0
 54 55  2  0  0  0
 54128  1  0  0  0
 55 57  1  0  0  0
 55129  1  0  0  0
 56 69  2  0  0  0
 57 58  2  0  0  0
 57130  1  0  0  0
 58131  1  0  0  0
 59 60  1  0  0  0
 59 61  1  0  0  0
 59 62  1  0  0  0
 60132  1  0  0  0
 60133  1  0  0  0
 60134  1  0  0  0
 61135  1  0  0  0
 61136  1  0  0  0
 61137  1  0  0  0
 62138  1  0  0  0
 62139  1  0  0  0
 62140  1  0  0  0
 63 65  1  0  0  0
 63141  1  0  0  0
 63142  1  0  0  0
 63143  1  0  0  0
 64144  1  0  0  0
 65145  1  0  0  0
 68 82  1  0  0  0
 71 73  2  0  0  0
 71 75  1  0  0  0
 71146  1  0  0  0
 72 74  2  0  0  0
 72 76  1  0  0  0
 72147  1  0  0  0
 73 74  1  0  0  0
 73 77  1  0  0  0
 74 78  1  0  0  0
 75 76  2  0  0  0
 75 80  1  0  0  0
 76 85  1  0  0  0
 77 79  1  0  0  0
 77148  1  0  0  0
 77149  1  0  0  0
 78 79  1  0  0  0
 78150  1  0  0  0
 78151  1  0  0  0
 79 82  1  0  0  0
 79152  1  0  0  0
 80153  1  0  0  0
 80154  1  0  0  0
 80155  1  0  0  0
 81156  1  0  0  0
 81157  1  0  0  0
 81158  1  0  0  0
 81 84  1  0  0  0
 82159  1  0  0  0
 82160  1  0  0  0
 83 84  1  0  0  0
 83 85  1  0  0  0
 83161  1  0  0  0
 83162  1  0  0  0
 84 86  1  0  0  0
 84163  1  0  0  0
 85164  1  0  0  0
 86165  1  0  0  0
M  ISO  4   1 100  68 101  82 101  86 100
M  END
> <chiral flag>
0

> <version>
0

> <s_m_source_file>
/data/baiqing/PycharmProjects/Reinvent-master-3.2/result/LINK_invent/BTK/process_docking_weight1_custom_sum_contain_oxygen_bond_distance_aromatic_linkinvent_7_9_3/rearranged_h_0139.sdf

> <i_m_source_file_index>
81

> <r_mmod_Potential_Energy-OPLS-2005>
-81.2362442016602

> <r_mmod_Stretch_Energy-OPLS-2005>
38.3099250793457

> <r_mmod_Bend_Energy-OPLS-2005>
159.67236328125

> <r_mmod_Torsional_Energy-OPLS-2005>
234.1533203125

> <r_mmod_Improper_Torsional_Energy-OPLS-2005>
6.04353904724121

> <r_mmod_Van_der_Waal_Energy-OPLS-2005>
158.33512878418

> <r_mmod_Electrostatic_Energy-OPLS-2005>
-478.622406005859

> <r_mmod_Solvation_Energy-OPLS-2005>
-210.903106689453

> <b_mmod_Minimization_Converged-OPLS-2005>
0

> <r_mmod_RMS_Derivative-OPLS-2005>
2.95643544197083

$$$$
81
                    3D
 Structure written by MMmdl.
157165  0  0  1  0            999 V2000
  -30.7211  -14.4686   20.5075 C   0  0  0  0  0  0
  -30.4062  -12.2891   19.4407 C   0  0  0  0  0  0
  -29.4944  -12.4895   18.2137 C   0  0  0  0  0  0
  -28.0137  -12.3573   18.6198 C   0  0  0  0  0  0
  -27.6539  -13.2149   19.8638 C   0  0  2  0  0  0
  -28.6950  -13.0473   20.9950 C   0  0  0  0  0  0
  -25.2556  -13.8174   20.5678 C   0  0  0  0  0  0
  -24.1831  -13.0441   20.9205 C   0  0  0  0  0  0
  -24.6394  -11.6912   20.8751 C   0  0  0  0  0  0
  -23.9061  -10.4295   21.0413 C   0  0  0  0  0  0
  -24.3613   -9.4204   21.9185 C   0  0  0  0  0  0
  -23.6293   -8.2236   22.0746 C   0  0  0  0  0  0
  -22.4275   -8.0280   21.3536 C   0  0  0  0  0  0
  -21.9910   -9.0257   20.4636 C   0  0  0  0  0  0
  -22.7236  -10.2138   20.3052 C   0  0  0  0  0  0
  -21.6852   -6.0738   22.5284 C   0  0  0  0  0  0
  -21.4015   -6.5637   23.8219 C   0  0  0  0  0  0
  -21.3658   -5.6784   24.9177 C   0  0  0  0  0  0
  -21.6051   -4.3050   24.7222 C   0  0  0  0  0  0
  -21.8819   -3.8144   23.4342 C   0  0  0  0  0  0
  -21.9185   -4.6963   22.3400 C   0  0  0  0  0  0
  -22.7848  -13.5240   21.1864 C   0  0  0  0  0  0
  -22.1659   -4.2151   21.0978 F   0  0  0  0  0  0
  -21.5632   -3.4533   25.7735 F   0  0  0  0  0  0
  -30.0246  -13.3065   20.4309 N   0  0  0  0  0  0
  -26.2986  -12.9360   20.3321 N   0  0  0  0  0  0
  -25.9317  -11.6513   20.5760 N   0  0  0  0  0  0
  -22.0475  -12.8233   22.0419 N   0  0  0  0  0  0
  -25.4245  -15.1890   20.4052 N   0  0  0  0  0  0
  -31.9064  -14.5465   20.1800 O   0  0  0  0  0  0
  -21.6629   -6.8885   21.4247 O   0  0  0  0  0  0
  -22.3535  -14.5543   20.6700 O   0  0  0  0  0  0
  -24.6120  -31.8694   23.2104 C   0  0  0  0  0  0
  -25.9021  -32.4833   23.8399 C   0  0  1  0  0  0
  -27.2342  -27.4526   20.1001 C   0  0  0  0  0  0
  -25.5889  -33.8631   24.2338 N   0  0  0  0  0  0
  -23.3992  -30.4922   21.5510 C   0  0  2  0  0  0
  -24.8457  -28.9529   20.1220 C   0  0  0  0  0  0
  -22.7393  -29.4666   22.5003 C   0  0  0  0  0  0
  -18.0277  -28.1380   22.8497 C   0  0  0  0  0  0
  -24.1487  -36.7314   23.2640 C   0  0  0  0  0  0
  -25.9255  -30.8389   21.3608 C   0  0  0  0  0  0
  -26.0034  -29.4712   20.7174 C   0  0  0  0  0  0
  -27.2026  -28.7269   20.7058 C   0  0  0  0  0  0
  -26.0657  -26.9413   19.5019 C   0  0  0  0  0  0
  -24.8692  -27.6844   19.5150 C   0  0  0  0  0  0
  -23.6071  -29.8193   20.1671 C   0  0  0  0  0  0
  -25.4105  -36.3112   24.0341 C   0  0  1  0  0  0
  -20.5869  -28.3652   23.1328 C   0  0  2  0  0  0
  -20.6771  -26.9396   22.5414 C   0  0  0  0  0  0
  -19.5742  -26.6385   21.5214 C   0  0  0  0  0  0
  -18.1921  -26.7928   22.1627 C   0  0  0  0  0  0
  -19.1525  -28.8830   23.2917 C   0  0  0  0  0  0
  -18.9452  -30.1445   23.8919 C   0  0  0  0  0  0
  -17.6453  -30.6581   24.0581 C   0  0  0  0  0  0
  -25.9025  -34.9479   23.5132 C   0  0  0  0  0  0
  -16.5347  -29.9085   23.6338 C   0  0  0  0  0  0
  -16.7265  -28.6511   23.0338 C   0  0  0  0  0  0
  -26.4462  -31.6598   25.0715 C   0  0  0  0  0  0
  -25.3747  -31.3694   26.1476 C   0  0  0  0  0  0
  -27.0286  -30.3045   24.6066 C   0  0  0  0  0  0
  -27.6048  -32.4309   25.7471 C   0  0  0  0  0  0
  -27.5582  -37.1810   24.8468 C   0  0  0  0  0  0
  -21.4124  -29.3030   22.3741 N   0  0  0  0  0  0
  -26.4294  -37.3792   23.9410 N   0  0  0  0  0  0
  -24.6637  -31.0812   22.0993 N   0  0  0  0  0  0
  -23.4178  -28.8224   23.3048 O   0  0  0  0  0  0
  -28.4083  -26.7477   20.0202 O   0  0  0  0  0  0
  -26.5591  -34.8926   22.4699 O   0  0  0  0  0  0
  -23.5317  -32.1434   23.7515 O   0  0  0  0  0  0
  -30.5511  -19.2914   20.9471 C   0  0  0  0  0  0
  -28.3681  -18.2988   20.5794 C   0  0  0  0  0  0
  -29.9587  -20.5558   21.1340 C   0  0  0  0  0  0
  -27.7764  -19.5720   20.7508 C   0  0  0  0  0  0
  -29.7707  -18.1587   20.6282 C   0  0  0  0  0  0
  -28.5608  -20.7254   20.9805 C   0  0  0  0  0  0
  -30.4744  -16.9113   18.6003 C   0  0  0  0  0  0
  -27.9300  -24.3727   20.5971 C   0  0  0  0  0  0
  -28.6722  -23.1509   21.1760 C   0  0  0  0  0  0
  -28.5949  -25.7129   20.9862 C   0  0  0  0  0  0
  -30.4833  -16.8934   20.1448 C   0  0  2  0  0  0
  -29.9897  -15.5954   20.6459 N   0  0  0  0  0  0
  -27.9114  -21.9490   21.0007 O   0  0  0  0  0  0
  -31.4551  -12.3564   19.1462 H   0  0  0  0  0  0
  -30.2796  -11.2902   19.8594 H   0  0  0  0  0  0
  -29.7388  -11.7619   17.4388 H   0  0  0  0  0  0
  -29.6717  -13.4724   17.7751 H   0  0  0  0  0  0
  -27.8237  -11.3042   18.8271 H   0  0  0  0  0  0
  -27.3670  -12.6217   17.7824 H   0  0  0  0  0  0
  -27.6819  -14.2540   19.5364 H   0  0  0  0  0  0
  -28.6613  -12.0362   21.4042 H   0  0  0  0  0  0
  -28.4771  -13.7181   21.8278 H   0  0  0  0  0  0
  -25.2760   -9.5679   22.4754 H   0  0  0  0  0  0
  -24.0001   -7.4629   22.7461 H   0  0  0  0  0  0
  -21.0841   -8.8774   19.8948 H   0  0  0  0  0  0
  -22.3693  -10.9675   19.6159 H   0  0  0  0  0  0
  -21.1997   -7.6144   23.9730 H   0  0  0  0  0  0
  -21.1497   -6.0509   25.9086 H   0  0  0  0  0  0
  -22.0592   -2.7606   23.2835 H   0  0  0  0  0  0
  -22.4065  -11.9889   22.4826 H   0  0  0  0  0  0
  -21.1091  -13.1273   22.2609 H   0  0  0  0  0  0
  -24.6524  -15.8391   20.5050 H   0  0  0  0  0  0
  -26.2586  -15.6209   20.0315 H   0  0  0  0  0  0
  -26.7104  -32.5548   23.1174 H   0  0  0  0  0  0
  -25.0057  -33.9804   25.0494 H   0  0  0  0  0  0
  -22.6870  -31.3083   21.4120 H   0  0  0  0  0  0
  -23.3745  -35.9652   23.3309 H   0  0  0  0  0  0
  -24.3584  -36.8909   22.2054 H   0  0  0  0  0  0
  -23.7241  -37.6526   23.6641 H   0  0  0  0  0  0
  -26.0338  -31.6007   20.5881 H   0  0  0  0  0  0
  -26.8152  -30.8968   21.9757 H   0  0  0  0  0  0
  -28.1018  -29.1297   21.1500 H   0  0  0  0  0  0
  -26.0855  -25.9779   19.0137 H   0  0  0  0  0  0
  -23.9813  -27.2802   19.0478 H   0  0  0  0  0  0
  -23.7141  -30.5914   19.4041 H   0  0  0  0  0  0
  -22.7318  -29.2361   19.8747 H   0  0  0  0  0  0
  -25.1286  -36.1983   25.0835 H   0  0  0  0  0  0
  -20.9976  -28.3211   24.1442 H   0  0  0  0  0  0
  -20.5677  -26.2261   23.3594 H   0  0  0  0  0  0
  -21.6642  -26.7440   22.1211 H   0  0  0  0  0  0
  -19.6890  -25.6299   21.1224 H   0  0  0  0  0  0
  -19.6675  -27.3216   20.6766 H   0  0  0  0  0  0
  -17.4199  -26.6695   21.4026 H   0  0  0  0  0  0
  -18.0309  -26.0063   22.9020 H   0  0  0  0  0  0
  -19.7928  -30.7265   24.2284 H   0  0  0  0  0  0
  -17.5008  -31.6257   24.5195 H   0  0  0  0  0  0
  -15.5346  -30.2991   23.7653 H   0  0  0  0  0  0
  -15.8669  -28.0847   22.7016 H   0  0  0  0  0  0
  -24.5922  -30.7037   25.7817 H   0  0  0  0  0  0
  -24.8948  -32.2853   26.4937 H   0  0  0  0  0  0
  -25.8118  -30.8858   27.0221 H   0  0  0  0  0  0
  -26.2816  -29.6812   24.1141 H   0  0  0  0  0  0
  -27.4092  -29.7269   25.4500 H   0  0  0  0  0  0
  -27.8632  -30.4375   23.9179 H   0  0  0  0  0  0
  -27.2675  -33.3594   26.2086 H   0  0  0  0  0  0
  -28.3831  -32.6887   25.0279 H   0  0  0  0  0  0
  -28.0747  -31.8412   26.5351 H   0  0  0  0  0  0
  -28.2616  -38.0094   24.7510 H   0  0  0  0  0  0
  -28.1062  -36.2631   24.6300 H   0  0  0  0  0  0
  -27.2306  -37.1466   25.8871 H   0  0  0  0  0  0
  -20.9269  -29.8746   21.6970 H   0  0  0  0  0  0
  -26.0185  -38.2871   24.1399 H   0  0  0  0  0  0
  -31.6294  -19.2149   20.9833 H   0  0  0  0  0  0
  -27.7433  -17.4539   20.3306 H   0  0  0  0  0  0
  -30.6185  -21.3849   21.3429 H   0  0  0  0  0  0
  -26.7047  -19.6716   20.6521 H   0  0  0  0  0  0
  -30.9314  -17.8262   18.2218 H   0  0  0  0  0  0
  -29.4590  -16.8666   18.2058 H   0  0  0  0  0  0
  -31.0311  -16.0799   18.1679 H   0  0  0  0  0  0
  -26.8883  -24.3764   20.9194 H   0  0  0  0  0  0
  -27.9157  -24.2759   19.5110 H   0  0  0  0  0  0
  -28.8681  -23.2870   22.2406 H   0  0  0  0  0  0
  -29.6329  -23.1098   20.6635 H   0  0  0  0  0  0
  -29.6739  -25.5734   21.0683 H   0  0  0  0  0  0
  -28.2622  -26.0342   21.9741 H   0  0  0  0  0  0
  -31.5214  -16.9908   20.4720 H   0  0  0  0  0  0
  -29.0169  -15.5110   20.8956 H   0  0  0  0  0  0
  1 25  1  0  0  0
  1 30  2  0  0  0
  1 82  1  0  0  0
  2  3  1  0  0  0
  2 25  1  0  0  0
  2 84  1  0  0  0
  2 85  1  0  0  0
  3  4  1  0  0  0
  3 86  1  0  0  0
  3 87  1  0  0  0
  4  5  1  0  0  0
  4 88  1  0  0  0
  4 89  1  0  0  0
  5  6  1  0  0  0
  5 26  1  0  0  0
  5 90  1  0  0  0
  6 25  1  0  0  0
  6 91  1  0  0  0
  6 92  1  0  0  0
  7  8  2  0  0  0
  7 26  1  0  0  0
  7 29  1  0  0  0
  8  9  1  0  0  0
  8 22  1  0  0  0
  9 10  1  0  0  0
  9 27  2  0  0  0
 10 11  2  0  0  0
 10 15  1  0  0  0
 11 12  1  0  0  0
 11 93  1  0  0  0
 12 13  2  0  0  0
 12 94  1  0  0  0
 13 14  1  0  0  0
 13 31  1  0  0  0
 14 15  2  0  0  0
 14 95  1  0  0  0
 15 96  1  0  0  0
 16 17  2  0  0  0
 16 21  1  0  0  0
 16 31  1  0  0  0
 17 18  1  0  0  0
 17 97  1  0  0  0
 18 19  2  0  0  0
 18 98  1  0  0  0
 19 20  1  0  0  0
 19 24  1  0  0  0
 20 21  2  0  0  0
 20 99  1  0  0  0
 21 23  1  0  0  0
 22 28  1  0  0  0
 22 32  2  0  0  0
 26 27  1  0  0  0
 28100  1  0  0  0
 28101  1  0  0  0
 29102  1  0  0  0
 29103  1  0  0  0
 33 34  1  0  0  0
 33 66  1  0  0  0
 33 70  2  0  0  0
 34 36  1  0  0  0
 34 59  1  0  0  0
 34104  1  0  0  0
 35 44  2  0  0  0
 35 45  1  0  0  0
 35 68  1  0  0  0
 36 56  1  0  0  0
 36105  1  0  0  0
 37 39  1  0  0  0
 37 47  1  0  0  0
 37 66  1  0  0  0
 37106  1  0  0  0
 38 43  2  0  0  0
 38 46  1  0  0  0
 38 47  1  0  0  0
 39 64  1  0  0  0
 39 67  2  0  0  0
 40 52  1  0  0  0
 40 53  2  0  0  0
 40 58  1  0  0  0
 41107  1  0  0  0
 41108  1  0  0  0
 41109  1  0  0  0
 41 48  1  0  0  0
 42 43  1  0  0  0
 42 66  1  0  0  0
 42110  1  0  0  0
 42111  1  0  0  0
 43 44  1  0  0  0
 44112  1  0  0  0
 45 46  2  0  0  0
 45113  1  0  0  0
 46114  1  0  0  0
 47115  1  0  0  0
 47116  1  0  0  0
 48 56  1  0  0  0
 48 65  1  0  0  0
 48117  1  0  0  0
 49 50  1  0  0  0
 49 53  1  0  0  0
 49 64  1  0  0  0
 49118  1  0  0  0
 50 51  1  0  0  0
 50119  1  0  0  0
 50120  1  0  0  0
 51 52  1  0  0  0
 51121  1  0  0  0
 51122  1  0  0  0
 52123  1  0  0  0
 52124  1  0  0  0
 53 54  1  0  0  0
 54 55  2  0  0  0
 54125  1  0  0  0
 55 57  1  0  0  0
 55126  1  0  0  0
 56 69  2  0  0  0
 57 58  2  0  0  0
 57127  1  0  0  0
 58128  1  0  0  0
 59 60  1  0  0  0
 59 61  1  0  0  0
 59 62  1  0  0  0
 60129  1  0  0  0
 60130  1  0  0  0
 60131  1  0  0  0
 61132  1  0  0  0
 61133  1  0  0  0
 61134  1  0  0  0
 62135  1  0  0  0
 62136  1  0  0  0
 62137  1  0  0  0
 63 65  1  0  0  0
 63138  1  0  0  0
 63139  1  0  0  0
 63140  1  0  0  0
 64141  1  0  0  0
 65142  1  0  0  0
 68 80  1  0  0  0
 71 73  2  0  0  0
 71 75  1  0  0  0
 71143  1  0  0  0
 72 74  1  0  0  0
 72 75  2  0  0  0
 72144  1  0  0  0
 73 76  1  0  0  0
 73145  1  0  0  0
 74 76  2  0  0  0
 74146  1  0  0  0
 75 81  1  0  0  0
 76 83  1  0  0  0
 77147  1  0  0  0
 77148  1  0  0  0
 77149  1  0  0  0
 77 81  1  0  0  0
 78 79  1  0  0  0
 78 80  1  0  0  0
 78150  1  0  0  0
 78151  1  0  0  0
 79 83  1  0  0  0
 79152  1  0  0  0
 79153  1  0  0  0
 80154  1  0  0  0
 80155  1  0  0  0
 81 82  1  0  0  0
 81156  1  0  0  0
 82157  1  0  0  0
M  ISO  4   1 100  68 101  80 101  82 100
M  END
> <chiral flag>
0

> <version>
0

> <s_m_source_file>
/data/baiqing/PycharmProjects/Reinvent-master-3.2/result/LINK_invent/BTK/process_docking_weight1_custom_sum_contain_oxygen_bond_distance_aromatic_linkinvent_7_9_3/rearranged_h_0139.sdf

> <i_m_source_file_index>
82

> <r_mmod_Potential_Energy-OPLS-2005>
-62.0755882263184

> <r_mmod_Stretch_Energy-OPLS-2005>
34.8888092041016

> <r_mmod_Bend_Energy-OPLS-2005>
102.50560760498

> <r_mmod_Torsional_Energy-OPLS-2005>
240.94709777832

> <r_mmod_Improper_Torsional_Energy-OPLS-2005>
9.87146282196045

> <r_mmod_Van_der_Waal_Energy-OPLS-2005>
153.190841674805

> <r_mmod_Electrostatic_Energy-OPLS-2005>
-414.431488037109

> <r_mmod_Solvation_Energy-OPLS-2005>
-206.599624633789

> <b_mmod_Minimization_Converged-OPLS-2005>
0

> <r_mmod_RMS_Derivative-OPLS-2005>
1.39745593070984

$$$$
82
                    3D
 Structure written by MMmdl.
168177  0  0  1  0            999 V2000
  -30.6697  -14.7268   20.6152 C   0  0  0  0  0  0
  -30.4471  -12.4696   19.5453 C   0  0  0  0  0  0
  -29.5189  -12.5216   18.3059 C   0  0  0  0  0  0
  -28.0423  -12.3214   18.6934 C   0  0  0  0  0  0
  -27.6381  -13.2323   19.8754 C   0  0  2  0  0  0
  -28.6698  -13.1631   21.0367 C   0  0  0  0  0  0
  -25.2246  -13.8095   20.5742 C   0  0  0  0  0  0
  -24.1610  -13.0386   20.9254 C   0  0  0  0  0  0
  -24.6206  -11.6862   20.8629 C   0  0  0  0  0  0
  -23.8918  -10.4262   21.0295 C   0  0  0  0  0  0
  -24.3512   -9.4183   21.9059 C   0  0  0  0  0  0
  -23.6223   -8.2216   22.0652 C   0  0  0  0  0  0
  -22.4152   -8.0223   21.3575 C   0  0  0  0  0  0
  -21.9746   -9.0175   20.4669 C   0  0  0  0  0  0
  -22.7048  -10.2068   20.3016 C   0  0  0  0  0  0
  -21.6827   -6.0682   22.5292 C   0  0  0  0  0  0
  -21.3949   -6.5625   23.8201 C   0  0  0  0  0  0
  -21.3702   -5.6837   24.9211 C   0  0  0  0  0  0
  -21.6044   -4.3088   24.7331 C   0  0  0  0  0  0
  -21.8738   -3.8125   23.4459 C   0  0  0  0  0  0
  -21.9165   -4.6908   22.3474 C   0  0  0  0  0  0
  -22.7671  -13.5154   21.2039 C   0  0  0  0  0  0
  -22.1620   -4.2060   21.1085 F   0  0  0  0  0  0
  -21.5699   -3.4569   25.7862 F   0  0  0  0  0  0
  -30.0164  -13.5083   20.5261 N   0  0  0  0  0  0
  -26.2796  -12.9425   20.3340 N   0  0  0  0  0  0
  -25.9131  -11.6555   20.5633 N   0  0  0  0  0  0
  -22.0337  -12.8219   22.0658 N   0  0  0  0  0  0
  -25.3666  -15.1859   20.4181 N   0  0  0  0  0  0
  -31.7298  -14.8849   20.0013 O   0  0  0  0  0  0
  -21.6589   -6.8768   21.4232 O   0  0  0  0  0  0
  -22.3370  -14.5507   20.6869 O   0  0  0  0  0  0
  -24.6303  -31.8632   23.1957 C   0  0  0  0  0  0
  -25.9200  -32.4798   23.8276 C   0  0  1  0  0  0
  -27.1960  -27.2988   20.1689 C   0  0  0  0  0  0
  -25.6023  -33.8577   24.2202 N   0  0  0  0  0  0
  -23.4235  -30.4847   21.5385 C   0  0  2  0  0  0
  -24.8678  -28.9426   20.1032 C   0  0  0  0  0  0
  -22.7514  -29.4617   22.4868 C   0  0  0  0  0  0
  -18.0297  -28.1433   22.8508 C   0  0  0  0  0  0
  -24.1462  -36.7272   23.2603 C   0  0  0  0  0  0
  -25.9598  -30.7956   21.3617 C   0  0  0  0  0  0
  -26.0333  -29.4196   20.7123 C   0  0  0  0  0  0
  -27.2135  -28.6136   20.7238 C   0  0  0  0  0  0
  -26.0170  -26.8760   19.5207 C   0  0  0  0  0  0
  -24.8622  -27.6823   19.4841 C   0  0  0  0  0  0
  -23.6399  -29.8280   20.1496 C   0  0  0  0  0  0
  -25.4093  -36.3054   24.0267 C   0  0  1  0  0  0
  -20.5895  -28.3742   23.1240 C   0  0  2  0  0  0
  -20.6812  -26.9477   22.5417 C   0  0  0  0  0  0
  -19.5777  -26.6396   21.5245 C   0  0  0  0  0  0
  -18.1935  -26.7968   22.1650 C   0  0  0  0  0  0
  -19.1554  -28.8903   23.2854 C   0  0  0  0  0  0
  -18.9448  -30.1489   23.8877 C   0  0  0  0  0  0
  -17.6434  -30.6641   24.0537 C   0  0  0  0  0  0
  -25.9054  -34.9450   23.5016 C   0  0  0  0  0  0
  -16.5344  -29.9107   23.6327 C   0  0  0  0  0  0
  -16.7260  -28.6525   23.0379 C   0  0  0  0  0  0
  -26.4564  -31.6616   25.0665 C   0  0  0  0  0  0
  -25.3823  -31.3822   26.1394 C   0  0  0  0  0  0
  -27.0312  -30.2990   24.6149 C   0  0  0  0  0  0
  -27.6046  -32.4359   25.7565 C   0  0  0  0  0  0
  -27.5541  -37.1774   24.8451 C   0  0  0  0  0  0
  -21.4209  -29.3074   22.3613 N   0  0  0  0  0  0
  -26.4242  -37.3774   23.9423 N   0  0  0  0  0  0
  -24.6912  -31.0588   22.0947 N   0  0  0  0  0  0
  -23.4227  -28.8176   23.3006 O   0  0  0  0  0  0
  -28.2538  -26.3784   20.2807 O   0  0  0  0  0  0
  -26.5569  -34.8932   22.4542 O   0  0  0  0  0  0
  -23.5469  -32.1384   23.7321 O   0  0  0  0  0  0
  -26.9508  -23.8354   22.7098 C   0  0  0  0  0  0
  -27.0671  -24.9980   21.9280 C   0  0  0  0  0  0
  -27.8293  -22.7370   22.5548 C   0  0  0  0  0  0
  -28.7953  -22.7137   21.4993 C   0  0  0  0  0  0
  -28.9214  -23.9606   20.7350 C   0  0  0  0  0  0
  -28.0697  -25.1234   20.9400 C   0  0  0  0  0  0
  -27.8022  -21.7016   23.6438 C   0  0  0  0  0  0
  -29.0313  -20.7977   23.7992 C   0  0  0  0  0  0
  -30.2297  -21.2779   22.9547 C   0  0  0  0  0  0
  -29.8187  -21.4633   21.4878 C   0  0  1  0  0  0
  -31.2323  -24.8977   20.5280 C   0  0  0  0  0  0
  -28.1901  -17.2055   20.7244 C   0  0  0  0  0  0
  -30.0877  -24.1832   19.7916 C   0  0  0  0  0  0
  -29.4083  -19.9887   20.9304 C   0  0  0  0  0  0
  -30.1454  -18.6012   21.4483 C   0  0  0  0  0  0
  -29.7251  -17.1850   20.7755 C   0  0  1  0  0  0
  -30.1298  -15.7967   21.3245 N   0  0  0  0  0  0
  -26.8931  -21.6032   24.4776 O   0  0  0  0  0  0
  -31.4779  -12.6207   19.2244 H   0  0  0  0  0  0
  -30.4368  -11.4875   20.0145 H   0  0  0  0  0  0
  -29.8107  -11.7668   17.5729 H   0  0  0  0  0  0
  -29.6343  -13.4991   17.8375 H   0  0  0  0  0  0
  -27.8895  -11.2772   18.9619 H   0  0  0  0  0  0
  -27.3917  -12.5023   17.8367 H   0  0  0  0  0  0
  -27.6431  -14.2401   19.4668 H   0  0  0  0  0  0
  -28.6631  -12.1625   21.4772 H   0  0  0  0  0  0
  -28.3557  -13.8407   21.8360 H   0  0  0  0  0  0
  -25.2643   -9.5718   22.4620 H   0  0  0  0  0  0
  -24.0048   -7.4526   22.7237 H   0  0  0  0  0  0
  -21.0662   -8.8671   19.8937 H   0  0  0  0  0  0
  -22.3454  -10.9612   19.6159 H   0  0  0  0  0  0
  -21.1793   -7.6098   23.9656 H   0  0  0  0  0  0
  -21.1658   -6.0644   25.9120 H   0  0  0  0  0  0
  -22.0429   -2.7569   23.3089 H   0  0  0  0  0  0
  -22.4029  -11.9925   22.5066 H   0  0  0  0  0  0
  -21.0856  -13.1038   22.2821 H   0  0  0  0  0  0
  -24.5697  -15.7986   20.5501 H   0  0  0  0  0  0
  -26.2056  -15.6691   20.1391 H   0  0  0  0  0  0
  -26.7268  -32.5502   23.1016 H   0  0  0  0  0  0
  -25.0359  -33.9754   25.0468 H   0  0  0  0  0  0
  -22.7173  -31.3053   21.4011 H   0  0  0  0  0  0
  -23.3727  -35.9620   23.3297 H   0  0  0  0  0  0
  -24.3493  -36.8915   22.2021 H   0  0  0  0  0  0
  -23.7253  -37.6474   23.6633 H   0  0  0  0  0  0
  -26.0660  -31.5577   20.5876 H   0  0  0  0  0  0
  -26.8450  -30.8551   21.9812 H   0  0  0  0  0  0
  -28.1110  -28.9780   21.2008 H   0  0  0  0  0  0
  -25.9755  -25.8855   19.0930 H   0  0  0  0  0  0
  -23.9693  -27.3110   18.9989 H   0  0  0  0  0  0
  -23.7655  -30.6144   19.4020 H   0  0  0  0  0  0
  -22.7583  -29.2707   19.8320 H   0  0  0  0  0  0
  -25.1287  -36.1848   25.0757 H   0  0  0  0  0  0
  -20.9957  -28.3382   24.1368 H   0  0  0  0  0  0
  -20.5735  -26.2402   23.3649 H   0  0  0  0  0  0
  -21.6654  -26.7542   22.1207 H   0  0  0  0  0  0
  -19.6919  -25.6260   21.1378 H   0  0  0  0  0  0
  -19.6704  -27.3109   20.6700 H   0  0  0  0  0  0
  -17.4216  -26.6692   21.4074 H   0  0  0  0  0  0
  -18.0351  -26.0086   22.9030 H   0  0  0  0  0  0
  -19.7892  -30.7350   24.2268 H   0  0  0  0  0  0
  -17.4980  -31.6346   24.5104 H   0  0  0  0  0  0
  -15.5333  -30.3045   23.7580 H   0  0  0  0  0  0
  -15.8684  -28.0811   22.7122 H   0  0  0  0  0  0
  -24.5982  -30.7173   25.7740 H   0  0  0  0  0  0
  -24.9060  -32.3048   26.4717 H   0  0  0  0  0  0
  -25.8178  -30.9087   27.0204 H   0  0  0  0  0  0
  -26.2820  -29.6835   24.1137 H   0  0  0  0  0  0
  -27.3856  -29.7176   25.4667 H   0  0  0  0  0  0
  -27.8795  -30.4111   23.9385 H   0  0  0  0  0  0
  -27.2522  -33.3608   26.2120 H   0  0  0  0  0  0
  -28.3961  -32.7022   25.0565 H   0  0  0  0  0  0
  -28.0605  -31.8544   26.5586 H   0  0  0  0  0  0
  -28.2534  -38.0081   24.7480 H   0  0  0  0  0  0
  -28.1043  -36.2605   24.6293 H   0  0  0  0  0  0
  -27.2235  -37.1462   25.8841 H   0  0  0  0  0  0
  -20.9385  -29.8780   21.6801 H   0  0  0  0  0  0
  -26.0104  -38.2808   24.1558 H   0  0  0  0  0  0
  -26.2184  -23.8385   23.5064 H   0  0  0  0  0  0
  -26.4151  -25.8267   22.1657 H   0  0  0  0  0  0
  -28.7347  -19.7801   23.5472 H   0  0  0  0  0  0
  -29.3193  -20.7694   24.8494 H   0  0  0  0  0  0
  -31.0597  -20.5769   23.0347 H   0  0  0  0  0  0
  -30.5949  -22.2311   23.3479 H   0  0  0  0  0  0
  -30.7155  -21.7740   20.9510 H   0  0  0  0  0  0
  -32.0880  -25.0579   19.8731 H   0  0  0  0  0  0
  -31.5748  -24.3289   21.3928 H   0  0  0  0  0  0
  -30.9123  -25.8780   20.8837 H   0  0  0  0  0  0
  -27.7581  -17.6150   21.6393 H   0  0  0  0  0  0
  -27.7624  -16.2193   20.5775 H   0  0  0  0  0  0
  -27.8399  -17.8428   19.9158 H   0  0  0  0  0  0
  -29.7664  -24.8058   18.9523 H   0  0  0  0  0  0
  -30.4211  -23.2439   19.3614 H   0  0  0  0  0  0
  -29.3751  -20.0092   19.8352 H   0  0  0  0  0  0
  -28.3569  -19.8941   21.2012 H   0  0  0  0  0  0
  -29.9109  -18.4917   22.5012 H   0  0  0  0  0  0
  -31.2331  -18.7060   21.4602 H   0  0  0  0  0  0
  -30.0916  -17.2265   19.7473 H   0  0  0  0  0  0
  -29.7296  -15.5420   22.2246 H   0  0  0  0  0  0
  1 25  1  0  0  0
  1 30  2  0  0  0
  1 87  1  0  0  0
  2  3  1  0  0  0
  2 25  1  0  0  0
  2 89  1  0  0  0
  2 90  1  0  0  0
  3  4  1  0  0  0
  3 91  1  0  0  0
  3 92  1  0  0  0
  4  5  1  0  0  0
  4 93  1  0  0  0
  4 94  1  0  0  0
  5  6  1  0  0  0
  5 26  1  0  0  0
  5 95  1  0  0  0
  6 25  1  0  0  0
  6 96  1  0  0  0
  6 97  1  0  0  0
  7  8  2  0  0  0
  7 26  1  0  0  0
  7 29  1  0  0  0
  8  9  1  0  0  0
  8 22  1  0  0  0
  9 10  1  0  0  0
  9 27  2  0  0  0
 10 11  2  0  0  0
 10 15  1  0  0  0
 11 12  1  0  0  0
 11 98  1  0  0  0
 12 13  2  0  0  0
 12 99  1  0  0  0
 13 14  1  0  0  0
 13 31  1  0  0  0
 14 15  2  0  0  0
 14100  1  0  0  0
 15101  1  0  0  0
 16 17  2  0  0  0
 16 21  1  0  0  0
 16 31  1  0  0  0
 17 18  1  0  0  0
 17102  1  0  0  0
 18 19  2  0  0  0
 18103  1  0  0  0
 19 20  1  0  0  0
 19 24  1  0  0  0
 20 21  2  0  0  0
 20104  1  0  0  0
 21 23  1  0  0  0
 22 28  1  0  0  0
 22 32  2  0  0  0
 26 27  1  0  0  0
 28105  1  0  0  0
 28106  1  0  0  0
 29107  1  0  0  0
 29108  1  0  0  0
 33 34  1  0  0  0
 33 66  1  0  0  0
 33 70  2  0  0  0
 34 36  1  0  0  0
 34 59  1  0  0  0
 34109  1  0  0  0
 35 44  2  0  0  0
 35 45  1  0  0  0
 35 68  1  0  0  0
 36 56  1  0  0  0
 36110  1  0  0  0
 37 39  1  0  0  0
 37 47  1  0  0  0
 37 66  1  0  0  0
 37111  1  0  0  0
 38 43  2  0  0  0
 38 46  1  0  0  0
 38 47  1  0  0  0
 39 64  1  0  0  0
 39 67  2  0  0  0
 40 52  1  0  0  0
 40 53  2  0  0  0
 40 58  1  0  0  0
 41112  1  0  0  0
 41113  1  0  0  0
 41114  1  0  0  0
 41 48  1  0  0  0
 42 43  1  0  0  0
 42 66  1  0  0  0
 42115  1  0  0  0
 42116  1  0  0  0
 43 44  1  0  0  0
 44117  1  0  0  0
 45 46  2  0  0  0
 45118  1  0  0  0
 46119  1  0  0  0
 47120  1  0  0  0
 47121  1  0  0  0
 48 56  1  0  0  0
 48 65  1  0  0  0
 48122  1  0  0  0
 49 50  1  0  0  0
 49 53  1  0  0  0
 49 64  1  0  0  0
 49123  1  0  0  0
 50 51  1  0  0  0
 50124  1  0  0  0
 50125  1  0  0  0
 51 52  1  0  0  0
 51126  1  0  0  0
 51127  1  0  0  0
 52128  1  0  0  0
 52129  1  0  0  0
 53 54  1  0  0  0
 54 55  2  0  0  0
 54130  1  0  0  0
 55 57  1  0  0  0
 55131  1  0  0  0
 56 69  2  0  0  0
 57 58  2  0  0  0
 57132  1  0  0  0
 58133  1  0  0  0
 59 60  1  0  0  0
 59 61  1  0  0  0
 59 62  1  0  0  0
 60134  1  0  0  0
 60135  1  0  0  0
 60136  1  0  0  0
 61137  1  0  0  0
 61138  1  0  0  0
 61139  1  0  0  0
 62140  1  0  0  0
 62141  1  0  0  0
 62142  1  0  0  0
 63 65  1  0  0  0
 63143  1  0  0  0
 63144  1  0  0  0
 63145  1  0  0  0
 64146  1  0  0  0
 65147  1  0  0  0
 68 76  1  0  0  0
 71 72  2  0  0  0
 71 73  1  0  0  0
 71148  1  0  0  0
 72 76  1  0  0  0
 72149  1  0  0  0
 73 74  2  0  0  0
 73 77  1  0  0  0
 74 75  1  0  0  0
 74 80  1  0  0  0
 75 76  2  0  0  0
 75 83  1  0  0  0
 77 78  1  0  0  0
 77 88  2  0  0  0
 78 79  1  0  0  0
 78150  1  0  0  0
 78151  1  0  0  0
 79 80  1  0  0  0
 79152  1  0  0  0
 79153  1  0  0  0
 80 84  1  0  0  0
 80154  1  0  0  0
 81 83  1  0  0  0
 81155  1  0  0  0
 81156  1  0  0  0
 81157  1  0  0  0
 82158  1  0  0  0
 82159  1  0  0  0
 82160  1  0  0  0
 82 86  1  0  0  0
 83161  1  0  0  0
 83162  1  0  0  0
 84 85  1  0  0  0
 84163  1  0  0  0
 84164  1  0  0  0
 85 86  1  0  0  0
 85165  1  0  0  0
 85166  1  0  0  0
 86 87  1  0  0  0
 86167  1  0  0  0
 87168  1  0  0  0
M  ISO  4   1 100  68 101  76 101  87 100
M  END
> <chiral flag>
0

> <version>
0

> <s_m_source_file>
/data/baiqing/PycharmProjects/Reinvent-master-3.2/result/LINK_invent/BTK/process_docking_weight1_custom_sum_contain_oxygen_bond_distance_aromatic_linkinvent_7_9_3/rearranged_h_0139.sdf

> <i_m_source_file_index>
83

> <r_mmod_Potential_Energy-OPLS-2005>
294.914672851562

> <r_mmod_Stretch_Energy-OPLS-2005>
145.511459350586

> <r_mmod_Bend_Energy-OPLS-2005>
184.05842590332

> <r_mmod_Torsional_Energy-OPLS-2005>
291.560577392578

> <r_mmod_Improper_Torsional_Energy-OPLS-2005>
7.41157627105713

> <r_mmod_Van_der_Waal_Energy-OPLS-2005>
151.600860595703

> <r_mmod_Electrostatic_Energy-OPLS-2005>
-360.954681396484

> <r_mmod_Solvation_Energy-OPLS-2005>
-209.948501586914

> <b_mmod_Minimization_Converged-OPLS-2005>
0

> <r_mmod_RMS_Derivative-OPLS-2005>
12.7077159881592

$$$$
83
                    3D
 Structure written by MMmdl.
159168  0  0  1  0            999 V2000
  -30.7093  -14.5862   20.4681 C   0  0  0  0  0  0
  -30.4074  -12.3559   19.4497 C   0  0  0  0  0  0
  -29.4920  -12.4655   18.2158 C   0  0  0  0  0  0
  -28.0136  -12.3384   18.6296 C   0  0  0  0  0  0
  -27.6425  -13.2275   19.8485 C   0  0  2  0  0  0
  -28.6912  -13.1304   20.9777 C   0  0  0  0  0  0
  -25.2519  -13.8213   20.5695 C   0  0  0  0  0  0
  -24.1808  -13.0457   20.9220 C   0  0  0  0  0  0
  -24.6392  -11.6937   20.8767 C   0  0  0  0  0  0
  -23.9073  -10.4304   21.0421 C   0  0  0  0  0  0
  -24.3625   -9.4213   21.9191 C   0  0  0  0  0  0
  -23.6298   -8.2246   22.0755 C   0  0  0  0  0  0
  -22.4280   -8.0285   21.3544 C   0  0  0  0  0  0
  -21.9923   -9.0260   20.4643 C   0  0  0  0  0  0
  -22.7252  -10.2140   20.3064 C   0  0  0  0  0  0
  -21.6847   -6.0737   22.5276 C   0  0  0  0  0  0
  -21.4006   -6.5637   23.8210 C   0  0  0  0  0  0
  -21.3666   -5.6790   24.9173 C   0  0  0  0  0  0
  -21.6051   -4.3054   24.7221 C   0  0  0  0  0  0
  -21.8818   -3.8147   23.4339 C   0  0  0  0  0  0
  -21.9190   -4.6965   22.3397 C   0  0  0  0  0  0
  -22.7829  -13.5235   21.1869 C   0  0  0  0  0  0
  -22.1659   -4.2154   21.0973 F   0  0  0  0  0  0
  -21.5643   -3.4538   25.7733 F   0  0  0  0  0  0
  -29.9956  -13.4242   20.3799 N   0  0  0  0  0  0
  -26.2943  -12.9416   20.3292 N   0  0  0  0  0  0
  -25.9319  -11.6564   20.5787 N   0  0  0  0  0  0
  -22.0468  -12.8216   22.0413 N   0  0  0  0  0  0
  -25.4209  -15.1927   20.4074 N   0  0  0  0  0  0
  -31.9242  -14.5667   20.2510 O   0  0  0  0  0  0
  -21.6643   -6.8881   21.4237 O   0  0  0  0  0  0
  -22.3519  -14.5543   20.6721 O   0  0  0  0  0  0
  -24.6176  -31.8650   23.2067 C   0  0  0  0  0  0
  -25.9051  -32.4806   23.8381 C   0  0  1  0  0  0
  -27.2272  -27.3854   20.1227 C   0  0  0  0  0  0
  -25.5891  -33.8605   24.2307 N   0  0  0  0  0  0
  -23.4082  -30.4861   21.5487 C   0  0  2  0  0  0
  -24.8556  -28.9395   20.1213 C   0  0  0  0  0  0
  -22.7424  -29.4645   22.4992 C   0  0  0  0  0  0
  -18.0273  -28.1378   22.8499 C   0  0  0  0  0  0
  -24.1484  -36.7319   23.2640 C   0  0  0  0  0  0
  -25.9396  -30.8168   21.3647 C   0  0  0  0  0  0
  -26.0175  -29.4436   20.7202 C   0  0  0  0  0  0
  -27.2096  -28.6750   20.7137 C   0  0  0  0  0  0
  -26.0509  -26.9035   19.5161 C   0  0  0  0  0  0
  -24.8685  -27.6701   19.5152 C   0  0  0  0  0  0
  -23.6199  -29.8132   20.1658 C   0  0  0  0  0  0
  -25.4106  -36.3106   24.0334 C   0  0  1  0  0  0
  -20.5865  -28.3673   23.1318 C   0  0  2  0  0  0
  -20.6764  -26.9409   22.5422 C   0  0  0  0  0  0
  -19.5743  -26.6389   21.5220 C   0  0  0  0  0  0
  -18.1921  -26.7925   22.1630 C   0  0  0  0  0  0
  -19.1522  -28.8843   23.2901 C   0  0  0  0  0  0
  -18.9449  -30.1447   23.8915 C   0  0  0  0  0  0
  -17.6451  -30.6585   24.0568 C   0  0  0  0  0  0
  -25.9036  -34.9470   23.5125 C   0  0  0  0  0  0
  -16.5342  -29.9088   23.6324 C   0  0  0  0  0  0
  -16.7263  -28.6501   23.0355 C   0  0  0  0  0  0
  -26.4467  -31.6596   25.0724 C   0  0  0  0  0  0
  -25.3721  -31.3687   26.1463 C   0  0  0  0  0  0
  -27.0312  -30.3045   24.6112 C   0  0  0  0  0  0
  -27.6045  -32.4314   25.7485 C   0  0  0  0  0  0
  -27.5576  -37.1811   24.8462 C   0  0  0  0  0  0
  -21.4150  -29.3035   22.3722 N   0  0  0  0  0  0
  -26.4289  -37.3794   23.9403 N   0  0  0  0  0  0
  -24.6736  -31.0716   22.0985 N   0  0  0  0  0  0
  -23.4176  -28.8193   23.3054 O   0  0  0  0  0  0
  -28.3793  -26.6236   20.0664 O   0  0  0  0  0  0
  -26.5614  -34.8924   22.4696 O   0  0  0  0  0  0
  -23.5357  -32.1425   23.7436 O   0  0  0  0  0  0
  -30.3929  -19.3583   19.0742 C   0  0  0  0  0  0
  -29.7189  -20.5103   19.5411 C   0  0  0  0  0  0
  -28.4681  -19.1359   21.1364 C   0  0  0  0  0  0
  -30.0894  -18.1098   19.6504 C   0  0  0  0  0  0
  -29.1706  -17.9864   20.6714 C   0  0  0  0  0  0
  -28.7453  -20.4249   20.5705 C   0  0  0  0  0  0
  -29.0980  -16.5117   21.0998 C   0  0  0  0  0  0
  -30.6777  -16.7635   19.3060 C   0  0  2  0  0  0
  -30.5161  -16.3789   17.8191 C   0  0  0  0  0  0
  -28.0931  -24.0503   20.3283 C   0  0  0  0  0  0
  -28.4678  -25.4552   20.9233 C   0  0  0  0  0  0
  -28.6870  -22.8341   21.1290 C   0  0  0  0  0  0
  -30.0466  -15.7639   20.2175 N   0  0  0  0  0  0
  -29.1570  -16.1301   17.4931 O   0  0  0  0  0  0
  -28.0241  -21.5482   20.9758 O   0  0  0  0  0  0
  -31.4525  -12.4325   19.1448 H   0  0  0  0  0  0
  -30.3048  -11.3784   19.9232 H   0  0  0  0  0  0
  -29.7425  -11.6918   17.4891 H   0  0  0  0  0  0
  -29.6557  -13.4192   17.7142 H   0  0  0  0  0  0
  -27.8308  -11.2899   18.8657 H   0  0  0  0  0  0
  -27.3657  -12.5752   17.7848 H   0  0  0  0  0  0
  -27.6486  -14.2539   19.4824 H   0  0  0  0  0  0
  -28.6941  -12.1349   21.4244 H   0  0  0  0  0  0
  -28.4621  -13.8291   21.7829 H   0  0  0  0  0  0
  -25.2762   -9.5693   22.4775 H   0  0  0  0  0  0
  -24.0007   -7.4640   22.7474 H   0  0  0  0  0  0
  -21.0858   -8.8777   19.8943 H   0  0  0  0  0  0
  -22.3705  -10.9684   19.6183 H   0  0  0  0  0  0
  -21.1985   -7.6143   23.9714 H   0  0  0  0  0  0
  -21.1499   -6.0520   25.9078 H   0  0  0  0  0  0
  -22.0593   -2.7610   23.2838 H   0  0  0  0  0  0
  -22.4074  -11.9869   22.4792 H   0  0  0  0  0  0
  -21.1090  -13.1247   22.2618 H   0  0  0  0  0  0
  -24.6544  -15.8480   20.5147 H   0  0  0  0  0  0
  -26.2568  -15.6204   20.0292 H   0  0  0  0  0  0
  -26.7124  -32.5511   23.1147 H   0  0  0  0  0  0
  -25.0005  -33.9759   25.0426 H   0  0  0  0  0  0
  -22.6988  -31.3038   21.4054 H   0  0  0  0  0  0
  -23.3741  -35.9657   23.3307 H   0  0  0  0  0  0
  -24.3574  -36.8944   22.2056 H   0  0  0  0  0  0
  -23.7244  -37.6523   23.6663 H   0  0  0  0  0  0
  -26.0504  -31.5748   20.5883 H   0  0  0  0  0  0
  -26.8277  -30.8785   21.9824 H   0  0  0  0  0  0
  -28.1102  -29.0630   21.1690 H   0  0  0  0  0  0
  -26.0521  -25.9353   19.0359 H   0  0  0  0  0  0
  -23.9757  -27.2774   19.0480 H   0  0  0  0  0  0
  -23.7308  -30.5849   19.4032 H   0  0  0  0  0  0
  -22.7424  -29.2347   19.8712 H   0  0  0  0  0  0
  -25.1281  -36.1972   25.0827 H   0  0  0  0  0  0
  -20.9952  -28.3238   24.1441 H   0  0  0  0  0  0
  -20.5684  -26.2276   23.3607 H   0  0  0  0  0  0
  -21.6632  -26.7457   22.1208 H   0  0  0  0  0  0
  -19.6908  -25.6305   21.1237 H   0  0  0  0  0  0
  -19.6680  -27.3206   20.6756 H   0  0  0  0  0  0
  -17.4194  -26.6682   21.4027 H   0  0  0  0  0  0
  -18.0317  -26.0057   22.9016 H   0  0  0  0  0  0
  -19.7924  -30.7255   24.2302 H   0  0  0  0  0  0
  -17.5007  -31.6269   24.5165 H   0  0  0  0  0  0
  -15.5344  -30.3002   23.7634 H   0  0  0  0  0  0
  -15.8662  -28.0825   22.7070 H   0  0  0  0  0  0
  -24.5902  -30.7038   25.7776 H   0  0  0  0  0  0
  -24.8898  -32.2831   26.4926 H   0  0  0  0  0  0
  -25.8062  -30.8833   27.0213 H   0  0  0  0  0  0
  -26.2869  -29.6798   24.1162 H   0  0  0  0  0  0
  -27.4084  -29.7288   25.4573 H   0  0  0  0  0  0
  -27.8695  -30.4379   23.9273 H   0  0  0  0  0  0
  -27.2686  -33.3621   26.2072 H   0  0  0  0  0  0
  -28.3847  -32.6862   25.0299 H   0  0  0  0  0  0
  -28.0723  -31.8428   26.5390 H   0  0  0  0  0  0
  -28.2591  -38.0111   24.7515 H   0  0  0  0  0  0
  -28.1074  -36.2641   24.6281 H   0  0  0  0  0  0
  -27.2293  -37.1461   25.8865 H   0  0  0  0  0  0
  -20.9322  -29.8749   21.6932 H   0  0  0  0  0  0
  -26.0179  -38.2872   24.1404 H   0  0  0  0  0  0
  -31.1200  -19.4388   18.2782 H   0  0  0  0  0  0
  -29.9342  -21.4606   19.0734 H   0  0  0  0  0  0
  -27.7263  -19.0360   21.9165 H   0  0  0  0  0  0
  -28.0822  -16.1389   20.9748 H   0  0  0  0  0  0
  -29.3771  -16.4048   22.1491 H   0  0  0  0  0  0
  -31.7433  -16.8661   19.5214 H   0  0  0  0  0  0
  -31.0997  -15.4842   17.5976 H   0  0  0  0  0  0
  -30.9119  -17.1669   17.1765 H   0  0  0  0  0  0
  -28.4391  -23.9881   19.2964 H   0  0  0  0  0  0
  -27.0067  -23.9691   20.2910 H   0  0  0  0  0  0
  -29.5134  -25.4129   21.2306 H   0  0  0  0  0  0
  -27.9098  -25.6265   21.8451 H   0  0  0  0  0  0
  -28.6054  -23.0661   22.1915 H   0  0  0  0  0  0
  -29.7603  -22.7666   20.9486 H   0  0  0  0  0  0
  -29.1086  -15.9701   16.5555 H   0  0  0  0  0  0
  1 25  1  0  0  0
  1 30  2  0  0  0
  1 83  1  0  0  0
  2  3  1  0  0  0
  2 25  1  0  0  0
  2 86  1  0  0  0
  2 87  1  0  0  0
  3  4  1  0  0  0
  3 88  1  0  0  0
  3 89  1  0  0  0
  4  5  1  0  0  0
  4 90  1  0  0  0
  4 91  1  0  0  0
  5  6  1  0  0  0
  5 26  1  0  0  0
  5 92  1  0  0  0
  6 25  1  0  0  0
  6 93  1  0  0  0
  6 94  1  0  0  0
  7  8  2  0  0  0
  7 26  1  0  0  0
  7 29  1  0  0  0
  8  9  1  0  0  0
  8 22  1  0  0  0
  9 10  1  0  0  0
  9 27  2  0  0  0
 10 11  2  0  0  0
 10 15  1  0  0  0
 11 12  1  0  0  0
 11 95  1  0  0  0
 12 13  2  0  0  0
 12 96  1  0  0  0
 13 14  1  0  0  0
 13 31  1  0  0  0
 14 15  2  0  0  0
 14 97  1  0  0  0
 15 98  1  0  0  0
 16 17  2  0  0  0
 16 21  1  0  0  0
 16 31  1  0  0  0
 17 18  1  0  0  0
 17 99  1  0  0  0
 18 19  2  0  0  0
 18100  1  0  0  0
 19 20  1  0  0  0
 19 24  1  0  0  0
 20 21  2  0  0  0
 20101  1  0  0  0
 21 23  1  0  0  0
 22 28  1  0  0  0
 22 32  2  0  0  0
 26 27  1  0  0  0
 28102  1  0  0  0
 28103  1  0  0  0
 29104  1  0  0  0
 29105  1  0  0  0
 33 34  1  0  0  0
 33 66  1  0  0  0
 33 70  2  0  0  0
 34 36  1  0  0  0
 34 59  1  0  0  0
 34106  1  0  0  0
 35 44  2  0  0  0
 35 45  1  0  0  0
 35 68  1  0  0  0
 36 56  1  0  0  0
 36107  1  0  0  0
 37 39  1  0  0  0
 37 47  1  0  0  0
 37 66  1  0  0  0
 37108  1  0  0  0
 38 43  2  0  0  0
 38 46  1  0  0  0
 38 47  1  0  0  0
 39 64  1  0  0  0
 39 67  2  0  0  0
 40 52  1  0  0  0
 40 53  2  0  0  0
 40 58  1  0  0  0
 41109  1  0  0  0
 41110  1  0  0  0
 41111  1  0  0  0
 41 48  1  0  0  0
 42 43  1  0  0  0
 42 66  1  0  0  0
 42112  1  0  0  0
 42113  1  0  0  0
 43 44  1  0  0  0
 44114  1  0  0  0
 45 46  2  0  0  0
 45115  1  0  0  0
 46116  1  0  0  0
 47117  1  0  0  0
 47118  1  0  0  0
 48 56  1  0  0  0
 48 65  1  0  0  0
 48119  1  0  0  0
 49 50  1  0  0  0
 49 53  1  0  0  0
 49 64  1  0  0  0
 49120  1  0  0  0
 50 51  1  0  0  0
 50121  1  0  0  0
 50122  1  0  0  0
 51 52  1  0  0  0
 51123  1  0  0  0
 51124  1  0  0  0
 52125  1  0  0  0
 52126  1  0  0  0
 53 54  1  0  0  0
 54 55  2  0  0  0
 54127  1  0  0  0
 55 57  1  0  0  0
 55128  1  0  0  0
 56 69  2  0  0  0
 57 58  2  0  0  0
 57129  1  0  0  0
 58130  1  0  0  0
 59 60  1  0  0  0
 59 61  1  0  0  0
 59 62  1  0  0  0
 60131  1  0  0  0
 60132  1  0  0  0
 60133  1  0  0  0
 61134  1  0  0  0
 61135  1  0  0  0
 61136  1  0  0  0
 62137  1  0  0  0
 62138  1  0  0  0
 62139  1  0  0  0
 63 65  1  0  0  0
 63140  1  0  0  0
 63141  1  0  0  0
 63142  1  0  0  0
 64143  1  0  0  0
 65144  1  0  0  0
 68 81  1  0  0  0
 71 72  2  0  0  0
 71 74  1  0  0  0
 71145  1  0  0  0
 72 76  1  0  0  0
 72146  1  0  0  0
 73 75  1  0  0  0
 73 76  2  0  0  0
 73147  1  0  0  0
 74 75  2  0  0  0
 74 78  1  0  0  0
 75 77  1  0  0  0
 76 85  1  0  0  0
 77 83  1  0  0  0
 77148  1  0  0  0
 77149  1  0  0  0
 78 79  1  0  0  0
 78 83  1  0  0  0
 78150  1  0  0  0
 79 84  1  0  0  0
 79151  1  0  0  0
 79152  1  0  0  0
 80 81  1  0  0  0
 80 82  1  0  0  0
 80153  1  0  0  0
 80154  1  0  0  0
 81155  1  0  0  0
 81156  1  0  0  0
 82 85  1  0  0  0
 82157  1  0  0  0
 82158  1  0  0  0
 84159  1  0  0  0
M  ISO  4   1 100  68 101  81 101  83 100
M  END
> <chiral flag>
0

> <version>
0

> <s_m_source_file>
/data/baiqing/PycharmProjects/Reinvent-master-3.2/result/LINK_invent/BTK/process_docking_weight1_custom_sum_contain_oxygen_bond_distance_aromatic_linkinvent_7_9_3/rearranged_h_0139.sdf

> <i_m_source_file_index>
84

> <r_mmod_Potential_Energy-OPLS-2005>
163.32975769043

> <r_mmod_Stretch_Energy-OPLS-2005>
58.2356452941895

> <r_mmod_Bend_Energy-OPLS-2005>
168.60041809082

> <r_mmod_Torsional_Energy-OPLS-2005>
315.325439453125

> <r_mmod_Improper_Torsional_Energy-OPLS-2005>
22.1498069763184

> <r_mmod_Van_der_Waal_Energy-OPLS-2005>
131.066680908203

> <r_mmod_Electrostatic_Energy-OPLS-2005>
-356.903076171875

> <r_mmod_Solvation_Energy-OPLS-2005>
-213.789077758789

> <b_mmod_Minimization_Converged-OPLS-2005>
0

> <r_mmod_RMS_Derivative-OPLS-2005>
0.984875738620758

$$$$
84
                    3D
 Structure written by MMmdl.
153161  0  0  1  0            999 V2000
  -30.3730  -15.4359   20.3498 C   0  0  0  0  0  0
  -30.4349  -12.9325   19.5336 C   0  0  0  0  0  0
  -29.5431  -12.6097   18.3048 C   0  0  0  0  0  0
  -28.1024  -12.2966   18.7400 C   0  0  0  0  0  0
  -27.6042  -13.2890   19.8175 C   0  0  2  0  0  0
  -28.6305  -13.5367   20.9452 C   0  0  0  0  0  0
  -25.2358  -13.8264   20.5764 C   0  0  0  0  0  0
  -24.1728  -13.0436   20.9271 C   0  0  0  0  0  0
  -24.6406  -11.6938   20.8764 C   0  0  0  0  0  0
  -23.9104  -10.4293   21.0404 C   0  0  0  0  0  0
  -24.3645   -9.4205   21.9183 C   0  0  0  0  0  0
  -23.6309   -8.2244   22.0753 C   0  0  0  0  0  0
  -22.4288   -8.0287   21.3544 C   0  0  0  0  0  0
  -21.9931   -9.0263   20.4646 C   0  0  0  0  0  0
  -22.7271  -10.2137   20.3056 C   0  0  0  0  0  0
  -21.6858   -6.0741   22.5278 C   0  0  0  0  0  0
  -21.4018   -6.5642   23.8212 C   0  0  0  0  0  0
  -21.3660   -5.6792   24.9174 C   0  0  0  0  0  0
  -21.6044   -4.3056   24.7223 C   0  0  0  0  0  0
  -21.8819   -3.8149   23.4343 C   0  0  0  0  0  0
  -21.9195   -4.6968   22.3401 C   0  0  0  0  0  0
  -22.7744  -13.5177   21.1914 C   0  0  0  0  0  0
  -22.1662   -4.2154   21.0978 F   0  0  0  0  0  0
  -21.5628   -3.4538   25.7736 F   0  0  0  0  0  0
  -29.8364  -14.0977   20.3053 N   0  0  0  0  0  0
  -26.2794  -12.9561   20.3218 N   0  0  0  0  0  0
  -25.9346  -11.6652   20.5712 N   0  0  0  0  0  0
  -22.0407  -12.8156   22.0470 N   0  0  0  0  0  0
  -25.3968  -15.2002   20.4200 N   0  0  0  0  0  0
  -31.6008  -15.4137   20.1607 O   0  0  0  0  0  0
  -21.6644   -6.8888   21.4242 O   0  0  0  0  0  0
  -22.3419  -14.5477   20.6754 O   0  0  0  0  0  0
  -24.6735  -31.8119   23.1612 C   0  0  0  0  0  0
  -25.9367  -32.4526   23.8118 C   0  0  1  0  0  0
  -27.2219  -26.8150   20.2024 C   0  0  0  0  0  0
  -25.5991  -33.8345   24.2015 N   0  0  0  0  0  0
  -23.4940  -30.4188   21.5128 C   0  0  2  0  0  0
  -24.9501  -28.7834   20.1153 C   0  0  0  0  0  0
  -22.7718  -29.4381   22.4749 C   0  0  0  0  0  0
  -18.0334  -28.1413   22.8459 C   0  0  0  0  0  0
  -24.1496  -36.7175   23.2650 C   0  0  0  0  0  0
  -26.0694  -30.5820   21.4089 C   0  0  0  0  0  0
  -26.1369  -29.1595   20.7562 C   0  0  0  0  0  0
  -27.2636  -28.2002   20.7695 C   0  0  0  0  0  0
  -26.0055  -26.6224   19.5045 C   0  0  0  0  0  0
  -24.9168  -27.5381   19.4663 C   0  0  0  0  0  0
  -23.7414  -29.7252   20.1436 C   0  0  0  0  0  0
  -25.4142  -36.2931   24.0293 C   0  0  1  0  0  0
  -20.5963  -28.3768   23.1164 C   0  0  2  0  0  0
  -20.6803  -26.9437   22.5408 C   0  0  0  0  0  0
  -19.5782  -26.6376   21.5215 C   0  0  0  0  0  0
  -18.1964  -26.7944   22.1619 C   0  0  0  0  0  0
  -19.1596  -28.8913   23.2797 C   0  0  0  0  0  0
  -18.9504  -30.1498   23.8841 C   0  0  0  0  0  0
  -17.6494  -30.6599   24.0553 C   0  0  0  0  0  0
  -25.9114  -34.9315   23.4983 C   0  0  0  0  0  0
  -16.5385  -29.9083   23.6343 C   0  0  0  0  0  0
  -16.7314  -28.6505   23.0362 C   0  0  0  0  0  0
  -26.4581  -31.6513   25.0691 C   0  0  0  0  0  0
  -25.3680  -31.3810   26.1334 C   0  0  0  0  0  0
  -27.0479  -30.2856   24.6512 C   0  0  0  0  0  0
  -27.6062  -32.4339   25.7494 C   0  0  0  0  0  0
  -27.5568  -37.1747   24.8466 C   0  0  0  0  0  0
  -21.4378  -29.3033   22.3494 N   0  0  0  0  0  0
  -26.4279  -37.3678   23.9406 N   0  0  0  0  0  0
  -24.7680  -30.9674   22.0806 N   0  0  0  0  0  0
  -23.4212  -28.7972   23.3049 O   0  0  0  0  0  0
  -28.2023  -25.6484   20.2752 O   0  0  0  0  0  0
  -26.5741  -34.8872   22.4591 O   0  0  0  0  0  0
  -23.5779  -32.1144   23.6633 O   0  0  0  0  0  0
  -28.3478  -20.9731   19.3016 C   0  0  0  0  0  0
  -29.2976  -21.2808   21.3988 C   0  0  0  0  0  0
  -29.1445  -19.4591   19.1409 C   0  0  0  0  0  0
  -29.2059  -19.5599   21.4739 C   0  0  0  0  0  0
  -28.8410  -22.3082   20.1603 C   0  0  2  0  0  0
  -29.7356  -18.4680   20.3410 C   0  0  1  0  0  0
  -26.9339  -23.7748   21.3947 C   0  0  0  0  0  0
  -27.9345  -23.9611   20.2476 C   0  0  1  0  0  0
  -29.5946  -16.7426   20.4150 N   0  0  0  0  0  0
  -31.4416  -13.1664   19.1857 H   0  0  0  0  0  0
  -30.5476  -12.0555   20.1730 H   0  0  0  0  0  0
  -29.9564  -11.7723   17.7410 H   0  0  0  0  0  0
  -29.5406  -13.4653   17.6277 H   0  0  0  0  0  0
  -28.0923  -11.2844   19.1460 H   0  0  0  0  0  0
  -27.4327  -12.2900   17.8791 H   0  0  0  0  0  0
  -27.4949  -14.2349   19.2857 H   0  0  0  0  0  0
  -28.8416  -12.6256   21.5070 H   0  0  0  0  0  0
  -28.2358  -14.2585   21.6621 H   0  0  0  0  0  0
  -25.2787   -9.5679   22.4764 H   0  0  0  0  0  0
  -24.0014   -7.4636   22.7475 H   0  0  0  0  0  0
  -21.0859   -8.8792   19.8954 H   0  0  0  0  0  0
  -22.3729  -10.9681   19.6170 H   0  0  0  0  0  0
  -21.2010   -7.6151   23.9717 H   0  0  0  0  0  0
  -21.1480   -6.0523   25.9077 H   0  0  0  0  0  0
  -22.0597   -2.7612   23.2841 H   0  0  0  0  0  0
  -22.4045  -11.9831   22.4866 H   0  0  0  0  0  0
  -21.1022  -13.1163   22.2680 H   0  0  0  0  0  0
  -24.6234  -15.8470   20.5309 H   0  0  0  0  0  0
  -26.2323  -15.6424   20.0604 H   0  0  0  0  0  0
  -26.7444  -32.5033   23.0831 H   0  0  0  0  0  0
  -25.0057  -33.9402   25.0113 H   0  0  0  0  0  0
  -22.8132  -31.2534   21.3324 H   0  0  0  0  0  0
  -23.3772  -35.9491   23.3283 H   0  0  0  0  0  0
  -24.3565  -36.8852   22.2068 H   0  0  0  0  0  0
  -23.7243  -37.6348   23.6731 H   0  0  0  0  0  0
  -26.2614  -31.3159   20.6251 H   0  0  0  0  0  0
  -26.9244  -30.6443   22.0700 H   0  0  0  0  0  0
  -28.1591  -28.4901   21.3009 H   0  0  0  0  0  0
  -25.8581  -25.6753   19.0062 H   0  0  0  0  0  0
  -24.0193  -27.2431   18.9403 H   0  0  0  0  0  0
  -23.9074  -30.4897   19.3837 H   0  0  0  0  0  0
  -22.8485  -29.1863   19.8220 H   0  0  0  0  0  0
  -25.1346  -36.1712   25.0784 H   0  0  0  0  0  0
  -21.0049  -28.3389   24.1289 H   0  0  0  0  0  0
  -20.5666  -26.2390   23.3661 H   0  0  0  0  0  0
  -21.6668  -26.7388   22.1229 H   0  0  0  0  0  0
  -19.6940  -25.6272   21.1282 H   0  0  0  0  0  0
  -19.6725  -27.3153   20.6719 H   0  0  0  0  0  0
  -17.4233  -26.6685   21.4023 H   0  0  0  0  0  0
  -18.0356  -26.0101   22.9030 H   0  0  0  0  0  0
  -19.7979  -30.7328   24.2188 H   0  0  0  0  0  0
  -17.5044  -31.6271   24.5170 H   0  0  0  0  0  0
  -15.5382  -30.2965   23.7699 H   0  0  0  0  0  0
  -15.8715  -28.0801   22.7110 H   0  0  0  0  0  0
  -24.5892  -30.7118   25.7658 H   0  0  0  0  0  0
  -24.8837  -32.3023   26.4579 H   0  0  0  0  0  0
  -25.7894  -30.9110   27.0229 H   0  0  0  0  0  0
  -26.3165  -29.6514   24.1492 H   0  0  0  0  0  0
  -27.3922  -29.7254   25.5215 H   0  0  0  0  0  0
  -27.9146  -30.3991   23.9999 H   0  0  0  0  0  0
  -27.2631  -33.3701   26.1909 H   0  0  0  0  0  0
  -28.3956  -32.6797   25.0377 H   0  0  0  0  0  0
  -28.0639  -31.8570   26.5541 H   0  0  0  0  0  0
  -28.2574  -38.0052   24.7495 H   0  0  0  0  0  0
  -28.1076  -36.2576   24.6317 H   0  0  0  0  0  0
  -27.2282  -37.1415   25.8868 H   0  0  0  0  0  0
  -20.9662  -29.8691   21.6576 H   0  0  0  0  0  0
  -26.0118  -38.2734   24.1409 H   0  0  0  0  0  0
  -27.3477  -20.7419   19.6719 H   0  0  0  0  0  0
  -28.1648  -21.3245   18.2857 H   0  0  0  0  0  0
  -30.3352  -21.5337   21.6197 H   0  0  0  0  0  0
  -28.7617  -21.6324   22.2807 H   0  0  0  0  0  0
  -29.9818  -19.6334   18.4637 H   0  0  0  0  0  0
  -28.4687  -18.8373   18.5531 H   0  0  0  0  0  0
  -28.1513  -19.3293   21.6331 H   0  0  0  0  0  0
  -29.6746  -19.2724   22.4156 H   0  0  0  0  0  0
  -29.7709  -22.5902   19.6649 H   0  0  0  0  0  0
  -30.8188  -18.5982   20.3193 H   0  0  0  0  0  0
  -26.4961  -22.7766   21.3736 H   0  0  0  0  0  0
  -26.1120  -24.4873   21.3446 H   0  0  0  0  0  0
  -27.4254  -23.9000   22.3593 H   0  0  0  0  0  0
  -27.3556  -23.9007   19.3261 H   0  0  0  0  0  0
  -28.6216  -16.4987   20.5315 H   0  0  0  0  0  0
  1 25  1  0  0  0
  1 30  2  0  0  0
  1 79  1  0  0  0
  2  3  1  0  0  0
  2 25  1  0  0  0
  2 80  1  0  0  0
  2 81  1  0  0  0
  3  4  1  0  0  0
  3 82  1  0  0  0
  3 83  1  0  0  0
  4  5  1  0  0  0
  4 84  1  0  0  0
  4 85  1  0  0  0
  5  6  1  0  0  0
  5 26  1  0  0  0
  5 86  1  0  0  0
  6 25  1  0  0  0
  6 87  1  0  0  0
  6 88  1  0  0  0
  7  8  2  0  0  0
  7 26  1  0  0  0
  7 29  1  0  0  0
  8  9  1  0  0  0
  8 22  1  0  0  0
  9 10  1  0  0  0
  9 27  2  0  0  0
 10 11  2  0  0  0
 10 15  1  0  0  0
 11 12  1  0  0  0
 11 89  1  0  0  0
 12 13  2  0  0  0
 12 90  1  0  0  0
 13 14  1  0  0  0
 13 31  1  0  0  0
 14 15  2  0  0  0
 14 91  1  0  0  0
 15 92  1  0  0  0
 16 17  2  0  0  0
 16 21  1  0  0  0
 16 31  1  0  0  0
 17 18  1  0  0  0
 17 93  1  0  0  0
 18 19  2  0  0  0
 18 94  1  0  0  0
 19 20  1  0  0  0
 19 24  1  0  0  0
 20 21  2  0  0  0
 20 95  1  0  0  0
 21 23  1  0  0  0
 22 28  1  0  0  0
 22 32  2  0  0  0
 26 27  1  0  0  0
 28 96  1  0  0  0
 28 97  1  0  0  0
 29 98  1  0  0  0
 29 99  1  0  0  0
 33 34  1  0  0  0
 33 66  1  0  0  0
 33 70  2  0  0  0
 34 36  1  0  0  0
 34 59  1  0  0  0
 34100  1  0  0  0
 35 44  2  0  0  0
 35 45  1  0  0  0
 35 68  1  0  0  0
 36 56  1  0  0  0
 36101  1  0  0  0
 37 39  1  0  0  0
 37 47  1  0  0  0
 37 66  1  0  0  0
 37102  1  0  0  0
 38 43  2  0  0  0
 38 46  1  0  0  0
 38 47  1  0  0  0
 39 64  1  0  0  0
 39 67  2  0  0  0
 40 52  1  0  0  0
 40 53  2  0  0  0
 40 58  1  0  0  0
 41103  1  0  0  0
 41104  1  0  0  0
 41105  1  0  0  0
 41 48  1  0  0  0
 42 43  1  0  0  0
 42 66  1  0  0  0
 42106  1  0  0  0
 42107  1  0  0  0
 43 44  1  0  0  0
 44108  1  0  0  0
 45 46  2  0  0  0
 45109  1  0  0  0
 46110  1  0  0  0
 47111  1  0  0  0
 47112  1  0  0  0
 48 56  1  0  0  0
 48 65  1  0  0  0
 48113  1  0  0  0
 49 50  1  0  0  0
 49 53  1  0  0  0
 49 64  1  0  0  0
 49114  1  0  0  0
 50 51  1  0  0  0
 50115  1  0  0  0
 50116  1  0  0  0
 51 52  1  0  0  0
 51117  1  0  0  0
 51118  1  0  0  0
 52119  1  0  0  0
 52120  1  0  0  0
 53 54  1  0  0  0
 54 55  2  0  0  0
 54121  1  0  0  0
 55 57  1  0  0  0
 55122  1  0  0  0
 56 69  2  0  0  0
 57 58  2  0  0  0
 57123  1  0  0  0
 58124  1  0  0  0
 59 60  1  0  0  0
 59 61  1  0  0  0
 59 62  1  0  0  0
 60125  1  0  0  0
 60126  1  0  0  0
 60127  1  0  0  0
 61128  1  0  0  0
 61129  1  0  0  0
 61130  1  0  0  0
 62131  1  0  0  0
 62132  1  0  0  0
 62133  1  0  0  0
 63 65  1  0  0  0
 63134  1  0  0  0
 63135  1  0  0  0
 63136  1  0  0  0
 64137  1  0  0  0
 65138  1  0  0  0
 68 78  1  0  0  0
 71 73  1  0  0  0
 71139  1  0  0  0
 71140  1  0  0  0
 71 75  1  0  0  0
 72 74  1  0  0  0
 72 75  1  0  0  0
 72141  1  0  0  0
 72142  1  0  0  0
 73 76  1  0  0  0
 73143  1  0  0  0
 73144  1  0  0  0
 74 76  1  0  0  0
 74145  1  0  0  0
 74146  1  0  0  0
 75 78  1  0  0  0
 75147  1  0  0  0
 76 79  1  0  0  0
 76148  1  0  0  0
 77149  1  0  0  0
 77150  1  0  0  0
 77151  1  0  0  0
 77 78  1  0  0  0
 78152  1  0  0  0
 79153  1  0  0  0
M  ISO  4   1 100  68 101  78 101  79 100
M  END
> <chiral flag>
0

> <version>
0

> <s_m_source_file>
/data/baiqing/PycharmProjects/Reinvent-master-3.2/result/LINK_invent/BTK/process_docking_weight1_custom_sum_contain_oxygen_bond_distance_aromatic_linkinvent_7_9_3/rearranged_h_0139.sdf

> <i_m_source_file_index>
85

> <r_mmod_Potential_Energy-OPLS-2005>
1840.37121582031

> <r_mmod_Stretch_Energy-OPLS-2005>
767.011596679688

> <r_mmod_Bend_Energy-OPLS-2005>
615.690856933594

> <r_mmod_Torsional_Energy-OPLS-2005>
258.456451416016

> <r_mmod_Improper_Torsional_Energy-OPLS-2005>
3.7022533416748

> <r_mmod_Van_der_Waal_Energy-OPLS-2005>
115.376541137695

> <r_mmod_Electrostatic_Energy-OPLS-2005>
-365.624725341797

> <r_mmod_Solvation_Energy-OPLS-2005>
-205.513305664062

> <b_mmod_Minimization_Converged-OPLS-2005>
0

> <r_mmod_RMS_Derivative-OPLS-2005>
0.396003544330597

$$$$
85
                    3D
 Structure written by MMmdl.
165174  0  0  1  0            999 V2000
  -30.7417  -14.3816   20.6379 C   0  0  0  0  0  0
  -30.4164  -12.2756   19.4036 C   0  0  0  0  0  0
  -29.4875  -12.5170   18.1978 C   0  0  0  0  0  0
  -28.0096  -12.3794   18.6114 C   0  0  0  0  0  0
  -27.6670  -13.2006   19.8829 C   0  0  2  0  0  0
  -28.7047  -12.9389   20.9979 C   0  0  0  0  0  0
  -25.2606  -13.8151   20.5671 C   0  0  0  0  0  0
  -24.1847  -13.0433   20.9157 C   0  0  0  0  0  0
  -24.6391  -11.6897   20.8720 C   0  0  0  0  0  0
  -23.9056  -10.4286   21.0398 C   0  0  0  0  0  0
  -24.3614   -9.4205   21.9176 C   0  0  0  0  0  0
  -23.6293   -8.2241   22.0752 C   0  0  0  0  0  0
  -22.4276   -8.0277   21.3544 C   0  0  0  0  0  0
  -21.9907   -9.0247   20.4644 C   0  0  0  0  0  0
  -22.7231  -10.2126   20.3048 C   0  0  0  0  0  0
  -21.6853   -6.0736   22.5280 C   0  0  0  0  0  0
  -21.4014   -6.5639   23.8214 C   0  0  0  0  0  0
  -21.3659   -5.6793   24.9178 C   0  0  0  0  0  0
  -21.6047   -4.3056   24.7228 C   0  0  0  0  0  0
  -21.8820   -3.8147   23.4347 C   0  0  0  0  0  0
  -21.9193   -4.6965   22.3403 C   0  0  0  0  0  0
  -22.7872  -13.5233   21.1838 C   0  0  0  0  0  0
  -22.1661   -4.2149   21.0980 F   0  0  0  0  0  0
  -21.5631   -3.4539   25.7740 F   0  0  0  0  0  0
  -30.0468  -13.2292   20.4590 N   0  0  0  0  0  0
  -26.3047  -12.9313   20.3391 N   0  0  0  0  0  0
  -25.9316  -11.6476   20.5762 N   0  0  0  0  0  0
  -22.0516  -12.8218   22.0394 N   0  0  0  0  0  0
  -25.4340  -15.1868   20.4082 N   0  0  0  0  0  0
  -31.8080  -14.6283   20.0667 O   0  0  0  0  0  0
  -21.6638   -6.8877   21.4242 O   0  0  0  0  0  0
  -22.3553  -14.5543   20.6700 O   0  0  0  0  0  0
  -24.6100  -31.8710   23.2129 C   0  0  0  0  0  0
  -25.9014  -32.4837   23.8407 C   0  0  1  0  0  0
  -27.2359  -27.4687   20.0928 C   0  0  0  0  0  0
  -25.5892  -33.8634   24.2343 N   0  0  0  0  0  0
  -23.3959  -30.4949   21.5526 C   0  0  2  0  0  0
  -24.8424  -28.9613   20.1199 C   0  0  0  0  0  0
  -22.7379  -29.4675   22.5006 C   0  0  0  0  0  0
  -18.0268  -28.1367   22.8494 C   0  0  0  0  0  0
  -24.1493  -36.7328   23.2636 C   0  0  0  0  0  0
  -25.9208  -30.8444   21.3630 C   0  0  0  0  0  0
  -25.9980  -29.4780   20.7195 C   0  0  0  0  0  0
  -27.1969  -28.7355   20.7108 C   0  0  0  0  0  0
  -26.0692  -26.9627   19.4812 C   0  0  0  0  0  0
  -24.8691  -27.6981   19.5030 C   0  0  0  0  0  0
  -23.6033  -29.8261   20.1674 C   0  0  0  0  0  0
  -25.4110  -36.3121   24.0340 C   0  0  1  0  0  0
  -20.5854  -28.3652   23.1328 C   0  0  2  0  0  0
  -20.6764  -26.9393   22.5420 C   0  0  0  0  0  0
  -19.5747  -26.6384   21.5211 C   0  0  0  0  0  0
  -18.1923  -26.7916   22.1620 C   0  0  0  0  0  0
  -19.1514  -28.8824   23.2910 C   0  0  0  0  0  0
  -18.9445  -30.1434   23.8914 C   0  0  0  0  0  0
  -17.6449  -30.6578   24.0566 C   0  0  0  0  0  0
  -25.9036  -34.9484   23.5139 C   0  0  0  0  0  0
  -16.5342  -29.9085   23.6317 C   0  0  0  0  0  0
  -16.7258  -28.6500   23.0339 C   0  0  0  0  0  0
  -26.4458  -31.6590   25.0709 C   0  0  0  0  0  0
  -25.3736  -31.3679   26.1462 C   0  0  0  0  0  0
  -27.0279  -30.3040   24.6043 C   0  0  0  0  0  0
  -27.6041  -32.4293   25.7471 C   0  0  0  0  0  0
  -27.5586  -37.1819   24.8464 C   0  0  0  0  0  0
  -21.4114  -29.3026   22.3735 N   0  0  0  0  0  0
  -26.4302  -37.3799   23.9406 N   0  0  0  0  0  0
  -24.6601  -31.0845   22.1015 N   0  0  0  0  0  0
  -23.4167  -28.8216   23.3036 O   0  0  0  0  0  0
  -28.4243  -26.7837   20.0210 O   0  0  0  0  0  0
  -26.5599  -34.8927   22.4699 O   0  0  0  0  0  0
  -23.5304  -32.1448   23.7549 O   0  0  0  0  0  0
  -29.7328  -25.5299   21.6023 C   0  0  0  0  0  0
  -27.9594  -23.4722   21.2217 C   0  0  0  0  0  0
  -29.9773  -24.3130   22.2679 C   0  0  0  0  0  0
  -29.0777  -23.2419   22.0498 C   0  0  0  0  0  0
  -28.6114  -25.6434   20.7642 C   0  0  0  0  0  0
  -30.0657  -17.4808   20.3060 C   0  0  0  0  0  0
  -29.9587  -17.3026   22.8307 C   0  0  0  0  0  0
  -30.4113  -18.9703   20.4253 C   0  0  0  0  0  0
  -30.2841  -18.8044   22.9455 C   0  0  0  0  0  0
  -30.5422  -16.6891   21.5423 C   0  0  1  0  0  0
  -29.8061  -19.5866   21.7014 C   0  0  1  0  0  0
  -31.1938  -24.1788   23.1675 C   0  0  0  0  0  0
  -29.2774  -21.8522   22.6502 C   0  0  0  0  0  0
  -27.7356  -24.6338   20.5791 N   0  0  0  0  0  0
  -30.1438  -15.2900   21.4200 N   0  0  0  0  0  0
  -30.1420  -21.0260   21.7770 N   0  3  0  0  0  0
  -31.4610  -12.3681   19.1015 H   0  0  0  0  0  0
  -30.3041  -11.2545   19.7715 H   0  0  0  0  0  0
  -29.7172  -11.8131   17.3968 H   0  0  0  0  0  0
  -29.6640  -13.5138   17.7903 H   0  0  0  0  0  0
  -27.8116  -11.3215   18.7891 H   0  0  0  0  0  0
  -27.3596  -12.6750   17.7871 H   0  0  0  0  0  0
  -27.7265  -14.2549   19.6119 H   0  0  0  0  0  0
  -28.6636  -11.8948   21.3120 H   0  0  0  0  0  0
  -28.4609  -13.5131   21.8920 H   0  0  0  0  0  0
  -25.2763   -9.5681   22.4742 H   0  0  0  0  0  0
  -24.0008   -7.4631   22.7466 H   0  0  0  0  0  0
  -21.0842   -8.8761   19.8943 H   0  0  0  0  0  0
  -22.3693  -10.9664   19.6153 H   0  0  0  0  0  0
  -21.2004   -7.6146   23.9717 H   0  0  0  0  0  0
  -21.1483   -6.0523   25.9081 H   0  0  0  0  0  0
  -22.0599   -2.7608   23.2849 H   0  0  0  0  0  0
  -22.4147  -11.9878   22.4770 H   0  0  0  0  0  0
  -21.1131  -13.1232   22.2607 H   0  0  0  0  0  0
  -24.6697  -15.8449   20.5144 H   0  0  0  0  0  0
  -26.2944  -15.6246   20.1033 H   0  0  0  0  0  0
  -26.7082  -32.5572   23.1175 H   0  0  0  0  0  0
  -25.0039  -33.9801   25.0483 H   0  0  0  0  0  0
  -22.6832  -31.3108   21.4157 H   0  0  0  0  0  0
  -23.3747  -35.9669   23.3308 H   0  0  0  0  0  0
  -24.3592  -36.8930   22.2050 H   0  0  0  0  0  0
  -23.7256  -37.6543   23.6639 H   0  0  0  0  0  0
  -26.0274  -31.6065   20.5897 H   0  0  0  0  0  0
  -26.8115  -30.9023   21.9766 H   0  0  0  0  0  0
  -28.0942  -29.1374   21.1604 H   0  0  0  0  0  0
  -26.0924  -26.0041   18.9822 H   0  0  0  0  0  0
  -23.9824  -27.2963   19.0323 H   0  0  0  0  0  0
  -23.7098  -30.6011   19.4071 H   0  0  0  0  0  0
  -22.7283  -29.2445   19.8721 H   0  0  0  0  0  0
  -25.1281  -36.1995   25.0835 H   0  0  0  0  0  0
  -20.9949  -28.3215   24.1448 H   0  0  0  0  0  0
  -20.5680  -26.2253   23.3597 H   0  0  0  0  0  0
  -21.6636  -26.7450   22.1209 H   0  0  0  0  0  0
  -19.6917  -25.6302   21.1225 H   0  0  0  0  0  0
  -19.6691  -27.3206   20.6749 H   0  0  0  0  0  0
  -17.4197  -26.6660   21.4019 H   0  0  0  0  0  0
  -18.0329  -26.0047   22.9005 H   0  0  0  0  0  0
  -19.7923  -30.7243   24.2291 H   0  0  0  0  0  0
  -17.5009  -31.6260   24.5162 H   0  0  0  0  0  0
  -15.5346  -30.2998   23.7624 H   0  0  0  0  0  0
  -15.8658  -28.0834   22.7034 H   0  0  0  0  0  0
  -24.5906  -30.7029   25.7797 H   0  0  0  0  0  0
  -24.8930  -32.2830   26.4930 H   0  0  0  0  0  0
  -25.8098  -30.8833   27.0205 H   0  0  0  0  0  0
  -26.2804  -29.6819   24.1104 H   0  0  0  0  0  0
  -27.4074  -29.7249   25.4471 H   0  0  0  0  0  0
  -27.8628  -30.4373   23.9160 H   0  0  0  0  0  0
  -27.2660  -33.3573   26.2093 H   0  0  0  0  0  0
  -28.3827  -32.6882   25.0285 H   0  0  0  0  0  0
  -28.0728  -31.8385   26.5349 H   0  0  0  0  0  0
  -28.2606  -38.0113   24.7508 H   0  0  0  0  0  0
  -28.1078  -36.2645   24.6291 H   0  0  0  0  0  0
  -27.2304  -37.1476   25.8867 H   0  0  0  0  0  0
  -20.9262  -29.8746   21.6965 H   0  0  0  0  0  0
  -26.0195  -38.2882   24.1391 H   0  0  0  0  0  0
  -30.4085  -26.3680   21.7056 H   0  0  0  0  0  0
  -27.2426  -22.6862   21.0322 H   0  0  0  0  0  0
  -30.5201  -17.0818   19.3977 H   0  0  0  0  0  0
  -28.9870  -17.3683   20.1815 H   0  0  0  0  0  0
  -28.8757  -17.1693   22.8504 H   0  0  0  0  0  0
  -30.3496  -16.7781   23.7040 H   0  0  0  0  0  0
  -30.0436  -19.4923   19.5408 H   0  0  0  0  0  0
  -31.4963  -19.0884   20.4248 H   0  0  0  0  0  0
  -31.3608  -18.9271   23.0722 H   0  0  0  0  0  0
  -29.8197  -19.2046   23.8476 H   0  0  0  0  0  0
  -31.6323  -16.7441   21.6002 H   0  0  0  0  0  0
  -28.7210  -19.4915   21.6205 H   0  0  0  0  0  0
  -31.7664  -25.1062   23.1987 H   0  0  0  0  0  0
  -31.8595  -23.3935   22.8107 H   0  0  0  0  0  0
  -30.8943  -23.9449   24.1892 H   0  0  0  0  0  0
  -28.2966  -21.3881   22.7686 H   0  0  0  0  0  0
  -29.7005  -21.9083   23.6536 H   0  0  0  0  0  0
  -29.2868  -15.0037   21.8685 H   0  0  0  0  0  0
  -30.0510  -21.3908   20.8434 H   0  0  0  0  0  0
  -31.1071  -21.1381   22.0431 H   0  0  0  0  0  0
  1 25  1  0  0  0
  1 30  2  0  0  0
  1 85  1  0  0  0
  2  3  1  0  0  0
  2 25  1  0  0  0
  2 87  1  0  0  0
  2 88  1  0  0  0
  3  4  1  0  0  0
  3 89  1  0  0  0
  3 90  1  0  0  0
  4  5  1  0  0  0
  4 91  1  0  0  0
  4 92  1  0  0  0
  5  6  1  0  0  0
  5 26  1  0  0  0
  5 93  1  0  0  0
  6 25  1  0  0  0
  6 94  1  0  0  0
  6 95  1  0  0  0
  7  8  2  0  0  0
  7 26  1  0  0  0
  7 29  1  0  0  0
  8  9  1  0  0  0
  8 22  1  0  0  0
  9 10  1  0  0  0
  9 27  2  0  0  0
 10 11  2  0  0  0
 10 15  1  0  0  0
 11 12  1  0  0  0
 11 96  1  0  0  0
 12 13  2  0  0  0
 12 97  1  0  0  0
 13 14  1  0  0  0
 13 31  1  0  0  0
 14 15  2  0  0  0
 14 98  1  0  0  0
 15 99  1  0  0  0
 16 17  2  0  0  0
 16 21  1  0  0  0
 16 31  1  0  0  0
 17 18  1  0  0  0
 17100  1  0  0  0
 18 19  2  0  0  0
 18101  1  0  0  0
 19 20  1  0  0  0
 19 24  1  0  0  0
 20 21  2  0  0  0
 20102  1  0  0  0
 21 23  1  0  0  0
 22 28  1  0  0  0
 22 32  2  0  0  0
 26 27  1  0  0  0
 28103  1  0  0  0
 28104  1  0  0  0
 29105  1  0  0  0
 29106  1  0  0  0
 33 34  1  0  0  0
 33 66  1  0  0  0
 33 70  2  0  0  0
 34 36  1  0  0  0
 34 59  1  0  0  0
 34107  1  0  0  0
 35 44  2  0  0  0
 35 45  1  0  0  0
 35 68  1  0  0  0
 36 56  1  0  0  0
 36108  1  0  0  0
 37 39  1  0  0  0
 37 47  1  0  0  0
 37 66  1  0  0  0
 37109  1  0  0  0
 38 43  2  0  0  0
 38 46  1  0  0  0
 38 47  1  0  0  0
 39 64  1  0  0  0
 39 67  2  0  0  0
 40 52  1  0  0  0
 40 53  2  0  0  0
 40 58  1  0  0  0
 41110  1  0  0  0
 41111  1  0  0  0
 41112  1  0  0  0
 41 48  1  0  0  0
 42 43  1  0  0  0
 42 66  1  0  0  0
 42113  1  0  0  0
 42114  1  0  0  0
 43 44  1  0  0  0
 44115  1  0  0  0
 45 46  2  0  0  0
 45116  1  0  0  0
 46117  1  0  0  0
 47118  1  0  0  0
 47119  1  0  0  0
 48 56  1  0  0  0
 48 65  1  0  0  0
 48120  1  0  0  0
 49 50  1  0  0  0
 49 53  1  0  0  0
 49 64  1  0  0  0
 49121  1  0  0  0
 50 51  1  0  0  0
 50122  1  0  0  0
 50123  1  0  0  0
 51 52  1  0  0  0
 51124  1  0  0  0
 51125  1  0  0  0
 52126  1  0  0  0
 52127  1  0  0  0
 53 54  1  0  0  0
 54 55  2  0  0  0
 54128  1  0  0  0
 55 57  1  0  0  0
 55129  1  0  0  0
 56 69  2  0  0  0
 57 58  2  0  0  0
 57130  1  0  0  0
 58131  1  0  0  0
 59 60  1  0  0  0
 59 61  1  0  0  0
 59 62  1  0  0  0
 60132  1  0  0  0
 60133  1  0  0  0
 60134  1  0  0  0
 61135  1  0  0  0
 61136  1  0  0  0
 61137  1  0  0  0
 62138  1  0  0  0
 62139  1  0  0  0
 62140  1  0  0  0
 63 65  1  0  0  0
 63141  1  0  0  0
 63142  1  0  0  0
 63143  1  0  0  0
 64144  1  0  0  0
 65145  1  0  0  0
 68 75  1  0  0  0
 71 73  2  0  0  0
 71 75  1  0  0  0
 71146  1  0  0  0
 72 74  2  0  0  0
 72 84  1  0  0  0
 72147  1  0  0  0
 73 74  1  0  0  0
 73 82  1  0  0  0
 74 83  1  0  0  0
 75 84  2  0  0  0
 76 78  1  0  0  0
 76 80  1  0  0  0
 76148  1  0  0  0
 76149  1  0  0  0
 77 79  1  0  0  0
 77 80  1  0  0  0
 77150  1  0  0  0
 77151  1  0  0  0
 78 81  1  0  0  0
 78152  1  0  0  0
 78153  1  0  0  0
 79 81  1  0  0  0
 79154  1  0  0  0
 79155  1  0  0  0
 80 85  1  0  0  0
 80156  1  0  0  0
 81 86  1  0  0  0
 81157  1  0  0  0
 82158  1  0  0  0
 82159  1  0  0  0
 82160  1  0  0  0
 83 86  1  0  0  0
 83161  1  0  0  0
 83162  1  0  0  0
 85163  1  0  0  0
 86164  1  0  0  0
 86165  1  0  0  0
M  CHG  1  86   1
M  ISO  4   1 100  68 101  75 101  85 100
M  END
> <chiral flag>
0

> <version>
0

> <s_m_source_file>
/data/baiqing/PycharmProjects/Reinvent-master-3.2/result/LINK_invent/BTK/process_docking_weight1_custom_sum_contain_oxygen_bond_distance_aromatic_linkinvent_7_9_3/rearranged_h_0139.sdf

> <i_m_source_file_index>
86

> <r_mmod_Potential_Energy-OPLS-2005>
-326.218292236328

> <r_mmod_Stretch_Energy-OPLS-2005>
31.5582141876221

> <r_mmod_Bend_Energy-OPLS-2005>
89.9622650146484

> <r_mmod_Torsional_Energy-OPLS-2005>
222.55339050293

> <r_mmod_Improper_Torsional_Energy-OPLS-2005>
2.87134885787964

> <r_mmod_Van_der_Waal_Energy-OPLS-2005>
157.811157226562

> <r_mmod_Electrostatic_Energy-OPLS-2005>
-366.921722412109

> <r_mmod_Solvation_Energy-OPLS-2005>
-470.772888183594

> <b_mmod_Minimization_Converged-OPLS-2005>
0

> <r_mmod_RMS_Derivative-OPLS-2005>
0.705224573612213

$$$$
86
                    3D
 Structure written by MMmdl.
163172  0  0  1  0            999 V2000
  -30.6581  -14.5599   20.5138 C   0  0  0  0  0  0
  -30.4312  -12.3417   19.4484 C   0  0  0  0  0  0
  -29.5061  -12.4962   18.2219 C   0  0  0  0  0  0
  -28.0268  -12.3488   18.6311 C   0  0  0  0  0  0
  -27.6583  -13.2115   19.8683 C   0  0  2  0  0  0
  -28.7006  -13.0397   20.9984 C   0  0  0  0  0  0
  -25.2579  -13.8169   20.5681 C   0  0  0  0  0  0
  -24.1837  -13.0440   20.9186 C   0  0  0  0  0  0
  -24.6395  -11.6907   20.8736 C   0  0  0  0  0  0
  -23.9065  -10.4289   21.0402 C   0  0  0  0  0  0
  -24.3610   -9.4204   21.9183 C   0  0  0  0  0  0
  -23.6287   -8.2243   22.0758 C   0  0  0  0  0  0
  -22.4269   -8.0286   21.3549 C   0  0  0  0  0  0
  -21.9903   -9.0260   20.4653 C   0  0  0  0  0  0
  -22.7234  -10.2134   20.3057 C   0  0  0  0  0  0
  -21.6851   -6.0737   22.5279 C   0  0  0  0  0  0
  -21.4014   -6.5639   23.8212 C   0  0  0  0  0  0
  -21.3661   -5.6791   24.9175 C   0  0  0  0  0  0
  -21.6046   -4.3056   24.7222 C   0  0  0  0  0  0
  -21.8818   -3.8147   23.4345 C   0  0  0  0  0  0
  -21.9186   -4.6965   22.3398 C   0  0  0  0  0  0
  -22.7854  -13.5242   21.1835 C   0  0  0  0  0  0
  -22.1652   -4.2150   21.0977 F   0  0  0  0  0  0
  -21.5628   -3.4539   25.7736 F   0  0  0  0  0  0
  -30.0261  -13.3527   20.4413 N   0  0  0  0  0  0
  -26.3010  -12.9343   20.3330 N   0  0  0  0  0  0
  -25.9322  -11.6502   20.5758 N   0  0  0  0  0  0
  -22.0473  -12.8259   22.0395 N   0  0  0  0  0  0
  -25.4301  -15.1892   20.4081 N   0  0  0  0  0  0
  -31.8057  -14.7263   20.0909 O   0  0  0  0  0  0
  -21.6637   -6.8882   21.4242 O   0  0  0  0  0  0
  -22.3544  -14.5544   20.6677 O   0  0  0  0  0  0
  -24.6207  -31.8636   23.2058 C   0  0  0  0  0  0
  -25.9073  -32.4800   23.8374 C   0  0  1  0  0  0
  -27.2240  -27.3708   20.1144 C   0  0  0  0  0  0
  -25.5903  -33.8598   24.2301 N   0  0  0  0  0  0
  -23.4119  -30.4872   21.5478 C   0  0  2  0  0  0
  -24.8577  -28.9481   20.1125 C   0  0  0  0  0  0
  -22.7444  -29.4640   22.4960 C   0  0  0  0  0  0
  -18.0277  -28.1387   22.8493 C   0  0  0  0  0  0
  -24.1484  -36.7309   23.2639 C   0  0  0  0  0  0
  -25.9469  -30.8121   21.3675 C   0  0  0  0  0  0
  -26.0232  -29.4422   20.7127 C   0  0  0  0  0  0
  -27.2121  -28.6640   20.7048 C   0  0  0  0  0  0
  -26.0426  -26.9162   19.4882 C   0  0  0  0  0  0
  -24.8658  -27.6876   19.4929 C   0  0  0  0  0  0
  -23.6233  -29.8220   20.1622 C   0  0  0  0  0  0
  -25.4110  -36.3097   24.0329 C   0  0  1  0  0  0
  -20.5873  -28.3681   23.1303 C   0  0  2  0  0  0
  -20.6766  -26.9408   22.5421 C   0  0  0  0  0  0
  -19.5744  -26.6385   21.5218 C   0  0  0  0  0  0
  -18.1921  -26.7929   22.1628 C   0  0  0  0  0  0
  -19.1528  -28.8851   23.2894 C   0  0  0  0  0  0
  -18.9454  -30.1454   23.8907 C   0  0  0  0  0  0
  -17.6458  -30.6588   24.0571 C   0  0  0  0  0  0
  -25.9042  -34.9463   23.5115 C   0  0  0  0  0  0
  -16.5350  -29.9091   23.6329 C   0  0  0  0  0  0
  -16.7267  -28.6510   23.0347 C   0  0  0  0  0  0
  -26.4481  -31.6596   25.0723 C   0  0  0  0  0  0
  -25.3736  -31.3725   26.1469 C   0  0  0  0  0  0
  -27.0318  -30.3027   24.6138 C   0  0  0  0  0  0
  -27.6050  -32.4328   25.7486 C   0  0  0  0  0  0
  -27.5575  -37.1812   24.8465 C   0  0  0  0  0  0
  -21.4163  -29.3041   22.3706 N   0  0  0  0  0  0
  -26.4294  -37.3786   23.9402 N   0  0  0  0  0  0
  -24.6786  -31.0695   22.0986 N   0  0  0  0  0  0
  -23.4192  -28.8175   23.3018 O   0  0  0  0  0  0
  -28.3534  -26.5600   20.1381 O   0  0  0  0  0  0
  -26.5613  -34.8919   22.4682 O   0  0  0  0  0  0
  -23.5382  -32.1413   23.7414 O   0  0  0  0  0  0
  -28.8031  -19.3529   20.8746 C   0  0  0  0  0  0
  -31.3148  -19.2626   20.8773 C   0  0  0  0  0  0
  -28.7160  -17.8421   20.4636 C   0  0  0  0  0  0
  -31.0598  -17.8092   21.3772 C   0  0  0  0  0  0
  -29.1134  -24.7850   21.5808 C   0  0  0  0  0  0
  -30.0743  -20.0567   20.3424 C   0  0  2  0  0  0
  -29.2316  -24.0917   20.2441 C   0  0  2  0  0  0
  -30.0610  -17.0488   20.4858 C   0  0  1  0  0  0
  -28.1355  -25.1557   20.4880 C   0  0  1  0  0  0
  -31.5050  -22.1312   19.9204 C   0  0  0  0  0  0
  -28.9995  -22.5477   20.1534 C   0  0  0  0  0  0
  -30.2057  -21.6249   20.5889 C   0  0  1  0  0  0
  -29.8772  -15.6159   20.8602 N   0  0  0  0  0  0
  -31.4758  -12.4461   19.1501 H   0  0  0  0  0  0
  -30.3436  -11.3408   19.8739 H   0  0  0  0  0  0
  -29.7605  -11.7527   17.4650 H   0  0  0  0  0  0
  -29.6644  -13.4711   17.7580 H   0  0  0  0  0  0
  -27.8495  -11.2955   18.8514 H   0  0  0  0  0  0
  -27.3770  -12.5960   17.7908 H   0  0  0  0  0  0
  -27.6871  -14.2507   19.5402 H   0  0  0  0  0  0
  -28.6902  -12.0161   21.3759 H   0  0  0  0  0  0
  -28.4598  -13.6728   21.8536 H   0  0  0  0  0  0
  -25.2751   -9.5684   22.4763 H   0  0  0  0  0  0
  -23.9994   -7.4637   22.7482 H   0  0  0  0  0  0
  -21.0833   -8.8787   19.8959 H   0  0  0  0  0  0
  -22.3698  -10.9680   19.6172 H   0  0  0  0  0  0
  -21.2010   -7.6145   23.9719 H   0  0  0  0  0  0
  -21.1484   -6.0518   25.9079 H   0  0  0  0  0  0
  -22.0594   -2.7610   23.2839 H   0  0  0  0  0  0
  -22.4064  -11.9939   22.4831 H   0  0  0  0  0  0
  -21.1091  -13.1318   22.2560 H   0  0  0  0  0  0
  -24.6649  -15.8456   20.5209 H   0  0  0  0  0  0
  -26.2770  -15.6252   20.0669 H   0  0  0  0  0  0
  -26.7144  -32.5488   23.1134 H   0  0  0  0  0  0
  -25.0039  -33.9756   25.0436 H   0  0  0  0  0  0
  -22.7039  -31.3064   21.4074 H   0  0  0  0  0  0
  -23.3733  -35.9656   23.3321 H   0  0  0  0  0  0
  -24.3574  -36.8911   22.2051 H   0  0  0  0  0  0
  -23.7252  -37.6521   23.6653 H   0  0  0  0  0  0
  -26.0679  -31.5765   20.5985 H   0  0  0  0  0  0
  -26.8310  -30.8640   21.9910 H   0  0  0  0  0  0
  -28.1092  -29.0384   21.1776 H   0  0  0  0  0  0
  -26.0206  -25.9549   18.9952 H   0  0  0  0  0  0
  -23.9729  -27.3046   19.0190 H   0  0  0  0  0  0
  -23.7391  -30.5987   19.4053 H   0  0  0  0  0  0
  -22.7453  -29.2473   19.8619 H   0  0  0  0  0  0
  -25.1291  -36.1957   25.0822 H   0  0  0  0  0  0
  -20.9969  -28.3249   24.1423 H   0  0  0  0  0  0
  -20.5668  -26.2287   23.3612 H   0  0  0  0  0  0
  -21.6635  -26.7445   22.1217 H   0  0  0  0  0  0
  -19.6904  -25.6296   21.1243 H   0  0  0  0  0  0
  -19.6679  -27.3199   20.6748 H   0  0  0  0  0  0
  -17.4191  -26.6676   21.4027 H   0  0  0  0  0  0
  -18.0323  -26.0071   22.9025 H   0  0  0  0  0  0
  -19.7935  -30.7264   24.2277 H   0  0  0  0  0  0
  -17.5017  -31.6267   24.5174 H   0  0  0  0  0  0
  -15.5352  -30.3002   23.7643 H   0  0  0  0  0  0
  -15.8665  -28.0836   22.7055 H   0  0  0  0  0  0
  -24.5901  -30.7082   25.7807 H   0  0  0  0  0  0
  -24.8939  -32.2887   26.4921 H   0  0  0  0  0  0
  -25.8080  -30.8890   27.0226 H   0  0  0  0  0  0
  -26.2878  -29.6784   24.1179 H   0  0  0  0  0  0
  -27.4051  -29.7275   25.4618 H   0  0  0  0  0  0
  -27.8728  -30.4327   23.9325 H   0  0  0  0  0  0
  -27.2665  -33.3622   26.2078 H   0  0  0  0  0  0
  -28.3851  -32.6900   25.0309 H   0  0  0  0  0  0
  -28.0732  -31.8447   26.5389 H   0  0  0  0  0  0
  -28.2611  -38.0093   24.7497 H   0  0  0  0  0  0
  -28.1053  -36.2622   24.6312 H   0  0  0  0  0  0
  -27.2294  -37.1497   25.8870 H   0  0  0  0  0  0
  -20.9323  -29.8779   21.6941 H   0  0  0  0  0  0
  -26.0172  -38.2861   24.1400 H   0  0  0  0  0  0
  -28.7858  -19.4332   21.9624 H   0  0  0  0  0  0
  -27.9077  -19.8671   20.5244 H   0  0  0  0  0  0
  -32.0656  -19.2298   20.0863 H   0  0  0  0  0  0
  -31.7813  -19.8086   21.6982 H   0  0  0  0  0  0
  -28.2905  -17.7661   19.4621 H   0  0  0  0  0  0
  -27.9884  -17.3643   21.1214 H   0  0  0  0  0  0
  -30.6781  -17.8408   22.3991 H   0  0  0  0  0  0
  -32.0101  -17.2767   21.4315 H   0  0  0  0  0  0
  -29.8943  -25.4988   21.8371 H   0  0  0  0  0  0
  -28.7220  -24.2123   22.4196 H   0  0  0  0  0  0
  -30.0457  -19.9173   19.2600 H   0  0  0  0  0  0
  -30.0170  -24.4428   19.5781 H   0  0  0  0  0  0
  -30.4645  -17.0636   19.4703 H   0  0  0  0  0  0
  -27.1038  -24.8406   20.6389 H   0  0  0  0  0  0
  -32.3816  -21.5554   20.2127 H   0  0  0  0  0  0
  -31.7345  -23.1603   20.1945 H   0  0  0  0  0  0
  -31.4321  -22.0830   18.8329 H   0  0  0  0  0  0
  -28.7258  -22.3163   19.1240 H   0  0  0  0  0  0
  -28.1255  -22.2971   20.7559 H   0  0  0  0  0  0
  -30.3259  -21.7675   21.6642 H   0  0  0  0  0  0
  -28.9656  -15.3659   21.2129 H   0  0  0  0  0  0
  1 25  1  0  0  0
  1 30  2  0  0  0
  1 83  1  0  0  0
  2  3  1  0  0  0
  2 25  1  0  0  0
  2 84  1  0  0  0
  2 85  1  0  0  0
  3  4  1  0  0  0
  3 86  1  0  0  0
  3 87  1  0  0  0
  4  5  1  0  0  0
  4 88  1  0  0  0
  4 89  1  0  0  0
  5  6  1  0  0  0
  5 26  1  0  0  0
  5 90  1  0  0  0
  6 25  1  0  0  0
  6 91  1  0  0  0
  6 92  1  0  0  0
  7  8  2  0  0  0
  7 26  1  0  0  0
  7 29  1  0  0  0
  8  9  1  0  0  0
  8 22  1  0  0  0
  9 10  1  0  0  0
  9 27  2  0  0  0
 10 11  2  0  0  0
 10 15  1  0  0  0
 11 12  1  0  0  0
 11 93  1  0  0  0
 12 13  2  0  0  0
 12 94  1  0  0  0
 13 14  1  0  0  0
 13 31  1  0  0  0
 14 15  2  0  0  0
 14 95  1  0  0  0
 15 96  1  0  0  0
 16 17  2  0  0  0
 16 21  1  0  0  0
 16 31  1  0  0  0
 17 18  1  0  0  0
 17 97  1  0  0  0
 18 19  2  0  0  0
 18 98  1  0  0  0
 19 20  1  0  0  0
 19 24  1  0  0  0
 20 21  2  0  0  0
 20 99  1  0  0  0
 21 23  1  0  0  0
 22 28  1  0  0  0
 22 32  2  0  0  0
 26 27  1  0  0  0
 28100  1  0  0  0
 28101  1  0  0  0
 29102  1  0  0  0
 29103  1  0  0  0
 33 34  1  0  0  0
 33 66  1  0  0  0
 33 70  2  0  0  0
 34 36  1  0  0  0
 34 59  1  0  0  0
 34104  1  0  0  0
 35 44  2  0  0  0
 35 45  1  0  0  0
 35 68  1  0  0  0
 36 56  1  0  0  0
 36105  1  0  0  0
 37 39  1  0  0  0
 37 47  1  0  0  0
 37 66  1  0  0  0
 37106  1  0  0  0
 38 43  2  0  0  0
 38 46  1  0  0  0
 38 47  1  0  0  0
 39 64  1  0  0  0
 39 67  2  0  0  0
 40 52  1  0  0  0
 40 53  2  0  0  0
 40 58  1  0  0  0
 41107  1  0  0  0
 41108  1  0  0  0
 41109  1  0  0  0
 41 48  1  0  0  0
 42 43  1  0  0  0
 42 66  1  0  0  0
 42110  1  0  0  0
 42111  1  0  0  0
 43 44  1  0  0  0
 44112  1  0  0  0
 45 46  2  0  0  0
 45113  1  0  0  0
 46114  1  0  0  0
 47115  1  0  0  0
 47116  1  0  0  0
 48 56  1  0  0  0
 48 65  1  0  0  0
 48117  1  0  0  0
 49 50  1  0  0  0
 49 53  1  0  0  0
 49 64  1  0  0  0
 49118  1  0  0  0
 50 51  1  0  0  0
 50119  1  0  0  0
 50120  1  0  0  0
 51 52  1  0  0  0
 51121  1  0  0  0
 51122  1  0  0  0
 52123  1  0  0  0
 52124  1  0  0  0
 53 54  1  0  0  0
 54 55  2  0  0  0
 54125  1  0  0  0
 55 57  1  0  0  0
 55126  1  0  0  0
 56 69  2  0  0  0
 57 58  2  0  0  0
 57127  1  0  0  0
 58128  1  0  0  0
 59 60  1  0  0  0
 59 61  1  0  0  0
 59 62  1  0  0  0
 60129  1  0  0  0
 60130  1  0  0  0
 60131  1  0  0  0
 61132  1  0  0  0
 61133  1  0  0  0
 61134  1  0  0  0
 62135  1  0  0  0
 62136  1  0  0  0
 62137  1  0  0  0
 63 65  1  0  0  0
 63138  1  0  0  0
 63139  1  0  0  0
 63140  1  0  0  0
 64141  1  0  0  0
 65142  1  0  0  0
 68 79  1  0  0  0
 71 73  1  0  0  0
 71143  1  0  0  0
 71144  1  0  0  0
 71 76  1  0  0  0
 72 74  1  0  0  0
 72 76  1  0  0  0
 72145  1  0  0  0
 72146  1  0  0  0
 73 78  1  0  0  0
 73147  1  0  0  0
 73148  1  0  0  0
 74 78  1  0  0  0
 74149  1  0  0  0
 74150  1  0  0  0
 75 77  1  0  0  0
 75 79  1  0  0  0
 75151  1  0  0  0
 75152  1  0  0  0
 76 82  1  0  0  0
 76153  1  0  0  0
 77 79  1  0  0  0
 77 81  1  0  0  0
 77154  1  0  0  0
 78 83  1  0  0  0
 78155  1  0  0  0
 79156  1  0  0  0
 80157  1  0  0  0
 80158  1  0  0  0
 80159  1  0  0  0
 80 82  1  0  0  0
 81 82  1  0  0  0
 81160  1  0  0  0
 81161  1  0  0  0
 82162  1  0  0  0
 83163  1  0  0  0
M  ISO  4   1 100  68 101  79 101  83 100
M  END
> <chiral flag>
0

> <version>
0

> <s_m_source_file>
/data/baiqing/PycharmProjects/Reinvent-master-3.2/result/LINK_invent/BTK/process_docking_weight1_custom_sum_contain_oxygen_bond_distance_aromatic_linkinvent_7_9_3/rearranged_h_0139.sdf

> <i_m_source_file_index>
87

> <r_mmod_Potential_Energy-OPLS-2005>
76.5203704833984

> <r_mmod_Stretch_Energy-OPLS-2005>
59.0347137451172

> <r_mmod_Bend_Energy-OPLS-2005>
124.026908874512

> <r_mmod_Torsional_Energy-OPLS-2005>
300.671783447266

> <r_mmod_Improper_Torsional_Energy-OPLS-2005>
5.91500234603882

> <r_mmod_Van_der_Waal_Energy-OPLS-2005>
134.687301635742

> <r_mmod_Electrostatic_Energy-OPLS-2005>
-381.393005371094

> <r_mmod_Solvation_Energy-OPLS-2005>
-194.503448486328

> <b_mmod_Minimization_Converged-OPLS-2005>
0

> <r_mmod_RMS_Derivative-OPLS-2005>
1.08255064487457

$$$$
87
                    3D
 Structure written by MMmdl.
175184  0  0  1  0            999 V2000
  -30.7450  -14.4164   20.5687 C   0  0  0  0  0  0
  -30.4050  -12.2722   19.4262 C   0  0  0  0  0  0
  -29.4887  -12.4987   18.2079 C   0  0  0  0  0  0
  -28.0095  -12.3719   18.6181 C   0  0  0  0  0  0
  -27.6615  -13.2110   19.8774 C   0  0  2  0  0  0
  -28.7017  -12.9992   21.0022 C   0  0  0  0  0  0
  -25.2581  -13.8183   20.5687 C   0  0  0  0  0  0
  -24.1838  -13.0453   20.9177 C   0  0  0  0  0  0
  -24.6393  -11.6919   20.8738 C   0  0  0  0  0  0
  -23.9061  -10.4299   21.0404 C   0  0  0  0  0  0
  -24.3613   -9.4213   21.9182 C   0  0  0  0  0  0
  -23.6288   -8.2248   22.0755 C   0  0  0  0  0  0
  -22.4274   -8.0283   21.3544 C   0  0  0  0  0  0
  -21.9909   -9.0255   20.4645 C   0  0  0  0  0  0
  -22.7234  -10.2136   20.3055 C   0  0  0  0  0  0
  -21.6853   -6.0737   22.5277 C   0  0  0  0  0  0
  -21.4015   -6.5640   23.8209 C   0  0  0  0  0  0
  -21.3658   -5.6794   24.9172 C   0  0  0  0  0  0
  -21.6044   -4.3054   24.7223 C   0  0  0  0  0  0
  -21.8819   -3.8149   23.4345 C   0  0  0  0  0  0
  -21.9192   -4.6965   22.3400 C   0  0  0  0  0  0
  -22.7855  -13.5241   21.1837 C   0  0  0  0  0  0
  -22.1659   -4.2151   21.0979 F   0  0  0  0  0  0
  -21.5628   -3.4541   25.7737 F   0  0  0  0  0  0
  -30.0366  -13.2659   20.4459 N   0  0  0  0  0  0
  -26.3023  -12.9361   20.3387 N   0  0  0  0  0  0
  -25.9324  -11.6514   20.5787 N   0  0  0  0  0  0
  -22.0497  -12.8236   22.0390 N   0  0  0  0  0  0
  -25.4312  -15.1901   20.4083 N   0  0  0  0  0  0
  -31.8721  -14.5597   20.0908 O   0  0  0  0  0  0
  -21.6639   -6.8880   21.4239 O   0  0  0  0  0  0
  -22.3541  -14.5550   20.6688 O   0  0  0  0  0  0
  -24.6109  -31.8714   23.2144 C   0  0  0  0  0  0
  -25.9025  -32.4839   23.8424 C   0  0  1  0  0  0
  -27.2329  -27.4681   20.0959 C   0  0  0  0  0  0
  -25.5905  -33.8634   24.2363 N   0  0  0  0  0  0
  -23.3973  -30.4947   21.5538 C   0  0  2  0  0  0
  -24.8455  -28.9630   20.1180 C   0  0  0  0  0  0
  -22.7390  -29.4680   22.5023 C   0  0  0  0  0  0
  -18.0267  -28.1364   22.8507 C   0  0  0  0  0  0
  -24.1487  -36.7313   23.2647 C   0  0  0  0  0  0
  -25.9224  -30.8448   21.3655 C   0  0  0  0  0  0
  -26.0016  -29.4799   20.7182 C   0  0  0  0  0  0
  -27.2003  -28.7359   20.7141 C   0  0  0  0  0  0
  -26.0705  -26.9609   19.4838 C   0  0  0  0  0  0
  -24.8720  -27.6986   19.5019 C   0  0  0  0  0  0
  -23.6047  -29.8252   20.1686 C   0  0  0  0  0  0
  -25.4106  -36.3120   24.0352 C   0  0  1  0  0  0
  -20.5853  -28.3657   23.1323 C   0  0  2  0  0  0
  -20.6756  -26.9397   22.5415 C   0  0  0  0  0  0
  -19.5732  -26.6379   21.5211 C   0  0  0  0  0  0
  -18.1909  -26.7915   22.1620 C   0  0  0  0  0  0
  -19.1517  -28.8827   23.2907 C   0  0  0  0  0  0
  -18.9452  -30.1433   23.8916 C   0  0  0  0  0  0
  -17.6455  -30.6579   24.0561 C   0  0  0  0  0  0
  -25.9029  -34.9484   23.5148 C   0  0  0  0  0  0
  -16.5345  -29.9082   23.6328 C   0  0  0  0  0  0
  -16.7260  -28.6488   23.0368 C   0  0  0  0  0  0
  -26.4465  -31.6600   25.0733 C   0  0  0  0  0  0
  -25.3749  -31.3668   26.1490 C   0  0  0  0  0  0
  -27.0326  -30.3066   24.6083 C   0  0  0  0  0  0
  -27.6052  -32.4318   25.7479 C   0  0  0  0  0  0
  -27.5578  -37.1808   24.8474 C   0  0  0  0  0  0
  -21.4125  -29.3032   22.3746 N   0  0  0  0  0  0
  -26.4296  -37.3797   23.9414 N   0  0  0  0  0  0
  -24.6611  -31.0840   22.1034 N   0  0  0  0  0  0
  -23.4170  -28.8232   23.3065 O   0  0  0  0  0  0
  -28.3738  -26.7104   20.0619 O   0  0  0  0  0  0
  -26.5577  -34.8929   22.4699 O   0  0  0  0  0  0
  -23.5315  -32.1459   23.7558 O   0  0  0  0  0  0
  -28.4013  -20.8190   21.4619 C   0  0  0  0  0  0
  -27.8924  -22.0707   21.8583 C   0  0  0  0  0  0
  -30.0927  -22.7065   22.6659 C   0  0  0  0  0  0
  -29.7707  -20.5072   21.6269 C   0  0  0  0  0  0
  -30.6152  -21.4590   22.2625 C   0  0  0  0  0  0
  -28.7449  -23.0336   22.4379 C   0  0  0  0  0  0
  -29.8937  -18.8317   19.6516 C   0  0  0  0  0  0
  -30.3443  -17.3768   19.4859 C   0  0  0  0  0  0
  -30.3310  -19.1901   21.0732 C   0  0  2  0  0  0
  -30.6131  -16.8362   20.9112 C   0  0  1  0  0  0
  -30.0336  -17.9032   21.8634 C   0  0  1  0  0  0
  -32.0902  -21.1877   22.5154 C   0  0  0  0  0  0
  -30.4284  -16.3863   26.5285 C   0  0  0  0  0  0
  -28.7341  -26.1275   21.3144 C   0  0  0  0  0  0
  -27.7125  -25.0730   21.7944 C   0  0  0  0  0  0
  -30.2042  -17.0009   24.0630 C   0  0  0  0  0  0
  -31.0152  -17.1777   25.3542 C   0  0  2  0  0  0
  -30.0913  -15.4735   21.0734 N   0  0  0  0  0  0
  -32.3205  -16.6953   25.1050 O   0  0  0  0  0  0
  -28.2921  -24.2711   22.8237 O   0  0  0  0  0  0
  -30.7071  -17.9319   23.1154 O   0  0  0  0  0  0
  -31.4532  -12.3360   19.1287 H   0  0  0  0  0  0
  -30.2728  -11.2643   19.8234 H   0  0  0  0  0  0
  -29.7209  -11.7805   17.4204 H   0  0  0  0  0  0
  -29.6705  -13.4877   17.7843 H   0  0  0  0  0  0
  -27.8082  -11.3170   18.8072 H   0  0  0  0  0  0
  -27.3628  -12.6575   17.7876 H   0  0  0  0  0  0
  -27.7066  -14.2588   19.5789 H   0  0  0  0  0  0
  -28.6616  -11.9732   21.3703 H   0  0  0  0  0  0
  -28.4791  -13.6300   21.8641 H   0  0  0  0  0  0
  -25.2756   -9.5689   22.4757 H   0  0  0  0  0  0
  -23.9996   -7.4645   22.7478 H   0  0  0  0  0  0
  -21.0841   -8.8768   19.8951 H   0  0  0  0  0  0
  -22.3687  -10.9674   19.6164 H   0  0  0  0  0  0
  -21.2011   -7.6150   23.9713 H   0  0  0  0  0  0
  -21.1479   -6.0525   25.9074 H   0  0  0  0  0  0
  -22.0601   -2.7611   23.2845 H   0  0  0  0  0  0
  -22.4110  -11.9893   22.4774 H   0  0  0  0  0  0
  -21.1116  -13.1267   22.2600 H   0  0  0  0  0  0
  -24.6657  -15.8474   20.5100 H   0  0  0  0  0  0
  -26.2857  -15.6250   20.0839 H   0  0  0  0  0  0
  -26.7100  -32.5574   23.1198 H   0  0  0  0  0  0
  -25.0087  -33.9803   25.0530 H   0  0  0  0  0  0
  -22.6848  -31.3108   21.4161 H   0  0  0  0  0  0
  -23.3753  -35.9641   23.3322 H   0  0  0  0  0  0
  -24.3579  -36.8912   22.2057 H   0  0  0  0  0  0
  -23.7233  -37.6522   23.6647 H   0  0  0  0  0  0
  -26.0294  -31.6098   20.5951 H   0  0  0  0  0  0
  -26.8119  -30.9015   21.9802 H   0  0  0  0  0  0
  -28.0949  -29.1328   21.1738 H   0  0  0  0  0  0
  -26.0939  -25.9929   19.0034 H   0  0  0  0  0  0
  -23.9835  -27.2928   19.0374 H   0  0  0  0  0  0
  -23.7075  -30.5992   19.4067 H   0  0  0  0  0  0
  -22.7297  -29.2410   19.8782 H   0  0  0  0  0  0
  -25.1277  -36.1989   25.0848 H   0  0  0  0  0  0
  -20.9937  -28.3217   24.1445 H   0  0  0  0  0  0
  -20.5654  -26.2271   23.3600 H   0  0  0  0  0  0
  -21.6626  -26.7433   22.1214 H   0  0  0  0  0  0
  -19.6890  -25.6291   21.1234 H   0  0  0  0  0  0
  -19.6663  -27.3196   20.6742 H   0  0  0  0  0  0
  -17.4179  -26.6693   21.4013 H   0  0  0  0  0  0
  -18.0294  -26.0033   22.8990 H   0  0  0  0  0  0
  -19.7929  -30.7240   24.2297 H   0  0  0  0  0  0
  -17.5015  -31.6269   24.5147 H   0  0  0  0  0  0
  -15.5346  -30.2991   23.7638 H   0  0  0  0  0  0
  -15.8657  -28.0801   22.7097 H   0  0  0  0  0  0
  -24.5927  -30.7011   25.7820 H   0  0  0  0  0  0
  -24.8928  -32.2806   26.4974 H   0  0  0  0  0  0
  -25.8121  -30.8810   27.0225 H   0  0  0  0  0  0
  -26.2870  -29.6779   24.1202 H   0  0  0  0  0  0
  -27.4207  -29.7333   25.4513 H   0  0  0  0  0  0
  -27.8645  -30.4425   23.9169 H   0  0  0  0  0  0
  -27.2696  -33.3623   26.2066 H   0  0  0  0  0  0
  -28.3841  -32.6866   25.0280 H   0  0  0  0  0  0
  -28.0742  -31.8436   26.5376 H   0  0  0  0  0  0
  -28.2606  -38.0093   24.7516 H   0  0  0  0  0  0
  -28.1065  -36.2628   24.6312 H   0  0  0  0  0  0
  -27.2297  -37.1472   25.8878 H   0  0  0  0  0  0
  -20.9290  -29.8767   21.6976 H   0  0  0  0  0  0
  -26.0194  -38.2885   24.1397 H   0  0  0  0  0  0
  -27.7255  -20.1090   21.0080 H   0  0  0  0  0  0
  -26.8436  -22.2861   21.7121 H   0  0  0  0  0  0
  -30.7375  -23.4370   23.1349 H   0  0  0  0  0  0
  -28.8099  -18.8741   19.5468 H   0  0  0  0  0  0
  -30.3230  -19.4963   18.9016 H   0  0  0  0  0  0
  -31.2534  -17.3185   18.8857 H   0  0  0  0  0  0
  -29.5759  -16.8099   18.9584 H   0  0  0  0  0  0
  -31.4144  -19.2838   21.0119 H   0  0  0  0  0  0
  -31.6945  -16.8369   21.0732 H   0  0  0  0  0  0
  -28.9533  -17.7918   21.9817 H   0  0  0  0  0  0
  -32.5299  -21.9434   23.1668 H   0  0  0  0  0  0
  -32.6480  -21.1947   21.5784 H   0  0  0  0  0  0
  -32.2325  -20.2207   22.9986 H   0  0  0  0  0  0
  -29.4258  -16.7395   26.7709 H   0  0  0  0  0  0
  -31.0360  -16.4974   27.4272 H   0  0  0  0  0  0
  -30.3560  -15.3222   26.2992 H   0  0  0  0  0  0
  -29.6996  -25.6440   21.1652 H   0  0  0  0  0  0
  -28.8883  -26.8910   22.0785 H   0  0  0  0  0  0
  -27.3778  -24.4768   20.9440 H   0  0  0  0  0  0
  -26.8242  -25.5617   22.1955 H   0  0  0  0  0  0
  -29.1509  -17.2135   24.2549 H   0  0  0  0  0  0
  -30.2694  -15.9737   23.7016 H   0  0  0  0  0  0
  -31.0637  -18.2358   25.6186 H   0  0  0  0  0  0
  -29.1586  -15.3409   21.4336 H   0  0  0  0  0  0
  -32.6118  -17.1272   24.3050 H   0  0  0  0  0  0
  1 25  1  0  0  0
  1 30  2  0  0  0
  1 88  1  0  0  0
  2  3  1  0  0  0
  2 25  1  0  0  0
  2 92  1  0  0  0
  2 93  1  0  0  0
  3  4  1  0  0  0
  3 94  1  0  0  0
  3 95  1  0  0  0
  4  5  1  0  0  0
  4 96  1  0  0  0
  4 97  1  0  0  0
  5  6  1  0  0  0
  5 26  1  0  0  0
  5 98  1  0  0  0
  6 25  1  0  0  0
  6 99  1  0  0  0
  6100  1  0  0  0
  7  8  2  0  0  0
  7 26  1  0  0  0
  7 29  1  0  0  0
  8  9  1  0  0  0
  8 22  1  0  0  0
  9 10  1  0  0  0
  9 27  2  0  0  0
 10 11  2  0  0  0
 10 15  1  0  0  0
 11 12  1  0  0  0
 11101  1  0  0  0
 12 13  2  0  0  0
 12102  1  0  0  0
 13 14  1  0  0  0
 13 31  1  0  0  0
 14 15  2  0  0  0
 14103  1  0  0  0
 15104  1  0  0  0
 16 17  2  0  0  0
 16 21  1  0  0  0
 16 31  1  0  0  0
 17 18  1  0  0  0
 17105  1  0  0  0
 18 19  2  0  0  0
 18106  1  0  0  0
 19 20  1  0  0  0
 19 24  1  0  0  0
 20 21  2  0  0  0
 20107  1  0  0  0
 21 23  1  0  0  0
 22 28  1  0  0  0
 22 32  2  0  0  0
 26 27  1  0  0  0
 28108  1  0  0  0
 28109  1  0  0  0
 29110  1  0  0  0
 29111  1  0  0  0
 33 34  1  0  0  0
 33 66  1  0  0  0
 33 70  2  0  0  0
 34 36  1  0  0  0
 34 59  1  0  0  0
 34112  1  0  0  0
 35 44  2  0  0  0
 35 45  1  0  0  0
 35 68  1  0  0  0
 36 56  1  0  0  0
 36113  1  0  0  0
 37 39  1  0  0  0
 37 47  1  0  0  0
 37 66  1  0  0  0
 37114  1  0  0  0
 38 43  2  0  0  0
 38 46  1  0  0  0
 38 47  1  0  0  0
 39 64  1  0  0  0
 39 67  2  0  0  0
 40 52  1  0  0  0
 40 53  2  0  0  0
 40 58  1  0  0  0
 41115  1  0  0  0
 41116  1  0  0  0
 41117  1  0  0  0
 41 48  1  0  0  0
 42 43  1  0  0  0
 42 66  1  0  0  0
 42118  1  0  0  0
 42119  1  0  0  0
 43 44  1  0  0  0
 44120  1  0  0  0
 45 46  2  0  0  0
 45121  1  0  0  0
 46122  1  0  0  0
 47123  1  0  0  0
 47124  1  0  0  0
 48 56  1  0  0  0
 48 65  1  0  0  0
 48125  1  0  0  0
 49 50  1  0  0  0
 49 53  1  0  0  0
 49 64  1  0  0  0
 49126  1  0  0  0
 50 51  1  0  0  0
 50127  1  0  0  0
 50128  1  0  0  0
 51 52  1  0  0  0
 51129  1  0  0  0
 51130  1  0  0  0
 52131  1  0  0  0
 52132  1  0  0  0
 53 54  1  0  0  0
 54 55  2  0  0  0
 54133  1  0  0  0
 55 57  1  0  0  0
 55134  1  0  0  0
 56 69  2  0  0  0
 57 58  2  0  0  0
 57135  1  0  0  0
 58136  1  0  0  0
 59 60  1  0  0  0
 59 61  1  0  0  0
 59 62  1  0  0  0
 60137  1  0  0  0
 60138  1  0  0  0
 60139  1  0  0  0
 61140  1  0  0  0
 61141  1  0  0  0
 61142  1  0  0  0
 62143  1  0  0  0
 62144  1  0  0  0
 62145  1  0  0  0
 63 65  1  0  0  0
 63146  1  0  0  0
 63147  1  0  0  0
 63148  1  0  0  0
 64149  1  0  0  0
 65150  1  0  0  0
 68 84  1  0  0  0
 71 72  2  0  0  0
 71 74  1  0  0  0
 71151  1  0  0  0
 72 76  1  0  0  0
 72152  1  0  0  0
 73 75  1  0  0  0
 73 76  2  0  0  0
 73153  1  0  0  0
 74 75  2  0  0  0
 74 79  1  0  0  0
 75 82  1  0  0  0
 76 90  1  0  0  0
 77 78  1  0  0  0
 77 79  1  0  0  0
 77154  1  0  0  0
 77155  1  0  0  0
 78 80  1  0  0  0
 78156  1  0  0  0
 78157  1  0  0  0
 79 81  1  0  0  0
 79158  1  0  0  0
 80 81  1  0  0  0
 80 88  1  0  0  0
 80159  1  0  0  0
 81 91  1  0  0  0
 81160  1  0  0  0
 82161  1  0  0  0
 82162  1  0  0  0
 82163  1  0  0  0
 83164  1  0  0  0
 83165  1  0  0  0
 83166  1  0  0  0
 83 87  1  0  0  0
 84 85  1  0  0  0
 84167  1  0  0  0
 84168  1  0  0  0
 85 90  1  0  0  0
 85169  1  0  0  0
 85170  1  0  0  0
 86 87  1  0  0  0
 86 91  1  0  0  0
 86171  1  0  0  0
 86172  1  0  0  0
 87 89  1  0  0  0
 87173  1  0  0  0
 88174  1  0  0  0
 89175  1  0  0  0
M  ISO  4   1 100  68 101  84 101  88 100
M  END
> <chiral flag>
0

> <version>
0

> <s_m_source_file>
/data/baiqing/PycharmProjects/Reinvent-master-3.2/result/LINK_invent/BTK/process_docking_weight1_custom_sum_contain_oxygen_bond_distance_aromatic_linkinvent_7_9_3/rearranged_h_0139.sdf

> <i_m_source_file_index>
88

> <r_mmod_Potential_Energy-OPLS-2005>
-51.7844734191895

> <r_mmod_Stretch_Energy-OPLS-2005>
34.0141448974609

> <r_mmod_Bend_Energy-OPLS-2005>
131.342864990234

> <r_mmod_Torsional_Energy-OPLS-2005>
283.345794677734

> <r_mmod_Improper_Torsional_Energy-OPLS-2005>
4.40296268463135

> <r_mmod_Van_der_Waal_Energy-OPLS-2005>
149.952697753906

> <r_mmod_Electrostatic_Energy-OPLS-2005>
-441.914733886719

> <r_mmod_Solvation_Energy-OPLS-2005>
-223.439651489258

> <b_mmod_Minimization_Converged-OPLS-2005>
0

> <r_mmod_RMS_Derivative-OPLS-2005>
0.989707231521606

$$$$
88
                    3D
 Structure written by MMmdl.
168176  0  0  1  0            999 V2000
  -30.7369  -14.4185   20.5867 C   0  0  0  0  0  0
  -30.4230  -12.2727   19.4282 C   0  0  0  0  0  0
  -29.5031  -12.4981   18.2112 C   0  0  0  0  0  0
  -28.0215  -12.3715   18.6184 C   0  0  0  0  0  0
  -27.6709  -13.2051   19.8817 C   0  0  2  0  0  0
  -28.7100  -12.9743   21.0049 C   0  0  0  0  0  0
  -25.2624  -13.8162   20.5652 C   0  0  0  0  0  0
  -24.1864  -13.0436   20.9157 C   0  0  0  0  0  0
  -24.6421  -11.6908   20.8741 C   0  0  0  0  0  0
  -23.9079  -10.4293   21.0417 C   0  0  0  0  0  0
  -24.3626   -9.4215   21.9204 C   0  0  0  0  0  0
  -23.6289   -8.2263   22.0784 C   0  0  0  0  0  0
  -22.4275   -8.0301   21.3566 C   0  0  0  0  0  0
  -21.9907   -9.0281   20.4677 C   0  0  0  0  0  0
  -22.7252  -10.2158   20.3075 C   0  0  0  0  0  0
  -21.6860   -6.0744   22.5284 C   0  0  0  0  0  0
  -21.4007   -6.5646   23.8226 C   0  0  0  0  0  0
  -21.3651   -5.6804   24.9178 C   0  0  0  0  0  0
  -21.6056   -4.3068   24.7232 C   0  0  0  0  0  0
  -21.8809   -3.8160   23.4357 C   0  0  0  0  0  0
  -21.9176   -4.6963   22.3410 C   0  0  0  0  0  0
  -22.7901  -13.5270   21.1795 C   0  0  0  0  0  0
  -22.1652   -4.2159   21.0986 F   0  0  0  0  0  0
  -21.5623   -3.4544   25.7741 F   0  0  0  0  0  0
  -30.0509  -13.2532   20.4579 N   0  0  0  0  0  0
  -26.3077  -12.9324   20.3391 N   0  0  0  0  0  0
  -25.9363  -11.6491   20.5827 N   0  0  0  0  0  0
  -22.0523  -12.8294   22.0350 N   0  0  0  0  0  0
  -25.4315  -15.1881   20.4036 N   0  0  0  0  0  0
  -31.8338  -14.6245   20.0612 O   0  0  0  0  0  0
  -21.6648   -6.8894   21.4264 O   0  0  0  0  0  0
  -22.3612  -14.5588   20.6669 O   0  0  0  0  0  0
  -24.6093  -31.8702   23.2099 C   0  0  0  0  0  0
  -25.9019  -32.4823   23.8372 C   0  0  1  0  0  0
  -27.2533  -27.4797   20.0780 C   0  0  0  0  0  0
  -25.5921  -33.8627   24.2292 N   0  0  0  0  0  0
  -23.3957  -30.4955   21.5469 C   0  0  2  0  0  0
  -24.8463  -28.9616   20.1140 C   0  0  0  0  0  0
  -22.7384  -29.4706   22.4960 C   0  0  0  0  0  0
  -18.0236  -28.1382   22.8525 C   0  0  0  0  0  0
  -24.1504  -36.7310   23.2635 C   0  0  0  0  0  0
  -25.9209  -30.8447   21.3623 C   0  0  0  0  0  0
  -25.9993  -29.4819   20.7130 C   0  0  0  0  0  0
  -27.1989  -28.7409   20.7075 C   0  0  0  0  0  0
  -26.0796  -26.9556   19.4918 C   0  0  0  0  0  0
  -24.8784  -27.6912   19.5093 C   0  0  0  0  0  0
  -23.6033  -29.8242   20.1619 C   0  0  0  0  0  0
  -25.4130  -36.3106   24.0310 C   0  0  1  0  0  0
  -20.5830  -28.3706   23.1253 C   0  0  2  0  0  0
  -20.6749  -26.9426   22.5420 C   0  0  0  0  0  0
  -19.5633  -26.6208   21.5363 C   0  0  0  0  0  0
  -18.1859  -26.7833   22.1842 C   0  0  0  0  0  0
  -19.1494  -28.8883   23.2832 C   0  0  0  0  0  0
  -18.9445  -30.1491   23.8823 C   0  0  0  0  0  0
  -17.6459  -30.6632   24.0552 C   0  0  0  0  0  0
  -25.9056  -34.9480   23.5098 C   0  0  0  0  0  0
  -16.5337  -29.9127   23.6358 C   0  0  0  0  0  0
  -16.7239  -28.6536   23.0394 C   0  0  0  0  0  0
  -26.4466  -31.6611   25.0706 C   0  0  0  0  0  0
  -25.3730  -31.3750   26.1458 C   0  0  0  0  0  0
  -27.0291  -30.3044   24.6086 C   0  0  0  0  0  0
  -27.6024  -32.4359   25.7471 C   0  0  0  0  0  0
  -27.5580  -37.1821   24.8463 C   0  0  0  0  0  0
  -21.4128  -29.3032   22.3627 N   0  0  0  0  0  0
  -26.4305  -37.3795   23.9395 N   0  0  0  0  0  0
  -24.6589  -31.0853   22.0979 N   0  0  0  0  0  0
  -23.4137  -28.8313   23.3063 O   0  0  0  0  0  0
  -28.4367  -26.7809   20.1122 O   0  0  0  0  0  0
  -26.5612  -34.8931   22.4657 O   0  0  0  0  0  0
  -23.5297  -32.1419   23.7537 O   0  0  0  0  0  0
  -26.2396  -22.3697   18.6822 C   0  0  0  0  0  0
  -27.2680  -23.2551   18.3217 C   0  0  0  0  0  0
  -28.8620  -21.9039   19.5677 C   0  0  0  0  0  0
  -26.5042  -21.2356   19.4810 C   0  0  0  0  0  0
  -27.8330  -20.9987   19.9255 C   0  0  0  0  0  0
  -28.5836  -23.0356   18.7695 C   0  0  0  0  0  0
  -25.3932  -19.0935   18.7668 C   0  0  0  0  0  0
  -23.9763  -20.8698   19.8923 C   0  0  0  0  0  0
  -29.1018  -17.6590   20.9630 C   0  0  0  0  0  0
  -29.3455  -19.1445   20.6387 C   0  0  0  0  0  0
  -30.3891  -16.8316   21.0878 C   0  0  0  0  0  0
  -28.9166  -26.2060   18.8991 C   0  0  0  0  0  0
  -29.8251  -24.9999   19.2278 C   0  0  0  0  0  0
  -25.3775  -20.2394   19.7908 C   0  0  0  0  0  0
  -28.0859  -19.8654   20.7167 N   0  0  0  0  0  0
  -30.0752  -15.4029   21.2047 N   0  0  0  0  0  0
  -29.5925  -23.8796   18.3727 O   0  0  0  0  0  0
  -31.4709  -12.3541   19.1312 H   0  0  0  0  0  0
  -30.3075  -11.2611   19.8204 H   0  0  0  0  0  0
  -29.7411  -11.7819   17.4210 H   0  0  0  0  0  0
  -29.6888  -13.4864   17.7884 H   0  0  0  0  0  0
  -27.8153  -11.3182   18.8081 H   0  0  0  0  0  0
  -27.3799  -12.6659   17.7867 H   0  0  0  0  0  0
  -27.7196  -14.2549   19.5920 H   0  0  0  0  0  0
  -28.6732  -11.9431   21.3592 H   0  0  0  0  0  0
  -28.4761  -13.5838   21.8780 H   0  0  0  0  0  0
  -25.2770   -9.5690   22.4778 H   0  0  0  0  0  0
  -23.9983   -7.4660   22.7520 H   0  0  0  0  0  0
  -21.0832   -8.8835   19.8995 H   0  0  0  0  0  0
  -22.3730  -10.9705   19.6193 H   0  0  0  0  0  0
  -21.2014   -7.6156   23.9726 H   0  0  0  0  0  0
  -21.1478   -6.0538   25.9085 H   0  0  0  0  0  0
  -22.0585   -2.7627   23.2865 H   0  0  0  0  0  0
  -22.4090  -11.9941   22.4738 H   0  0  0  0  0  0
  -21.1193  -13.1448   22.2569 H   0  0  0  0  0  0
  -24.6639  -15.8428   20.5083 H   0  0  0  0  0  0
  -26.2841  -15.6279   20.0827 H   0  0  0  0  0  0
  -26.7087  -32.5516   23.1124 H   0  0  0  0  0  0
  -25.0127  -33.9793   25.0469 H   0  0  0  0  0  0
  -22.6823  -31.3114   21.4101 H   0  0  0  0  0  0
  -23.3757  -35.9656   23.3331 H   0  0  0  0  0  0
  -24.3614  -36.8899   22.2051 H   0  0  0  0  0  0
  -23.7268  -37.6526   23.6639 H   0  0  0  0  0  0
  -26.0333  -31.6127   20.5959 H   0  0  0  0  0  0
  -26.8087  -30.8927   21.9800 H   0  0  0  0  0  0
  -28.0870  -29.1393   21.1776 H   0  0  0  0  0  0
  -26.0761  -25.9729   19.0444 H   0  0  0  0  0  0
  -23.9877  -27.2752   19.0591 H   0  0  0  0  0  0
  -23.7038  -30.5996   19.4013 H   0  0  0  0  0  0
  -22.7298  -29.2425   19.8652 H   0  0  0  0  0  0
  -25.1307  -36.1960   25.0798 H   0  0  0  0  0  0
  -20.9909  -28.3354   24.1382 H   0  0  0  0  0  0
  -21.6567  -26.7535   22.1082 H   0  0  0  0  0  0
  -20.5891  -26.2326   23.3667 H   0  0  0  0  0  0
  -19.6761  -25.6042   21.1594 H   0  0  0  0  0  0
  -19.6471  -27.2827   20.6739 H   0  0  0  0  0  0
  -17.4050  -26.6352   21.4378 H   0  0  0  0  0  0
  -18.0403  -26.0142   22.9449 H   0  0  0  0  0  0
  -19.7952  -30.7318   24.2086 H   0  0  0  0  0  0
  -17.5044  -31.6328   24.5139 H   0  0  0  0  0  0
  -15.5336  -30.3033   23.7699 H   0  0  0  0  0  0
  -15.8629  -28.0848   22.7170 H   0  0  0  0  0  0
  -24.5833  -30.7182   25.7786 H   0  0  0  0  0  0
  -24.8996  -32.2944   26.4928 H   0  0  0  0  0  0
  -25.8049  -30.8865   27.0208 H   0  0  0  0  0  0
  -26.2830  -29.6825   24.1112 H   0  0  0  0  0  0
  -27.4036  -29.7264   25.4547 H   0  0  0  0  0  0
  -27.8700  -30.4352   23.9254 H   0  0  0  0  0  0
  -27.2590  -33.3609   26.2127 H   0  0  0  0  0  0
  -28.3794  -32.7023   25.0292 H   0  0  0  0  0  0
  -28.0758  -31.8456   26.5327 H   0  0  0  0  0  0
  -28.2615  -38.0099   24.7502 H   0  0  0  0  0  0
  -28.1048  -36.2637   24.6295 H   0  0  0  0  0  0
  -27.2308  -37.1490   25.8867 H   0  0  0  0  0  0
  -20.9361  -29.8546   21.6631 H   0  0  0  0  0  0
  -26.0184  -38.2870   24.1389 H   0  0  0  0  0  0
  -25.2435  -22.5640   18.3152 H   0  0  0  0  0  0
  -27.0371  -24.0929   17.6808 H   0  0  0  0  0  0
  -29.8755  -21.7364   19.8995 H   0  0  0  0  0  0
  -26.3794  -18.6311   18.7161 H   0  0  0  0  0  0
  -25.1604  -19.4572   17.7663 H   0  0  0  0  0  0
  -24.6735  -18.3134   19.0164 H   0  0  0  0  0  0
  -23.9630  -21.7017   20.5993 H   0  0  0  0  0  0
  -23.2563  -20.1331   20.2478 H   0  0  0  0  0  0
  -23.6091  -21.2340   18.9333 H   0  0  0  0  0  0
  -28.4754  -17.2265   20.1790 H   0  0  0  0  0  0
  -28.5396  -17.5726   21.8947 H   0  0  0  0  0  0
  -30.0457  -19.5763   21.3555 H   0  0  0  0  0  0
  -29.7843  -19.2457   19.6443 H   0  0  0  0  0  0
  -30.9621  -17.1531   21.9582 H   0  0  0  0  0  0
  -31.0114  -17.0210   20.2106 H   0  0  0  0  0  0
  -28.1136  -25.9148   18.2291 H   0  0  0  0  0  0
  -29.4865  -26.9592   18.3555 H   0  0  0  0  0  0
  -29.7074  -24.6981   20.2701 H   0  0  0  0  0  0
  -30.8720  -25.2955   19.1324 H   0  0  0  0  0  0
  -25.5648  -19.8120   20.7762 H   0  0  0  0  0  0
  -27.2778  -19.2675   20.8565 H   0  0  0  0  0  0
  -29.2022  -15.1498   21.6429 H   0  0  0  0  0  0
  1 25  1  0  0  0
  1 30  2  0  0  0
  1 86  1  0  0  0
  2  3  1  0  0  0
  2 25  1  0  0  0
  2 88  1  0  0  0
  2 89  1  0  0  0
  3  4  1  0  0  0
  3 90  1  0  0  0
  3 91  1  0  0  0
  4  5  1  0  0  0
  4 92  1  0  0  0
  4 93  1  0  0  0
  5  6  1  0  0  0
  5 26  1  0  0  0
  5 94  1  0  0  0
  6 25  1  0  0  0
  6 95  1  0  0  0
  6 96  1  0  0  0
  7  8  2  0  0  0
  7 26  1  0  0  0
  7 29  1  0  0  0
  8  9  1  0  0  0
  8 22  1  0  0  0
  9 10  1  0  0  0
  9 27  2  0  0  0
 10 11  2  0  0  0
 10 15  1  0  0  0
 11 12  1  0  0  0
 11 97  1  0  0  0
 12 13  2  0  0  0
 12 98  1  0  0  0
 13 14  1  0  0  0
 13 31  1  0  0  0
 14 15  2  0  0  0
 14 99  1  0  0  0
 15100  1  0  0  0
 16 17  2  0  0  0
 16 21  1  0  0  0
 16 31  1  0  0  0
 17 18  1  0  0  0
 17101  1  0  0  0
 18 19  2  0  0  0
 18102  1  0  0  0
 19 20  1  0  0  0
 19 24  1  0  0  0
 20 21  2  0  0  0
 20103  1  0  0  0
 21 23  1  0  0  0
 22 28  1  0  0  0
 22 32  2  0  0  0
 26 27  1  0  0  0
 28104  1  0  0  0
 28105  1  0  0  0
 29106  1  0  0  0
 29107  1  0  0  0
 33 34  1  0  0  0
 33 66  1  0  0  0
 33 70  2  0  0  0
 34 36  1  0  0  0
 34 59  1  0  0  0
 34108  1  0  0  0
 35 44  2  0  0  0
 35 45  1  0  0  0
 35 68  1  0  0  0
 36 56  1  0  0  0
 36109  1  0  0  0
 37 39  1  0  0  0
 37 47  1  0  0  0
 37 66  1  0  0  0
 37110  1  0  0  0
 38 43  2  0  0  0
 38 46  1  0  0  0
 38 47  1  0  0  0
 39 64  1  0  0  0
 39 67  2  0  0  0
 40 52  1  0  0  0
 40 53  2  0  0  0
 40 58  1  0  0  0
 41111  1  0  0  0
 41112  1  0  0  0
 41113  1  0  0  0
 41 48  1  0  0  0
 42 43  1  0  0  0
 42 66  1  0  0  0
 42114  1  0  0  0
 42115  1  0  0  0
 43 44  1  0  0  0
 44116  1  0  0  0
 45 46  2  0  0  0
 45117  1  0  0  0
 46118  1  0  0  0
 47119  1  0  0  0
 47120  1  0  0  0
 48 56  1  0  0  0
 48 65  1  0  0  0
 48121  1  0  0  0
 49 50  1  0  0  0
 49 53  1  0  0  0
 49 64  1  0  0  0
 49122  1  0  0  0
 50 51  1  0  0  0
 50123  1  0  0  0
 50124  1  0  0  0
 51 52  1  0  0  0
 51125  1  0  0  0
 51126  1  0  0  0
 52127  1  0  0  0
 52128  1  0  0  0
 53 54  1  0  0  0
 54 55  2  0  0  0
 54129  1  0  0  0
 55 57  1  0  0  0
 55130  1  0  0  0
 56 69  2  0  0  0
 57 58  2  0  0  0
 57131  1  0  0  0
 58132  1  0  0  0
 59 60  1  0  0  0
 59 61  1  0  0  0
 59 62  1  0  0  0
 60133  1  0  0  0
 60134  1  0  0  0
 60135  1  0  0  0
 61136  1  0  0  0
 61137  1  0  0  0
 61138  1  0  0  0
 62139  1  0  0  0
 62140  1  0  0  0
 62141  1  0  0  0
 63 65  1  0  0  0
 63142  1  0  0  0
 63143  1  0  0  0
 63144  1  0  0  0
 64145  1  0  0  0
 65146  1  0  0  0
 68 82  1  0  0  0
 71 72  2  0  0  0
 71 74  1  0  0  0
 71147  1  0  0  0
 72 76  1  0  0  0
 72148  1  0  0  0
 73 75  1  0  0  0
 73 76  2  0  0  0
 73149  1  0  0  0
 74 75  2  0  0  0
 74 84  1  0  0  0
 75 85  1  0  0  0
 76 87  1  0  0  0
 77150  1  0  0  0
 77151  1  0  0  0
 77152  1  0  0  0
 77 84  1  0  0  0
 78 84  1  0  0  0
 78153  1  0  0  0
 78154  1  0  0  0
 78155  1  0  0  0
 79 80  1  0  0  0
 79 81  1  0  0  0
 79156  1  0  0  0
 79157  1  0  0  0
 80 85  1  0  0  0
 80158  1  0  0  0
 80159  1  0  0  0
 81 86  1  0  0  0
 81160  1  0  0  0
 81161  1  0  0  0
 82 83  1  0  0  0
 82162  1  0  0  0
 82163  1  0  0  0
 83 87  1  0  0  0
 83164  1  0  0  0
 83165  1  0  0  0
 84166  1  0  0  0
 85167  1  0  0  0
 86168  1  0  0  0
M  ISO  4   1 100  68 101  82 101  86 100
M  END
> <chiral flag>
0

> <version>
0

> <s_m_source_file>
/data/baiqing/PycharmProjects/Reinvent-master-3.2/result/LINK_invent/BTK/process_docking_weight1_custom_sum_contain_oxygen_bond_distance_aromatic_linkinvent_7_9_3/rearranged_h_0139.sdf

> <i_m_source_file_index>
89

> <r_mmod_Potential_Energy-OPLS-2005>
-25.2875461578369

> <r_mmod_Stretch_Energy-OPLS-2005>
34.1851615905762

> <r_mmod_Bend_Energy-OPLS-2005>
101.841110229492

> <r_mmod_Torsional_Energy-OPLS-2005>
243.589691162109

> <r_mmod_Improper_Torsional_Energy-OPLS-2005>
6.9933500289917

> <r_mmod_Van_der_Waal_Energy-OPLS-2005>
154.788421630859

> <r_mmod_Electrostatic_Energy-OPLS-2005>
-359.398345947266

> <r_mmod_Solvation_Energy-OPLS-2005>
-216.719879150391

> <b_mmod_Minimization_Converged-OPLS-2005>
0

> <r_mmod_RMS_Derivative-OPLS-2005>
3.83323812484741

$$$$
89
                    3D
 Structure written by MMmdl.
174182  0  0  1  0            999 V2000
  -30.6631  -14.6292   20.5256 C   0  0  0  0  0  0
  -30.4333  -12.3968   19.4542 C   0  0  0  0  0  0
  -29.5033  -12.5085   18.2269 C   0  0  0  0  0  0
  -28.0309  -12.3352   18.6474 C   0  0  0  0  0  0
  -27.6522  -13.2208   19.8639 C   0  0  2  0  0  0
  -28.6979  -13.1000   20.9945 C   0  0  0  0  0  0
  -25.2551  -13.8183   20.5687 C   0  0  0  0  0  0
  -24.1821  -13.0442   20.9202 C   0  0  0  0  0  0
  -24.6400  -11.6924   20.8765 C   0  0  0  0  0  0
  -23.9068  -10.4304   21.0432 C   0  0  0  0  0  0
  -24.3616   -9.4215   21.9207 C   0  0  0  0  0  0
  -23.6293   -8.2250   22.0767 C   0  0  0  0  0  0
  -22.4276   -8.0291   21.3551 C   0  0  0  0  0  0
  -21.9923   -9.0266   20.4650 C   0  0  0  0  0  0
  -22.7252  -10.2145   20.3068 C   0  0  0  0  0  0
  -21.6846   -6.0746   22.5283 C   0  0  0  0  0  0
  -21.4012   -6.5639   23.8221 C   0  0  0  0  0  0
  -21.3663   -5.6795   24.9180 C   0  0  0  0  0  0
  -21.6041   -4.3056   24.7232 C   0  0  0  0  0  0
  -21.8817   -3.8154   23.4350 C   0  0  0  0  0  0
  -21.9184   -4.6973   22.3404 C   0  0  0  0  0  0
  -22.7839  -13.5240   21.1857 C   0  0  0  0  0  0
  -22.1658   -4.2163   21.0983 F   0  0  0  0  0  0
  -21.5626   -3.4539   25.7741 F   0  0  0  0  0  0
  -30.0113  -13.4293   20.4217 N   0  0  0  0  0  0
  -26.2989  -12.9374   20.3349 N   0  0  0  0  0  0
  -25.9333  -11.6522   20.5794 N   0  0  0  0  0  0
  -22.0473  -12.8239   22.0408 N   0  0  0  0  0  0
  -25.4242  -15.1904   20.4080 N   0  0  0  0  0  0
  -31.8304  -14.7598   20.1534 O   0  0  0  0  0  0
  -21.6634   -6.8895   21.4248 O   0  0  0  0  0  0
  -22.3543  -14.5566   20.6728 O   0  0  0  0  0  0
  -24.6283  -31.8615   23.2094 C   0  0  0  0  0  0
  -25.9131  -32.4792   23.8397 C   0  0  1  0  0  0
  -27.2003  -27.3080   20.0895 C   0  0  0  0  0  0
  -25.5946  -33.8593   24.2317 N   0  0  0  0  0  0
  -23.4202  -30.4941   21.5538 C   0  0  2  0  0  0
  -24.8603  -28.9700   20.1068 C   0  0  0  0  0  0
  -22.7489  -29.4626   22.4943 C   0  0  0  0  0  0
  -18.0285  -28.1364   22.8480 C   0  0  0  0  0  0
  -24.1489  -36.7300   23.2638 C   0  0  0  0  0  0
  -25.9691  -30.7844   21.3898 C   0  0  0  0  0  0
  -26.0368  -29.4174   20.7228 C   0  0  0  0  0  0
  -27.2087  -28.5968   20.7149 C   0  0  0  0  0  0
  -25.9988  -26.9494   19.4223 C   0  0  0  0  0  0
  -24.8458  -27.7400   19.4486 C   0  0  0  0  0  0
  -23.6336  -29.8517   20.1629 C   0  0  0  0  0  0
  -25.4113  -36.3091   24.0332 C   0  0  1  0  0  0
  -20.5892  -28.3665   23.1273 C   0  0  2  0  0  0
  -20.6776  -26.9394   22.5383 C   0  0  0  0  0  0
  -19.5748  -26.6372   21.5192 C   0  0  0  0  0  0
  -18.1923  -26.7911   22.1606 C   0  0  0  0  0  0
  -19.1537  -28.8831   23.2869 C   0  0  0  0  0  0
  -18.9469  -30.1440   23.8884 C   0  0  0  0  0  0
  -17.6469  -30.6570   24.0553 C   0  0  0  0  0  0
  -25.9049  -34.9457   23.5114 C   0  0  0  0  0  0
  -16.5360  -29.9074   23.6329 C   0  0  0  0  0  0
  -16.7270  -28.6488   23.0352 C   0  0  0  0  0  0
  -26.4516  -31.6601   25.0763 C   0  0  0  0  0  0
  -25.3740  -31.3694   26.1470 C   0  0  0  0  0  0
  -27.0404  -30.3034   24.6233 C   0  0  0  0  0  0
  -27.6050  -32.4362   25.7540 C   0  0  0  0  0  0
  -27.5584  -37.1807   24.8470 C   0  0  0  0  0  0
  -21.4203  -29.3048   22.3693 N   0  0  0  0  0  0
  -26.4299  -37.3782   23.9409 N   0  0  0  0  0  0
  -24.6912  -31.0631   22.1058 N   0  0  0  0  0  0
  -23.4217  -28.8107   23.2971 O   0  0  0  0  0  0
  -28.2754  -26.3898   20.1517 O   0  0  0  0  0  0
  -26.5608  -34.8914   22.4679 O   0  0  0  0  0  0
  -23.5443  -32.1432   23.7406 O   0  0  0  0  0  0
  -28.7029  -22.6731   19.0246 C   0  0  0  0  0  0
  -29.2315  -23.3199   21.2650 C   0  0  0  0  0  0
  -29.1221  -21.3286   19.2632 C   0  0  0  0  0  0
  -28.7298  -23.6994   20.0030 C   0  0  0  0  0  0
  -29.6617  -21.9807   21.5287 C   0  0  0  0  0  0
  -29.5985  -20.9273   20.5567 C   0  0  0  0  0  0
  -28.9511  -20.4153   18.1043 C   0  0  0  0  0  0
  -29.4787  -21.0031   25.3029 C   0  0  0  0  0  0
  -32.1294  -20.0573   17.6441 C   0  0  0  0  0  0
  -28.8759  -20.7583   15.5924 C   0  0  0  0  0  0
  -30.1530  -21.6840   22.9361 C   0  0  0  0  0  0
  -27.9297  -25.0144   19.7140 C   0  0  0  0  0  0
  -29.0210  -21.1886   23.8513 C   0  0  0  0  0  0
  -30.9747  -19.7884   16.6661 C   0  0  0  0  0  0
  -30.3897  -17.1243   21.1789 C   0  0  0  0  0  0
  -29.7100  -18.3406   20.4108 C   0  0  0  0  0  0
  -29.7738  -20.7448   16.8440 C   0  0  2  0  0  0
  -29.9252  -15.7169   20.9012 N   0  0  0  0  0  0
  -28.1663  -19.4632   18.0944 O   0  0  0  0  0  0
  -30.0668  -19.6513   20.9706 O   0  0  0  0  0  0
  -31.4747  -12.5148   19.1497 H   0  0  0  0  0  0
  -30.3638  -11.4056   19.9057 H   0  0  0  0  0  0
  -29.7705  -11.7603   17.4798 H   0  0  0  0  0  0
  -29.6361  -13.4811   17.7500 H   0  0  0  0  0  0
  -27.8846  -11.2844   18.9009 H   0  0  0  0  0  0
  -27.3675  -12.5401   17.8062 H   0  0  0  0  0  0
  -27.6663  -14.2511   19.5085 H   0  0  0  0  0  0
  -28.7094  -12.0888   21.4034 H   0  0  0  0  0  0
  -28.4471  -13.7576   21.8281 H   0  0  0  0  0  0
  -25.2754   -9.5690   22.4794 H   0  0  0  0  0  0
  -23.9994   -7.4644   22.7497 H   0  0  0  0  0  0
  -21.0850   -8.8795   19.8959 H   0  0  0  0  0  0
  -22.3717  -10.9692   19.6180 H   0  0  0  0  0  0
  -21.2009   -7.6143   23.9734 H   0  0  0  0  0  0
  -21.1483   -6.0517   25.9088 H   0  0  0  0  0  0
  -22.0589   -2.7621   23.2843 H   0  0  0  0  0  0
  -22.4040  -11.9850   22.4746 H   0  0  0  0  0  0
  -21.1116  -13.1315   22.2654 H   0  0  0  0  0  0
  -24.6513  -15.8411   20.4977 H   0  0  0  0  0  0
  -26.2686  -15.6293   20.0643 H   0  0  0  0  0  0
  -26.7192  -32.5459   23.1136 H   0  0  0  0  0  0
  -25.0148  -33.9743   25.0497 H   0  0  0  0  0  0
  -22.7132  -31.3149   21.4202 H   0  0  0  0  0  0
  -23.3758  -35.9622   23.3297 H   0  0  0  0  0  0
  -24.3589  -36.8926   22.2054 H   0  0  0  0  0  0
  -23.7238  -37.6492   23.6678 H   0  0  0  0  0  0
  -26.1137  -31.5502   20.6262 H   0  0  0  0  0  0
  -26.8458  -30.8217   22.0254 H   0  0  0  0  0  0
  -28.1024  -28.9280   21.2243 H   0  0  0  0  0  0
  -25.8796  -26.0339   18.8649 H   0  0  0  0  0  0
  -23.9520  -27.3989   18.9449 H   0  0  0  0  0  0
  -23.7550  -30.6382   19.4162 H   0  0  0  0  0  0
  -22.7509  -29.2890   19.8538 H   0  0  0  0  0  0
  -25.1287  -36.1946   25.0821 H   0  0  0  0  0  0
  -20.9984  -28.3228   24.1396 H   0  0  0  0  0  0
  -20.5682  -26.2269   23.3569 H   0  0  0  0  0  0
  -21.6639  -26.7407   22.1176 H   0  0  0  0  0  0
  -19.6906  -25.6287   21.1216 H   0  0  0  0  0  0
  -19.6689  -27.3181   20.6719 H   0  0  0  0  0  0
  -17.4192  -26.6664   21.4009 H   0  0  0  0  0  0
  -18.0318  -26.0043   22.8989 H   0  0  0  0  0  0
  -19.7950  -30.7252   24.2257 H   0  0  0  0  0  0
  -17.5026  -31.6257   24.5148 H   0  0  0  0  0  0
  -15.5363  -30.2963   23.7673 H   0  0  0  0  0  0
  -15.8667  -28.0806   22.7079 H   0  0  0  0  0  0
  -24.5975  -30.6973   25.7802 H   0  0  0  0  0  0
  -24.8853  -32.2826   26.4866 H   0  0  0  0  0  0
  -25.8065  -30.8918   27.0267 H   0  0  0  0  0  0
  -26.3007  -29.6752   24.1254 H   0  0  0  0  0  0
  -27.4124  -29.7312   25.4744 H   0  0  0  0  0  0
  -27.8854  -30.4357   23.9472 H   0  0  0  0  0  0
  -27.2652  -33.3688   26.2058 H   0  0  0  0  0  0
  -28.3879  -32.6883   25.0377 H   0  0  0  0  0  0
  -28.0698  -31.8533   26.5502 H   0  0  0  0  0  0
  -28.2574  -38.0127   24.7543 H   0  0  0  0  0  0
  -28.1109  -36.2657   24.6277 H   0  0  0  0  0  0
  -27.2303  -37.1431   25.8871 H   0  0  0  0  0  0
  -20.9368  -29.8850   21.6981 H   0  0  0  0  0  0
  -26.0181  -38.2854   24.1408 H   0  0  0  0  0  0
  -28.2757  -22.9133   18.0587 H   0  0  0  0  0  0
  -29.2310  -24.0515   22.0619 H   0  0  0  0  0  0
  -28.6693  -20.6194   25.9259 H   0  0  0  0  0  0
  -29.8077  -21.9486   25.7366 H   0  0  0  0  0  0
  -30.3087  -20.2996   25.3658 H   0  0  0  0  0  0
  -32.9846  -19.4202   17.4162 H   0  0  0  0  0  0
  -31.8437  -19.8668   18.6783 H   0  0  0  0  0  0
  -32.4662  -21.0924   17.5782 H   0  0  0  0  0  0
  -28.0099  -21.4055   15.7345 H   0  0  0  0  0  0
  -28.5086  -19.7608   15.3472 H   0  0  0  0  0  0
  -29.4190  -21.1358   14.7255 H   0  0  0  0  0  0
  -30.5883  -22.5931   23.3528 H   0  0  0  0  0  0
  -30.9664  -20.9585   22.9033 H   0  0  0  0  0  0
  -26.9696  -24.7484   20.1599 H   0  0  0  0  0  0
  -27.7910  -25.0570   18.6326 H   0  0  0  0  0  0
  -28.1921  -21.8983   23.8294 H   0  0  0  0  0  0
  -28.6280  -20.2459   23.4669 H   0  0  0  0  0  0
  -30.6474  -18.7507   16.7593 H   0  0  0  0  0  0
  -31.3611  -19.8843   15.6507 H   0  0  0  0  0  0
  -30.2294  -17.2858   22.2456 H   0  0  0  0  0  0
  -31.4701  -17.1887   21.0429 H   0  0  0  0  0  0
  -28.6248  -18.2322   20.4372 H   0  0  0  0  0  0
  -30.0270  -18.2736   19.3722 H   0  0  0  0  0  0
  -30.1674  -21.7552   16.9569 H   0  0  0  0  0  0
  -28.9619  -15.5191   21.1280 H   0  0  0  0  0  0
  1 25  1  0  0  0
  1 30  2  0  0  0
  1 88  1  0  0  0
  2  3  1  0  0  0
  2 25  1  0  0  0
  2 91  1  0  0  0
  2 92  1  0  0  0
  3  4  1  0  0  0
  3 93  1  0  0  0
  3 94  1  0  0  0
  4  5  1  0  0  0
  4 95  1  0  0  0
  4 96  1  0  0  0
  5  6  1  0  0  0
  5 26  1  0  0  0
  5 97  1  0  0  0
  6 25  1  0  0  0
  6 98  1  0  0  0
  6 99  1  0  0  0
  7  8  2  0  0  0
  7 26  1  0  0  0
  7 29  1  0  0  0
  8  9  1  0  0  0
  8 22  1  0  0  0
  9 10  1  0  0  0
  9 27  2  0  0  0
 10 11  2  0  0  0
 10 15  1  0  0  0
 11 12  1  0  0  0
 11100  1  0  0  0
 12 13  2  0  0  0
 12101  1  0  0  0
 13 14  1  0  0  0
 13 31  1  0  0  0
 14 15  2  0  0  0
 14102  1  0  0  0
 15103  1  0  0  0
 16 17  2  0  0  0
 16 21  1  0  0  0
 16 31  1  0  0  0
 17 18  1  0  0  0
 17104  1  0  0  0
 18 19  2  0  0  0
 18105  1  0  0  0
 19 20  1  0  0  0
 19 24  1  0  0  0
 20 21  2  0  0  0
 20106  1  0  0  0
 21 23  1  0  0  0
 22 28  1  0  0  0
 22 32  2  0  0  0
 26 27  1  0  0  0
 28107  1  0  0  0
 28108  1  0  0  0
 29109  1  0  0  0
 29110  1  0  0  0
 33 34  1  0  0  0
 33 66  1  0  0  0
 33 70  2  0  0  0
 34 36  1  0  0  0
 34 59  1  0  0  0
 34111  1  0  0  0
 35 44  2  0  0  0
 35 45  1  0  0  0
 35 68  1  0  0  0
 36 56  1  0  0  0
 36112  1  0  0  0
 37 39  1  0  0  0
 37 47  1  0  0  0
 37 66  1  0  0  0
 37113  1  0  0  0
 38 43  2  0  0  0
 38 46  1  0  0  0
 38 47  1  0  0  0
 39 64  1  0  0  0
 39 67  2  0  0  0
 40 52  1  0  0  0
 40 53  2  0  0  0
 40 58  1  0  0  0
 41114  1  0  0  0
 41115  1  0  0  0
 41116  1  0  0  0
 41 48  1  0  0  0
 42 43  1  0  0  0
 42 66  1  0  0  0
 42117  1  0  0  0
 42118  1  0  0  0
 43 44  1  0  0  0
 44119  1  0  0  0
 45 46  2  0  0  0
 45120  1  0  0  0
 46121  1  0  0  0
 47122  1  0  0  0
 47123  1  0  0  0
 48 56  1  0  0  0
 48 65  1  0  0  0
 48124  1  0  0  0
 49 50  1  0  0  0
 49 53  1  0  0  0
 49 64  1  0  0  0
 49125  1  0  0  0
 50 51  1  0  0  0
 50126  1  0  0  0
 50127  1  0  0  0
 51 52  1  0  0  0
 51128  1  0  0  0
 51129  1  0  0  0
 52130  1  0  0  0
 52131  1  0  0  0
 53 54  1  0  0  0
 54 55  2  0  0  0
 54132  1  0  0  0
 55 57  1  0  0  0
 55133  1  0  0  0
 56 69  2  0  0  0
 57 58  2  0  0  0
 57134  1  0  0  0
 58135  1  0  0  0
 59 60  1  0  0  0
 59 61  1  0  0  0
 59 62  1  0  0  0
 60136  1  0  0  0
 60137  1  0  0  0
 60138  1  0  0  0
 61139  1  0  0  0
 61140  1  0  0  0
 61141  1  0  0  0
 62142  1  0  0  0
 62143  1  0  0  0
 62144  1  0  0  0
 63 65  1  0  0  0
 63145  1  0  0  0
 63146  1  0  0  0
 63147  1  0  0  0
 64148  1  0  0  0
 65149  1  0  0  0
 68 82  1  0  0  0
 71 73  2  0  0  0
 71 74  1  0  0  0
 71150  1  0  0  0
 72 74  2  0  0  0
 72 75  1  0  0  0
 72151  1  0  0  0
 73 76  1  0  0  0
 73 77  1  0  0  0
 74 82  1  0  0  0
 75 76  2  0  0  0
 75 81  1  0  0  0
 76 90  1  0  0  0
 77 87  1  0  0  0
 77 89  2  0  0  0
 78 83  1  0  0  0
 78152  1  0  0  0
 78153  1  0  0  0
 78154  1  0  0  0
 79 84  1  0  0  0
 79155  1  0  0  0
 79156  1  0  0  0
 79157  1  0  0  0
 80158  1  0  0  0
 80159  1  0  0  0
 80160  1  0  0  0
 80 87  1  0  0  0
 81 83  1  0  0  0
 81161  1  0  0  0
 81162  1  0  0  0
 82163  1  0  0  0
 82164  1  0  0  0
 83165  1  0  0  0
 83166  1  0  0  0
 84 87  1  0  0  0
 84167  1  0  0  0
 84168  1  0  0  0
 85 86  1  0  0  0
 85 88  1  0  0  0
 85169  1  0  0  0
 85170  1  0  0  0
 86 90  1  0  0  0
 86171  1  0  0  0
 86172  1  0  0  0
 87173  1  0  0  0
 88174  1  0  0  0
M  ISO  4   1 100  68 101  82 101  88 100
M  END
> <chiral flag>
0

> <version>
0

> <s_m_source_file>
/data/baiqing/PycharmProjects/Reinvent-master-3.2/result/LINK_invent/BTK/process_docking_weight1_custom_sum_contain_oxygen_bond_distance_aromatic_linkinvent_7_9_3/rearranged_h_0139.sdf

> <i_m_source_file_index>
90

> <r_mmod_Potential_Energy-OPLS-2005>
186.333541870117

> <r_mmod_Stretch_Energy-OPLS-2005>
84.2968826293945

> <r_mmod_Bend_Energy-OPLS-2005>
183.398498535156

> <r_mmod_Torsional_Energy-OPLS-2005>
260.792907714844

> <r_mmod_Improper_Torsional_Energy-OPLS-2005>
6.41713571548462

> <r_mmod_Van_der_Waal_Energy-OPLS-2005>
154.153091430664

> <r_mmod_Electrostatic_Energy-OPLS-2005>
-353.658111572266

> <r_mmod_Solvation_Energy-OPLS-2005>
-206.027709960938

> <b_mmod_Minimization_Converged-OPLS-2005>
0

> <r_mmod_RMS_Derivative-OPLS-2005>
1.98150372505188

$$$$
90
                    3D
 Structure written by MMmdl.
175184  0  0  1  0            999 V2000
  -30.7337  -14.6061   20.5241 C   0  0  0  0  0  0
  -30.3779  -12.3629   19.4987 C   0  0  0  0  0  0
  -29.4949  -12.4808   18.2446 C   0  0  0  0  0  0
  -28.0189  -12.3079   18.6442 C   0  0  0  0  0  0
  -27.6272  -13.2129   19.8418 C   0  0  2  0  0  0
  -28.6600  -13.1399   20.9867 C   0  0  0  0  0  0
  -25.2449  -13.8083   20.5649 C   0  0  0  0  0  0
  -24.1727  -13.0415   20.9209 C   0  0  0  0  0  0
  -24.6255  -11.6858   20.8686 C   0  0  0  0  0  0
  -23.8943  -10.4291   21.0343 C   0  0  0  0  0  0
  -24.3531   -9.4246   21.9134 C   0  0  0  0  0  0
  -23.6265   -8.2257   22.0705 C   0  0  0  0  0  0
  -22.4250   -8.0229   21.3504 C   0  0  0  0  0  0
  -21.9844   -9.0210   20.4607 C   0  0  0  0  0  0
  -22.7105  -10.2123   20.3034 C   0  0  0  0  0  0
  -21.6860   -6.0693   22.5269 C   0  0  0  0  0  0
  -21.4025   -6.5618   23.8193 C   0  0  0  0  0  0
  -21.3670   -5.6795   24.9179 C   0  0  0  0  0  0
  -21.6010   -4.3051   24.7239 C   0  0  0  0  0  0
  -21.8827   -3.8124   23.4380 C   0  0  0  0  0  0
  -21.9209   -4.6924   22.3411 C   0  0  0  0  0  0
  -22.7790  -13.5253   21.1926 C   0  0  0  0  0  0
  -22.1673   -4.2066   21.1007 F   0  0  0  0  0  0
  -21.5613   -3.4544   25.7770 F   0  0  0  0  0  0
  -29.9814  -13.4508   20.4361 N   0  0  0  0  0  0
  -26.2816  -12.9256   20.3190 N   0  0  0  0  0  0
  -25.9172  -11.6419   20.5679 N   0  0  0  0  0  0
  -22.0424  -12.8224   22.0434 N   0  0  0  0  0  0
  -25.4299  -15.1773   20.3909 N   0  0  0  0  0  0
  -31.8586  -14.5780   20.0174 O   0  0  0  0  0  0
  -21.6650   -6.8810   21.4211 O   0  0  0  0  0  0
  -22.3549  -14.5644   20.6848 O   0  0  0  0  0  0
  -24.6309  -31.8619   23.2099 C   0  0  0  0  0  0
  -25.9162  -32.4808   23.8412 C   0  0  1  0  0  0
  -27.1874  -27.3053   20.1190 C   0  0  0  0  0  0
  -25.5988  -33.8613   24.2344 N   0  0  0  0  0  0
  -23.4231  -30.4990   21.5531 C   0  0  2  0  0  0
  -24.8589  -28.9649   20.1095 C   0  0  0  0  0  0
  -22.7504  -29.4674   22.4914 C   0  0  0  0  0  0
  -18.0329  -28.1328   22.8377 C   0  0  0  0  0  0
  -24.1529  -36.7341   23.2623 C   0  0  0  0  0  0
  -25.9650  -30.8023   21.3715 C   0  0  0  0  0  0
  -26.0331  -29.4296   20.7112 C   0  0  0  0  0  0
  -27.2022  -28.6114   20.7100 C   0  0  0  0  0  0
  -25.9769  -26.8931   19.5184 C   0  0  0  0  0  0
  -24.8321  -27.7030   19.5118 C   0  0  0  0  0  0
  -23.6342  -29.8514   20.1640 C   0  0  0  0  0  0
  -25.4141  -36.3101   24.0309 C   0  0  1  0  0  0
  -20.5914  -28.3722   23.1246 C   0  0  2  0  0  0
  -20.6887  -26.9419   22.5418 C   0  0  0  0  0  0
  -19.5905  -26.6351   21.5163 C   0  0  0  0  0  0
  -18.2015  -26.7901   22.1494 C   0  0  0  0  0  0
  -19.1546  -28.8832   23.2796 C   0  0  0  0  0  0
  -18.9426  -30.1417   23.8831 C   0  0  0  0  0  0
  -17.6403  -30.6519   24.0512 C   0  0  0  0  0  0
  -25.9065  -34.9472   23.5115 C   0  0  0  0  0  0
  -16.5317  -29.8956   23.6306 C   0  0  0  0  0  0
  -16.7297  -28.6423   23.0226 C   0  0  0  0  0  0
  -26.4584  -31.6584   25.0728 C   0  0  0  0  0  0
  -25.3831  -31.3718   26.1451 C   0  0  0  0  0  0
  -27.0410  -30.3001   24.6138 C   0  0  0  0  0  0
  -27.6140  -32.4309   25.7484 C   0  0  0  0  0  0
  -27.5593  -37.1842   24.8440 C   0  0  0  0  0  0
  -21.4216  -29.3090   22.3653 N   0  0  0  0  0  0
  -26.4305  -37.3787   23.9379 N   0  0  0  0  0  0
  -24.6942  -31.0655   22.1056 N   0  0  0  0  0  0
  -23.4263  -28.8093   23.2892 O   0  0  0  0  0  0
  -28.2932  -26.4410   20.1948 O   0  0  0  0  0  0
  -26.5585  -34.8935   22.4645 O   0  0  0  0  0  0
  -23.5466  -32.1376   23.7456 O   0  0  0  0  0  0
  -27.4174  -22.7375   20.4761 C   0  0  0  0  0  0
  -29.7377  -22.9399   19.5416 C   0  0  0  0  0  0
  -27.7485  -21.2559   20.9442 C   0  0  0  0  0  0
  -30.0460  -21.4889   20.0102 C   0  0  0  0  0  0
  -28.6280  -16.2198   22.9309 C   0  0  0  0  0  0
  -28.9250  -17.5399   23.6763 C   0  0  0  0  0  0
  -28.6321  -23.7299   20.3092 C   0  0  1  0  0  0
  -28.8115  -20.5505   20.0423 C   0  0  1  0  0  0
  -29.0232  -16.4389   21.4511 C   0  0  2  0  0  0
  -28.7630  -18.0366   21.3488 C   0  0  2  0  0  0
  -32.3274  -17.3648   20.8499 C   0  0  0  0  0  0
  -28.8368  -18.2784   18.8124 C   0  0  0  0  0  0
  -28.3172  -25.1110   19.5396 C   0  0  0  0  0  0
  -31.5189  -16.4782   21.8255 C   0  0  0  0  0  0
  -29.2063  -18.9718   20.1399 C   0  0  1  0  0  0
  -30.3677  -15.7653   21.2142 N   0  0  0  0  0  0
  -29.1810  -18.5733   22.6540 N   0  3  0  0  0  0
  -31.4362  -12.3667   19.2342 H   0  0  0  0  0  0
  -30.2312  -11.3843   19.9656 H   0  0  0  0  0  0
  -29.7733  -11.7322   17.5016 H   0  0  0  0  0  0
  -29.6420  -13.4568   17.7776 H   0  0  0  0  0  0
  -27.8652  -11.2622   18.9022 H   0  0  0  0  0  0
  -27.3734  -12.4945   17.7831 H   0  0  0  0  0  0
  -27.6240  -14.2281   19.4435 H   0  0  0  0  0  0
  -28.6588  -12.1386   21.4205 H   0  0  0  0  0  0
  -28.3962  -13.8093   21.7976 H   0  0  0  0  0  0
  -25.2625   -9.5826   22.4749 H   0  0  0  0  0  0
  -23.9956   -7.4679   22.7455 H   0  0  0  0  0  0
  -21.0770   -8.8776   19.8922 H   0  0  0  0  0  0
  -22.3500  -10.9706   19.6232 H   0  0  0  0  0  0
  -21.2040   -7.6136   23.9683 H   0  0  0  0  0  0
  -21.1475   -6.0527   25.9072 H   0  0  0  0  0  0
  -22.0600   -2.7577   23.2928 H   0  0  0  0  0  0
  -22.4066  -11.9806   22.4667 H   0  0  0  0  0  0
  -21.1071  -13.1242   22.2843 H   0  0  0  0  0  0
  -24.6427  -15.8114   20.4262 H   0  0  0  0  0  0
  -26.1963  -15.5305   19.8353 H   0  0  0  0  0  0
  -26.7216  -32.5524   23.1156 H   0  0  0  0  0  0
  -25.0287  -33.9783   25.0594 H   0  0  0  0  0  0
  -22.7172  -31.3221   21.4177 H   0  0  0  0  0  0
  -23.3757  -35.9700   23.3257 H   0  0  0  0  0  0
  -24.3635  -36.8991   22.2039 H   0  0  0  0  0  0
  -23.7321  -37.6565   23.6652 H   0  0  0  0  0  0
  -26.0822  -31.5695   20.6058 H   0  0  0  0  0  0
  -26.8509  -30.8637   21.9909 H   0  0  0  0  0  0
  -28.0982  -28.9648   21.2047 H   0  0  0  0  0  0
  -25.8310  -25.9210   19.0847 H   0  0  0  0  0  0
  -23.9156  -27.3328   19.0664 H   0  0  0  0  0  0
  -23.7683  -30.6345   19.4183 H   0  0  0  0  0  0
  -22.7491  -29.2964   19.8542 H   0  0  0  0  0  0
  -25.1327  -36.1976   25.0791 H   0  0  0  0  0  0
  -20.9987  -28.3378   24.1342 H   0  0  0  0  0  0
  -20.5842  -26.2292   23.3614 H   0  0  0  0  0  0
  -21.6772  -26.7546   22.1198 H   0  0  0  0  0  0
  -19.7152  -25.6244   21.1237 H   0  0  0  0  0  0
  -19.6877  -27.3180   20.6709 H   0  0  0  0  0  0
  -17.4411  -26.6665   21.3750 H   0  0  0  0  0  0
  -18.0326  -25.9982   22.8782 H   0  0  0  0  0  0
  -19.7859  -30.7230   24.2214 H   0  0  0  0  0  0
  -17.4899  -31.6173   24.5128 H   0  0  0  0  0  0
  -15.5277  -30.2752   23.7687 H   0  0  0  0  0  0
  -15.8726  -28.0729   22.6876 H   0  0  0  0  0  0
  -24.5954  -30.7129   25.7781 H   0  0  0  0  0  0
  -24.9101  -32.2913   26.4901 H   0  0  0  0  0  0
  -25.8153  -30.8852   27.0209 H   0  0  0  0  0  0
  -26.2984  -29.6752   24.1147 H   0  0  0  0  0  0
  -27.4128  -29.7226   25.4632 H   0  0  0  0  0  0
  -27.8860  -30.4295   23.9356 H   0  0  0  0  0  0
  -27.2713  -33.3565   26.2131 H   0  0  0  0  0  0
  -28.3906  -32.6959   25.0283 H   0  0  0  0  0  0
  -28.0887  -31.8419   26.5355 H   0  0  0  0  0  0
  -28.2588  -38.0169   24.7460 H   0  0  0  0  0  0
  -28.1123  -36.2680   24.6284 H   0  0  0  0  0  0
  -27.2292  -37.1490   25.8845 H   0  0  0  0  0  0
  -20.9419  -29.8796   21.6861 H   0  0  0  0  0  0
  -26.0188  -38.2865   24.1359 H   0  0  0  0  0  0
  -26.6853  -23.1750   21.1622 H   0  0  0  0  0  0
  -26.8896  -22.6689   19.5278 H   0  0  0  0  0  0
  -29.4548  -22.8922   18.4896 H   0  0  0  0  0  0
  -30.6688  -23.5107   19.5645 H   0  0  0  0  0  0
  -26.8217  -20.6790   20.9172 H   0  0  0  0  0  0
  -28.0520  -21.2622   21.9896 H   0  0  0  0  0  0
  -30.5386  -21.5064   20.9858 H   0  0  0  0  0  0
  -30.7757  -21.0817   19.3036 H   0  0  0  0  0  0
  -27.5576  -16.0179   23.0014 H   0  0  0  0  0  0
  -29.1402  -15.3730   23.3915 H   0  0  0  0  0  0
  -29.7903  -17.4526   24.3385 H   0  0  0  0  0  0
  -28.0871  -17.8473   24.3016 H   0  0  0  0  0  0
  -29.0148  -23.9614   21.3037 H   0  0  0  0  0  0
  -28.3721  -20.6658   19.0524 H   0  0  0  0  0  0
  -28.2986  -15.9366   20.8136 H   0  0  0  0  0  0
  -27.6727  -18.1224   21.3661 H   0  0  0  0  0  0
  -33.3917  -17.2403   21.0308 H   0  0  0  0  0  0
  -32.1430  -17.1366   19.7964 H   0  0  0  0  0  0
  -32.1229  -18.4175   21.0140 H   0  0  0  0  0  0
  -29.1856  -18.8513   17.9527 H   0  0  0  0  0  0
  -27.7543  -18.1742   18.7147 H   0  0  0  0  0  0
  -29.2880  -17.2857   18.7196 H   0  0  0  0  0  0
  -27.4948  -24.9211   18.8562 H   0  0  0  0  0  0
  -29.1297  -25.2587   18.8257 H   0  0  0  0  0  0
  -32.1812  -15.7319   22.2737 H   0  0  0  0  0  0
  -31.2544  -17.0766   22.6857 H   0  0  0  0  0  0
  -30.2872  -18.9746   20.1723 H   0  0  0  0  0  0
  -30.1697  -18.7675   22.6326 H   0  0  0  0  0  0
  -28.7007  -19.4286   22.8802 H   0  0  0  0  0  0
  1 25  1  0  0  0
  1 30  2  0  0  0
  1 86  1  0  0  0
  2  3  1  0  0  0
  2 25  1  0  0  0
  2 88  1  0  0  0
  2 89  1  0  0  0
  3  4  1  0  0  0
  3 90  1  0  0  0
  3 91  1  0  0  0
  4  5  1  0  0  0
  4 92  1  0  0  0
  4 93  1  0  0  0
  5  6  1  0  0  0
  5 26  1  0  0  0
  5 94  1  0  0  0
  6 25  1  0  0  0
  6 95  1  0  0  0
  6 96  1  0  0  0
  7  8  2  0  0  0
  7 26  1  0  0  0
  7 29  1  0  0  0
  8  9  1  0  0  0
  8 22  1  0  0  0
  9 10  1  0  0  0
  9 27  2  0  0  0
 10 11  2  0  0  0
 10 15  1  0  0  0
 11 12  1  0  0  0
 11 97  1  0  0  0
 12 13  2  0  0  0
 12 98  1  0  0  0
 13 14  1  0  0  0
 13 31  1  0  0  0
 14 15  2  0  0  0
 14 99  1  0  0  0
 15100  1  0  0  0
 16 17  2  0  0  0
 16 21  1  0  0  0
 16 31  1  0  0  0
 17 18  1  0  0  0
 17101  1  0  0  0
 18 19  2  0  0  0
 18102  1  0  0  0
 19 20  1  0  0  0
 19 24  1  0  0  0
 20 21  2  0  0  0
 20103  1  0  0  0
 21 23  1  0  0  0
 22 28  1  0  0  0
 22 32  2  0  0  0
 26 27  1  0  0  0
 28104  1  0  0  0
 28105  1  0  0  0
 29106  1  0  0  0
 29107  1  0  0  0
 33 34  1  0  0  0
 33 66  1  0  0  0
 33 70  2  0  0  0
 34 36  1  0  0  0
 34 59  1  0  0  0
 34108  1  0  0  0
 35 44  2  0  0  0
 35 45  1  0  0  0
 35 68  1  0  0  0
 36 56  1  0  0  0
 36109  1  0  0  0
 37 39  1  0  0  0
 37 47  1  0  0  0
 37 66  1  0  0  0
 37110  1  0  0  0
 38 43  2  0  0  0
 38 46  1  0  0  0
 38 47  1  0  0  0
 39 64  1  0  0  0
 39 67  2  0  0  0
 40 52  1  0  0  0
 40 53  2  0  0  0
 40 58  1  0  0  0
 41111  1  0  0  0
 41112  1  0  0  0
 41113  1  0  0  0
 41 48  1  0  0  0
 42 43  1  0  0  0
 42 66  1  0  0  0
 42114  1  0  0  0
 42115  1  0  0  0
 43 44  1  0  0  0
 44116  1  0  0  0
 45 46  2  0  0  0
 45117  1  0  0  0
 46118  1  0  0  0
 47119  1  0  0  0
 47120  1  0  0  0
 48 56  1  0  0  0
 48 65  1  0  0  0
 48121  1  0  0  0
 49 50  1  0  0  0
 49 53  1  0  0  0
 49 64  1  0  0  0
 49122  1  0  0  0
 50 51  1  0  0  0
 50123  1  0  0  0
 50124  1  0  0  0
 51 52  1  0  0  0
 51125  1  0  0  0
 51126  1  0  0  0
 52127  1  0  0  0
 52128  1  0  0  0
 53 54  1  0  0  0
 54 55  2  0  0  0
 54129  1  0  0  0
 55 57  1  0  0  0
 55130  1  0  0  0
 56 69  2  0  0  0
 57 58  2  0  0  0
 57131  1  0  0  0
 58132  1  0  0  0
 59 60  1  0  0  0
 59 61  1  0  0  0
 59 62  1  0  0  0
 60133  1  0  0  0
 60134  1  0  0  0
 60135  1  0  0  0
 61136  1  0  0  0
 61137  1  0  0  0
 61138  1  0  0  0
 62139  1  0  0  0
 62140  1  0  0  0
 62141  1  0  0  0
 63 65  1  0  0  0
 63142  1  0  0  0
 63143  1  0  0  0
 63144  1  0  0  0
 64145  1  0  0  0
 65146  1  0  0  0
 68 83  1  0  0  0
 71 73  1  0  0  0
 71 77  1  0  0  0
 71147  1  0  0  0
 71148  1  0  0  0
 72 74  1  0  0  0
 72 77  1  0  0  0
 72149  1  0  0  0
 72150  1  0  0  0
 73151  1  0  0  0
 73152  1  0  0  0
 73 78  1  0  0  0
 74 78  1  0  0  0
 74153  1  0  0  0
 74154  1  0  0  0
 75 76  1  0  0  0
 75 79  1  0  0  0
 75155  1  0  0  0
 75156  1  0  0  0
 76 87  1  0  0  0
 76157  1  0  0  0
 76158  1  0  0  0
 77 83  1  0  0  0
 77159  1  0  0  0
 78 85  1  0  0  0
 78160  1  0  0  0
 79 80  1  0  0  0
 79 86  1  0  0  0
 79161  1  0  0  0
 80 85  1  0  0  0
 80 87  1  0  0  0
 80162  1  0  0  0
 81 84  1  0  0  0
 81163  1  0  0  0
 81164  1  0  0  0
 81165  1  0  0  0
 82166  1  0  0  0
 82167  1  0  0  0
 82168  1  0  0  0
 82 85  1  0  0  0
 83169  1  0  0  0
 83170  1  0  0  0
 84 86  1  0  0  0
 84171  1  0  0  0
 84172  1  0  0  0
 85173  1  0  0  0
 87174  1  0  0  0
 87175  1  0  0  0
M  CHG  1  87   1
M  ISO  4   1 100  68 101  83 101  86 100
M  END
> <chiral flag>
0

> <version>
0

> <s_m_source_file>
/data/baiqing/PycharmProjects/Reinvent-master-3.2/result/LINK_invent/BTK/process_docking_weight1_custom_sum_contain_oxygen_bond_distance_aromatic_linkinvent_7_9_3/rearranged_h_0139.sdf

> <i_m_source_file_index>
91

> <r_mmod_Potential_Energy-OPLS-2005>
426.8623046875

> <r_mmod_Stretch_Energy-OPLS-2005>
109.783592224121

> <r_mmod_Bend_Energy-OPLS-2005>
278.177703857422

> <r_mmod_Torsional_Energy-OPLS-2005>
450.809234619141

> <r_mmod_Improper_Torsional_Energy-OPLS-2005>
4.14283418655396

> <r_mmod_Van_der_Waal_Energy-OPLS-2005>
140.921356201172

> <r_mmod_Electrostatic_Energy-OPLS-2005>
-177.98551940918

> <r_mmod_Solvation_Energy-OPLS-2005>
-434.432434082031

> <b_mmod_Minimization_Converged-OPLS-2005>
0

> <r_mmod_RMS_Derivative-OPLS-2005>
8.70332050323486

$$$$
91
                    3D
 Structure written by MMmdl.
173182  0  0  1  0            999 V2000
  -30.6724  -14.4891   20.5268 C   0  0  0  0  0  0
  -30.4173  -12.3000   19.4434 C   0  0  0  0  0  0
  -29.4954  -12.4913   18.2203 C   0  0  0  0  0  0
  -28.0185  -12.3339   18.6326 C   0  0  0  0  0  0
  -27.6516  -13.1943   19.8706 C   0  0  2  0  0  0
  -28.6920  -13.0067   21.0002 C   0  0  0  0  0  0
  -25.2587  -13.8081   20.5849 C   0  0  0  0  0  0
  -24.1804  -13.0376   20.9258 C   0  0  0  0  0  0
  -24.6315  -11.6838   20.8717 C   0  0  0  0  0  0
  -23.8937  -10.4260   21.0357 C   0  0  0  0  0  0
  -24.3518   -9.4195   21.9136 C   0  0  0  0  0  0
  -23.6265   -8.2191   22.0695 C   0  0  0  0  0  0
  -22.4243   -8.0224   21.3481 C   0  0  0  0  0  0
  -21.9830   -9.0182   20.4591 C   0  0  0  0  0  0
  -22.7100  -10.2098   20.3012 C   0  0  0  0  0  0
  -21.6827   -6.0719   22.5279 C   0  0  0  0  0  0
  -21.4007   -6.5632   23.8212 C   0  0  0  0  0  0
  -21.3649   -5.6790   24.9178 C   0  0  0  0  0  0
  -21.6028   -4.3058   24.7229 C   0  0  0  0  0  0
  -21.8814   -3.8143   23.4357 C   0  0  0  0  0  0
  -21.9172   -4.6952   22.3400 C   0  0  0  0  0  0
  -22.7831  -13.5164   21.1954 C   0  0  0  0  0  0
  -22.1633   -4.2133   21.0985 F   0  0  0  0  0  0
  -21.5629   -3.4532   25.7743 F   0  0  0  0  0  0
  -30.0212  -13.3017   20.4400 N   0  0  0  0  0  0
  -26.2963  -12.9217   20.3359 N   0  0  0  0  0  0
  -25.9229  -11.6393   20.5705 N   0  0  0  0  0  0
  -22.0469  -12.8133   22.0519 N   0  0  0  0  0  0
  -25.4450  -15.1784   20.4530 N   0  0  0  0  0  0
  -31.8271  -14.6582   20.1266 O   0  0  0  0  0  0
  -21.6603   -6.8831   21.4221 O   0  0  0  0  0  0
  -22.3504  -14.5491   20.6846 O   0  0  0  0  0  0
  -24.6151  -31.8709   23.2043 C   0  0  0  0  0  0
  -25.9074  -32.4823   23.8334 C   0  0  1  0  0  0
  -27.2303  -27.4475   20.0786 C   0  0  0  0  0  0
  -25.5963  -33.8615   24.2299 N   0  0  0  0  0  0
  -23.3987  -30.4941   21.5452 C   0  0  2  0  0  0
  -24.8379  -28.9535   20.1173 C   0  0  0  0  0  0
  -22.7413  -29.4693   22.4972 C   0  0  0  0  0  0
  -18.0275  -28.1410   22.8489 C   0  0  0  0  0  0
  -24.1468  -36.7295   23.2628 C   0  0  0  0  0  0
  -25.9247  -30.8296   21.3592 C   0  0  0  0  0  0
  -25.9981  -29.4670   20.7069 C   0  0  0  0  0  0
  -27.1965  -28.7250   20.6833 C   0  0  0  0  0  0
  -26.0482  -26.9411   19.4909 C   0  0  0  0  0  0
  -24.8566  -27.6882   19.5061 C   0  0  0  0  0  0
  -23.6061  -29.8240   20.1618 C   0  0  0  0  0  0
  -25.4101  -36.3106   24.0331 C   0  0  1  0  0  0
  -20.5863  -28.3717   23.1283 C   0  0  2  0  0  0
  -20.6783  -26.9457   22.5406 C   0  0  0  0  0  0
  -19.5756  -26.6415   21.5211 C   0  0  0  0  0  0
  -18.1933  -26.7960   22.1613 C   0  0  0  0  0  0
  -19.1521  -28.8875   23.2891 C   0  0  0  0  0  0
  -18.9469  -30.1473   23.8917 C   0  0  0  0  0  0
  -17.6463  -30.6617   24.0580 C   0  0  0  0  0  0
  -25.9051  -34.9477   23.5082 C   0  0  0  0  0  0
  -16.5354  -29.9130   23.6336 C   0  0  0  0  0  0
  -16.7263  -28.6538   23.0366 C   0  0  0  0  0  0
  -26.4491  -31.6598   25.0666 C   0  0  0  0  0  0
  -25.3737  -31.3766   26.1396 C   0  0  0  0  0  0
  -27.0313  -30.3035   24.6080 C   0  0  0  0  0  0
  -27.6067  -32.4297   25.7458 C   0  0  0  0  0  0
  -27.5577  -37.1784   24.8465 C   0  0  0  0  0  0
  -21.4152  -29.3055   22.3699 N   0  0  0  0  0  0
  -26.4278  -37.3812   23.9420 N   0  0  0  0  0  0
  -24.6637  -31.0802   22.0937 N   0  0  0  0  0  0
  -23.4191  -28.8305   23.3079 O   0  0  0  0  0  0
  -28.4222  -26.7534   20.0779 O   0  0  0  0  0  0
  -26.5586  -34.8935   22.4640 O   0  0  0  0  0  0
  -23.5344  -32.1463   23.7455 O   0  0  0  0  0  0
  -29.7915  -20.7779   19.5391 C   0  0  0  0  0  0
  -29.3610  -22.1063   19.3430 C   0  0  0  0  0  0
  -27.3799  -21.2824   18.1975 C   0  0  0  0  0  0
  -28.1223  -17.7173   18.4278 C   0  0  0  0  0  0
  -27.7869  -19.9383   18.3740 C   0  0  0  0  0  0
  -27.2312  -18.6701   17.9962 C   0  0  0  0  0  0
  -29.0193  -19.7031   19.0474 C   0  0  0  0  0  0
  -28.1492  -22.3705   18.6583 C   0  0  0  0  0  0
  -27.1037  -18.5961   13.4883 C   0  0  0  0  0  0
  -25.0253  -17.4662   17.9773 C   0  0  0  0  0  0
  -27.0272  -18.9964   14.9661 C   0  0  0  0  0  0
  -26.1775  -18.0126   15.7865 C   0  0  0  0  0  0
  -30.4072  -17.6109   19.4993 C   0  0  0  0  0  0
  -30.2984  -16.9488   20.9012 C   0  0  0  0  0  0
  -28.4647  -24.7765   18.6061 C   0  0  0  0  0  0
  -28.3722  -25.3240   20.0470 C   0  0  0  0  0  0
  -25.9450  -18.4492   17.2462 C   0  0  2  0  0  0
  -29.2172  -18.3210   19.0381 N   0  0  0  0  0  0
  -29.9051  -15.5322   20.8913 N   0  0  0  0  0  0
  -27.6473  -23.6265   18.4003 O   0  0  0  0  0  0
  -31.4683  -12.3873   19.1649 H   0  0  0  0  0  0
  -30.3011  -11.2976   19.8583 H   0  0  0  0  0  0
  -29.7471  -11.7719   17.4386 H   0  0  0  0  0  0
  -29.6521  -13.4798   17.7870 H   0  0  0  0  0  0
  -27.8569  -11.2796   18.8643 H   0  0  0  0  0  0
  -27.3612  -12.5633   17.7904 H   0  0  0  0  0  0
  -27.6810  -14.2324   19.5452 H   0  0  0  0  0  0
  -28.6723  -11.9859   21.3829 H   0  0  0  0  0  0
  -28.4529  -13.6376   21.8573 H   0  0  0  0  0  0
  -25.2636   -9.5716   22.4718 H   0  0  0  0  0  0
  -24.0000   -7.4571   22.7377 H   0  0  0  0  0  0
  -21.0751   -8.8633   19.8902 H   0  0  0  0  0  0
  -22.3472  -10.9627   19.6154 H   0  0  0  0  0  0
  -21.2015   -7.6151   23.9715 H   0  0  0  0  0  0
  -21.1470   -6.0528   25.9080 H   0  0  0  0  0  0
  -22.0611   -2.7610   23.2858 H   0  0  0  0  0  0
  -22.4078  -11.9769   22.4870 H   0  0  0  0  0  0
  -21.1089  -13.1126   22.2753 H   0  0  0  0  0  0
  -24.6935  -15.8446   20.5858 H   0  0  0  0  0  0
  -26.3067  -15.6104   20.1502 H   0  0  0  0  0  0
  -26.7158  -32.5515   23.1100 H   0  0  0  0  0  0
  -25.0253  -33.9801   25.0536 H   0  0  0  0  0  0
  -22.6821  -31.3073   21.4096 H   0  0  0  0  0  0
  -23.3747  -35.9610   23.3303 H   0  0  0  0  0  0
  -24.3549  -36.8911   22.2042 H   0  0  0  0  0  0
  -23.7187  -37.6489   23.6617 H   0  0  0  0  0  0
  -26.0401  -31.5889   20.5848 H   0  0  0  0  0  0
  -26.8099  -30.8739   21.9814 H   0  0  0  0  0  0
  -28.0877  -29.1258   21.1405 H   0  0  0  0  0  0
  -26.0277  -25.9767   19.0030 H   0  0  0  0  0  0
  -23.9628  -27.2872   19.0453 H   0  0  0  0  0  0
  -23.7332  -30.5903   19.3965 H   0  0  0  0  0  0
  -22.7259  -29.2523   19.8636 H   0  0  0  0  0  0
  -25.1272  -36.1951   25.0825 H   0  0  0  0  0  0
  -20.9934  -28.3296   24.1411 H   0  0  0  0  0  0
  -20.5730  -26.2351   23.3612 H   0  0  0  0  0  0
  -21.6667  -26.7550   22.1187 H   0  0  0  0  0  0
  -19.6916  -25.6333   21.1244 H   0  0  0  0  0  0
  -19.6670  -27.3222   20.6737 H   0  0  0  0  0  0
  -17.4224  -26.6730   21.3997 H   0  0  0  0  0  0
  -18.0330  -26.0079   22.8993 H   0  0  0  0  0  0
  -19.7944  -30.7296   24.2293 H   0  0  0  0  0  0
  -17.5023  -31.6294   24.5217 H   0  0  0  0  0  0
  -15.5363  -30.3063   23.7616 H   0  0  0  0  0  0
  -15.8665  -28.0864   22.7077 H   0  0  0  0  0  0
  -24.5919  -30.7107   25.7729 H   0  0  0  0  0  0
  -24.8933  -32.2967   26.4722 H   0  0  0  0  0  0
  -25.8068  -30.9005   27.0209 H   0  0  0  0  0  0
  -26.2843  -29.6777   24.1184 H   0  0  0  0  0  0
  -27.4139  -29.7290   25.4528 H   0  0  0  0  0  0
  -27.8661  -30.4356   23.9186 H   0  0  0  0  0  0
  -27.2699  -33.3606   26.2032 H   0  0  0  0  0  0
  -28.3904  -32.6843   25.0305 H   0  0  0  0  0  0
  -28.0697  -31.8413   26.5388 H   0  0  0  0  0  0
  -28.2610  -38.0071   24.7560 H   0  0  0  0  0  0
  -28.1058  -36.2614   24.6233 H   0  0  0  0  0  0
  -27.2308  -37.1403   25.8871 H   0  0  0  0  0  0
  -20.9332  -29.8707   21.6847 H   0  0  0  0  0  0
  -26.0156  -38.2889   24.1442 H   0  0  0  0  0  0
  -30.7166  -20.5853   20.0593 H   0  0  0  0  0  0
  -29.9767  -22.9090   19.7254 H   0  0  0  0  0  0
  -26.4532  -21.4739   17.6742 H   0  0  0  0  0  0
  -28.0770  -16.6415   18.3166 H   0  0  0  0  0  0
  -27.6795  -19.3243   12.9154 H   0  0  0  0  0  0
  -26.1081  -18.5405   13.0462 H   0  0  0  0  0  0
  -27.5795  -17.6216   13.3690 H   0  0  0  0  0  0
  -24.7631  -17.8466   18.9647 H   0  0  0  0  0  0
  -25.4999  -16.4937   18.1044 H   0  0  0  0  0  0
  -24.0950  -17.3063   17.4316 H   0  0  0  0  0  0
  -26.6020  -19.9978   15.0451 H   0  0  0  0  0  0
  -28.0369  -19.0529   15.3778 H   0  0  0  0  0  0
  -26.6448  -17.0262   15.7616 H   0  0  0  0  0  0
  -25.2053  -17.9007   15.3009 H   0  0  0  0  0  0
  -30.6948  -16.8845   18.7362 H   0  0  0  0  0  0
  -31.2229  -18.3371   19.5196 H   0  0  0  0  0  0
  -29.6227  -17.5133   21.5460 H   0  0  0  0  0  0
  -31.2750  -17.0046   21.3846 H   0  0  0  0  0  0
  -29.4989  -24.6212   18.2994 H   0  0  0  0  0  0
  -28.0751  -25.5247   17.9162 H   0  0  0  0  0  0
  -29.2045  -24.9445   20.6415 H   0  0  0  0  0  0
  -27.4770  -24.9631   20.5554 H   0  0  0  0  0  0
  -25.4099  -19.3977   17.2113 H   0  0  0  0  0  0
  -28.9652  -15.3170   21.1904 H   0  0  0  0  0  0
  1 25  1  0  0  0
  1 30  2  0  0  0
  1 89  1  0  0  0
  2  3  1  0  0  0
  2 25  1  0  0  0
  2 91  1  0  0  0
  2 92  1  0  0  0
  3  4  1  0  0  0
  3 93  1  0  0  0
  3 94  1  0  0  0
  4  5  1  0  0  0
  4 95  1  0  0  0
  4 96  1  0  0  0
  5  6  1  0  0  0
  5 26  1  0  0  0
  5 97  1  0  0  0
  6 25  1  0  0  0
  6 98  1  0  0  0
  6 99  1  0  0  0
  7  8  2  0  0  0
  7 26  1  0  0  0
  7 29  1  0  0  0
  8  9  1  0  0  0
  8 22  1  0  0  0
  9 10  1  0  0  0
  9 27  2  0  0  0
 10 11  2  0  0  0
 10 15  1  0  0  0
 11 12  1  0  0  0
 11100  1  0  0  0
 12 13  2  0  0  0
 12101  1  0  0  0
 13 14  1  0  0  0
 13 31  1  0  0  0
 14 15  2  0  0  0
 14102  1  0  0  0
 15103  1  0  0  0
 16 17  2  0  0  0
 16 21  1  0  0  0
 16 31  1  0  0  0
 17 18  1  0  0  0
 17104  1  0  0  0
 18 19  2  0  0  0
 18105  1  0  0  0
 19 20  1  0  0  0
 19 24  1  0  0  0
 20 21  2  0  0  0
 20106  1  0  0  0
 21 23  1  0  0  0
 22 28  1  0  0  0
 22 32  2  0  0  0
 26 27  1  0  0  0
 28107  1  0  0  0
 28108  1  0  0  0
 29109  1  0  0  0
 29110  1  0  0  0
 33 34  1  0  0  0
 33 66  1  0  0  0
 33 70  2  0  0  0
 34 36  1  0  0  0
 34 59  1  0  0  0
 34111  1  0  0  0
 35 44  2  0  0  0
 35 45  1  0  0  0
 35 68  1  0  0  0
 36 56  1  0  0  0
 36112  1  0  0  0
 37 39  1  0  0  0
 37 47  1  0  0  0
 37 66  1  0  0  0
 37113  1  0  0  0
 38 43  2  0  0  0
 38 46  1  0  0  0
 38 47  1  0  0  0
 39 64  1  0  0  0
 39 67  2  0  0  0
 40 52  1  0  0  0
 40 53  2  0  0  0
 40 58  1  0  0  0
 41114  1  0  0  0
 41115  1  0  0  0
 41116  1  0  0  0
 41 48  1  0  0  0
 42 43  1  0  0  0
 42 66  1  0  0  0
 42117  1  0  0  0
 42118  1  0  0  0
 43 44  1  0  0  0
 44119  1  0  0  0
 45 46  2  0  0  0
 45120  1  0  0  0
 46121  1  0  0  0
 47122  1  0  0  0
 47123  1  0  0  0
 48 56  1  0  0  0
 48 65  1  0  0  0
 48124  1  0  0  0
 49 50  1  0  0  0
 49 53  1  0  0  0
 49 64  1  0  0  0
 49125  1  0  0  0
 50 51  1  0  0  0
 50126  1  0  0  0
 50127  1  0  0  0
 51 52  1  0  0  0
 51128  1  0  0  0
 51129  1  0  0  0
 52130  1  0  0  0
 52131  1  0  0  0
 53 54  1  0  0  0
 54 55  2  0  0  0
 54132  1  0  0  0
 55 57  1  0  0  0
 55133  1  0  0  0
 56 69  2  0  0  0
 57 58  2  0  0  0
 57134  1  0  0  0
 58135  1  0  0  0
 59 60  1  0  0  0
 59 61  1  0  0  0
 59 62  1  0  0  0
 60136  1  0  0  0
 60137  1  0  0  0
 60138  1  0  0  0
 61139  1  0  0  0
 61140  1  0  0  0
 61141  1  0  0  0
 62142  1  0  0  0
 62143  1  0  0  0
 62144  1  0  0  0
 63 65  1  0  0  0
 63145  1  0  0  0
 63146  1  0  0  0
 63147  1  0  0  0
 64148  1  0  0  0
 65149  1  0  0  0
 68 86  1  0  0  0
 71 72  2  0  0  0
 71 77  1  0  0  0
 71150  1  0  0  0
 72 78  1  0  0  0
 72151  1  0  0  0
 73 75  1  0  0  0
 73 78  2  0  0  0
 73152  1  0  0  0
 74 76  2  0  0  0
 74 88  1  0  0  0
 74153  1  0  0  0
 75 76  1  0  0  0
 75 77  2  0  0  0
 76 87  1  0  0  0
 77 88  1  0  0  0
 78 90  1  0  0  0
 79 81  1  0  0  0
 79154  1  0  0  0
 79155  1  0  0  0
 79156  1  0  0  0
 80157  1  0  0  0
 80158  1  0  0  0
 80159  1  0  0  0
 80 87  1  0  0  0
 81 82  1  0  0  0
 81160  1  0  0  0
 81161  1  0  0  0
 82 87  1  0  0  0
 82162  1  0  0  0
 82163  1  0  0  0
 83 84  1  0  0  0
 83 88  1  0  0  0
 83164  1  0  0  0
 83165  1  0  0  0
 84 89  1  0  0  0
 84166  1  0  0  0
 84167  1  0  0  0
 85 86  1  0  0  0
 85 90  1  0  0  0
 85168  1  0  0  0
 85169  1  0  0  0
 86170  1  0  0  0
 86171  1  0  0  0
 87172  1  0  0  0
 89173  1  0  0  0
M  ISO  4   1 100  68 101  86 101  89 100
M  END
> <chiral flag>
0

> <version>
0

> <s_m_source_file>
/data/baiqing/PycharmProjects/Reinvent-master-3.2/result/LINK_invent/BTK/process_docking_weight1_custom_sum_contain_oxygen_bond_distance_aromatic_linkinvent_7_9_3/rearranged_h_0139.sdf

> <i_m_source_file_index>
92

> <r_mmod_Potential_Energy-OPLS-2005>
-82.2564849853516

> <r_mmod_Stretch_Energy-OPLS-2005>
34.5464477539062

> <r_mmod_Bend_Energy-OPLS-2005>
112.994964599609

> <r_mmod_Torsional_Energy-OPLS-2005>
217.133422851562

> <r_mmod_Improper_Torsional_Energy-OPLS-2005>
4.60390853881836

> <r_mmod_Van_der_Waal_Energy-OPLS-2005>
137.772796630859

> <r_mmod_Electrostatic_Energy-OPLS-2005>
-400.200378417969

> <r_mmod_Solvation_Energy-OPLS-2005>
-205.494567871094

> <b_mmod_Minimization_Converged-OPLS-2005>
0

> <r_mmod_RMS_Derivative-OPLS-2005>
4.5170464515686

$$$$
92
                    3D
 Structure written by MMmdl.
169177  0  0  1  0            999 V2000
  -30.7030  -14.4388   20.4720 C   0  0  0  0  0  0
  -30.4070  -12.2575   19.4046 C   0  0  0  0  0  0
  -29.4908  -12.4931   18.1854 C   0  0  0  0  0  0
  -28.0109  -12.3612   18.5978 C   0  0  0  0  0  0
  -27.6579  -13.2067   19.8533 C   0  0  2  0  0  0
  -28.7047  -13.0045   20.9785 C   0  0  0  0  0  0
  -25.2582  -13.8162   20.5683 C   0  0  0  0  0  0
  -24.1851  -13.0416   20.9175 C   0  0  0  0  0  0
  -24.6396  -11.6898   20.8667 C   0  0  0  0  0  0
  -23.9085  -10.4272   21.0346 C   0  0  0  0  0  0
  -24.3630   -9.4192   21.9138 C   0  0  0  0  0  0
  -23.6309   -8.2234   22.0720 C   0  0  0  0  0  0
  -22.4278   -8.0266   21.3520 C   0  0  0  0  0  0
  -21.9925   -9.0237   20.4624 C   0  0  0  0  0  0
  -22.7243  -10.2111   20.3013 C   0  0  0  0  0  0
  -21.6868   -6.0731   22.5299 C   0  0  0  0  0  0
  -21.4018   -6.5642   23.8220 C   0  0  0  0  0  0
  -21.3645   -5.6787   24.9186 C   0  0  0  0  0  0
  -21.6050   -4.3057   24.7250 C   0  0  0  0  0  0
  -21.8821   -3.8144   23.4366 C   0  0  0  0  0  0
  -21.9196   -4.6967   22.3417 C   0  0  0  0  0  0
  -22.7861  -13.5219   21.1876 C   0  0  0  0  0  0
  -22.1660   -4.2143   21.0998 F   0  0  0  0  0  0
  -21.5624   -3.4545   25.7763 F   0  0  0  0  0  0
  -30.0392  -13.2578   20.4146 N   0  0  0  0  0  0
  -26.3006  -12.9345   20.3263 N   0  0  0  0  0  0
  -25.9320  -11.6493   20.5682 N   0  0  0  0  0  0
  -22.0523  -12.8164   22.0420 N   0  0  0  0  0  0
  -25.4306  -15.1879   20.4172 N   0  0  0  0  0  0
  -31.8816  -14.5749   20.1360 O   0  0  0  0  0  0
  -21.6633   -6.8864   21.4243 O   0  0  0  0  0  0
  -22.3558  -14.5527   20.6732 O   0  0  0  0  0  0
  -24.6090  -31.8757   23.2161 C   0  0  0  0  0  0
  -25.9027  -32.4857   23.8438 C   0  0  1  0  0  0
  -27.2091  -27.4760   20.0628 C   0  0  0  0  0  0
  -25.5922  -33.8659   24.2359 N   0  0  0  0  0  0
  -23.3907  -30.5061   21.5541 C   0  0  2  0  0  0
  -24.8243  -28.9850   20.1090 C   0  0  0  0  0  0
  -22.7374  -29.4736   22.4978 C   0  0  0  0  0  0
  -18.0270  -28.1337   22.8501 C   0  0  0  0  0  0
  -24.1478  -36.7326   23.2637 C   0  0  0  0  0  0
  -25.9176  -30.8499   21.3648 C   0  0  0  0  0  0
  -25.9863  -29.4922   20.7024 C   0  0  0  0  0  0
  -27.1802  -28.7430   20.6818 C   0  0  0  0  0  0
  -26.0261  -26.9847   19.4560 C   0  0  0  0  0  0
  -24.8374  -27.7269   19.4882 C   0  0  0  0  0  0
  -23.5911  -29.8521   20.1653 C   0  0  0  0  0  0
  -25.4106  -36.3130   24.0341 C   0  0  1  0  0  0
  -20.5854  -28.3636   23.1314 C   0  0  2  0  0  0
  -20.6765  -26.9379   22.5396 C   0  0  0  0  0  0
  -19.5754  -26.6358   21.5217 C   0  0  0  0  0  0
  -18.1925  -26.7891   22.1621 C   0  0  0  0  0  0
  -19.1527  -28.8803   23.2911 C   0  0  0  0  0  0
  -18.9479  -30.1412   23.8914 C   0  0  0  0  0  0
  -17.6490  -30.6559   24.0574 C   0  0  0  0  0  0
  -25.9048  -34.9507   23.5135 C   0  0  0  0  0  0
  -16.5365  -29.9075   23.6328 C   0  0  0  0  0  0
  -16.7265  -28.6487   23.0351 C   0  0  0  0  0  0
  -26.4444  -31.6624   25.0745 C   0  0  0  0  0  0
  -25.3724  -31.3766   26.1517 C   0  0  0  0  0  0
  -27.0230  -30.3045   24.6091 C   0  0  0  0  0  0
  -27.6011  -32.4323   25.7501 C   0  0  0  0  0  0
  -27.5578  -37.1823   24.8474 C   0  0  0  0  0  0
  -21.4102  -29.3046   22.3736 N   0  0  0  0  0  0
  -26.4289  -37.3821   23.9427 N   0  0  0  0  0  0
  -24.6573  -31.0918   22.1029 N   0  0  0  0  0  0
  -23.4191  -28.8263   23.2993 O   0  0  0  0  0  0
  -28.3905  -26.7754   20.0695 O   0  0  0  0  0  0
  -26.5599  -34.8963   22.4687 O   0  0  0  0  0  0
  -23.5322  -32.1475   23.7597 O   0  0  0  0  0  0
  -31.0544  -22.3580   18.6242 C   0  0  0  0  0  0
  -32.3629  -20.6092   19.9817 C   0  0  0  0  0  0
  -29.9721  -21.0844   20.4952 C   0  0  0  0  0  0
  -32.3344  -21.4983   18.7049 C   0  0  2  0  0  0
  -30.4068  -22.4769   20.0096 C   0  0  2  0  0  0
  -33.6037  -22.3660   18.6156 C   0  0  0  0  0  0
  -29.4638  -17.4442   22.6003 C   0  0  0  0  0  0
  -30.2452  -16.8720   20.1984 C   0  0  0  0  0  0
  -31.0294  -19.0116   21.3468 C   0  0  0  0  0  0
  -28.3191  -25.4160   19.6694 C   0  0  0  0  0  0
  -29.5681  -24.6764   20.1062 C   0  0  0  0  0  0
  -29.8756  -17.9812   21.2160 C   0  0  2  0  0  0
  -29.9086  -15.5067   20.6273 N   0  0  0  0  0  0
  -31.0180  -20.0379   20.2708 N   0  3  2  0  0  0
  -29.2640  -23.2999   19.9452 O   0  0  0  0  0  0
  -31.4578  -12.3140   19.1115 H   0  0  0  0  0  0
  -30.2575  -11.2484   19.7890 H   0  0  0  0  0  0
  -29.7269  -11.7850   17.3916 H   0  0  0  0  0  0
  -29.6719  -13.4812   17.7629 H   0  0  0  0  0  0
  -27.8120  -11.3080   18.8006 H   0  0  0  0  0  0
  -27.3679  -12.6363   17.7604 H   0  0  0  0  0  0
  -27.6916  -14.2471   19.5288 H   0  0  0  0  0  0
  -28.6621  -11.9865   21.3672 H   0  0  0  0  0  0
  -28.5036  -13.6605   21.8265 H   0  0  0  0  0  0
  -25.2768   -9.5713   22.4713 H   0  0  0  0  0  0
  -24.0029   -7.4655   22.7458 H   0  0  0  0  0  0
  -21.0837   -8.8741   19.8974 H   0  0  0  0  0  0
  -22.3656  -10.9634   19.6135 H   0  0  0  0  0  0
  -21.1990   -7.6146   23.9743 H   0  0  0  0  0  0
  -21.1473   -6.0502   25.9091 H   0  0  0  0  0  0
  -22.0606   -2.7614   23.2869 H   0  0  0  0  0  0
  -22.4141  -11.9813   22.4759 H   0  0  0  0  0  0
  -21.1151  -13.1187   22.2648 H   0  0  0  0  0  0
  -24.6711  -15.8422   20.5647 H   0  0  0  0  0  0
  -26.2836  -15.6364   20.1110 H   0  0  0  0  0  0
  -26.7110  -32.5569   23.1221 H   0  0  0  0  0  0
  -25.0122  -33.9848   25.0528 H   0  0  0  0  0  0
  -22.6797  -31.3256   21.4257 H   0  0  0  0  0  0
  -23.3754  -35.9666   23.3312 H   0  0  0  0  0  0
  -24.3598  -36.8910   22.2062 H   0  0  0  0  0  0
  -23.7209  -37.6529   23.6619 H   0  0  0  0  0  0
  -26.0362  -31.6235   20.6050 H   0  0  0  0  0  0
  -26.8057  -30.8888   21.9835 H   0  0  0  0  0  0
  -28.0742  -29.1364   21.1437 H   0  0  0  0  0  0
  -25.9910  -26.0358   18.9391 H   0  0  0  0  0  0
  -23.9445  -27.3319   19.0203 H   0  0  0  0  0  0
  -23.6978  -30.6330   19.4123 H   0  0  0  0  0  0
  -22.7141  -29.2720   19.8671 H   0  0  0  0  0  0
  -25.1269  -36.2032   25.0845 H   0  0  0  0  0  0
  -20.9956  -28.3178   24.1441 H   0  0  0  0  0  0
  -20.5655  -26.2271   23.3583 H   0  0  0  0  0  0
  -21.6652  -26.7424   22.1233 H   0  0  0  0  0  0
  -19.6927  -25.6289   21.1212 H   0  0  0  0  0  0
  -19.6670  -27.3204   20.6779 H   0  0  0  0  0  0
  -17.4202  -26.6672   21.3986 H   0  0  0  0  0  0
  -18.0297  -25.9986   22.8978 H   0  0  0  0  0  0
  -19.7963  -30.7205   24.2255 H   0  0  0  0  0  0
  -17.5066  -31.6240   24.5180 H   0  0  0  0  0  0
  -15.5379  -30.3014   23.7597 H   0  0  0  0  0  0
  -15.8670  -28.0819   22.7043 H   0  0  0  0  0  0
  -24.5962  -30.6982   25.7922 H   0  0  0  0  0  0
  -24.8834  -32.2917   26.4838 H   0  0  0  0  0  0
  -25.8119  -30.9089   27.0339 H   0  0  0  0  0  0
  -26.2750  -29.6886   24.1043 H   0  0  0  0  0  0
  -27.3871  -29.7193   25.4561 H   0  0  0  0  0  0
  -27.8661  -30.4348   23.9309 H   0  0  0  0  0  0
  -27.2615  -33.3648   26.2052 H   0  0  0  0  0  0
  -28.3818  -32.6846   25.0308 H   0  0  0  0  0  0
  -28.0660  -31.8452   26.5443 H   0  0  0  0  0  0
  -28.2602  -38.0105   24.7511 H   0  0  0  0  0  0
  -28.1039  -36.2635   24.6270 H   0  0  0  0  0  0
  -27.2308  -37.1453   25.8879 H   0  0  0  0  0  0
  -20.9216  -29.8807   21.7025 H   0  0  0  0  0  0
  -26.0183  -38.2911   24.1395 H   0  0  0  0  0  0
  -30.3344  -21.9010   17.9410 H   0  0  0  0  0  0
  -31.2662  -23.3373   18.1977 H   0  0  0  0  0  0
  -32.6956  -21.1903   20.8479 H   0  0  0  0  0  0
  -33.1120  -19.8265   19.8624 H   0  0  0  0  0  0
  -29.0672  -20.7765   19.9700 H   0  0  0  0  0  0
  -29.6950  -21.1631   21.5477 H   0  0  0  0  0  0
  -32.3319  -20.8385   17.8356 H   0  0  0  0  0  0
  -31.1172  -22.8922   20.7248 H   0  0  0  0  0  0
  -33.6954  -23.0179   19.4892 H   0  0  0  0  0  0
  -33.5963  -23.0062   17.7315 H   0  0  0  0  0  0
  -34.5024  -21.7504   18.5624 H   0  0  0  0  0  0
  -28.5907  -16.7930   22.5331 H   0  0  0  0  0  0
  -29.1915  -18.2568   23.2731 H   0  0  0  0  0  0
  -30.2765  -16.8868   23.0647 H   0  0  0  0  0  0
  -31.3012  -16.9359   19.9297 H   0  0  0  0  0  0
  -29.7173  -17.0672   19.2628 H   0  0  0  0  0  0
  -31.9840  -18.4870   21.3664 H   0  0  0  0  0  0
  -30.9822  -19.5223   22.3096 H   0  0  0  0  0  0
  -27.4696  -24.9294   20.1515 H   0  0  0  0  0  0
  -28.1940  -25.3335   18.5876 H   0  0  0  0  0  0
  -29.7943  -24.8929   21.1515 H   0  0  0  0  0  0
  -30.4201  -24.9972   19.5043 H   0  0  0  0  0  0
  -28.9925  -18.4998   20.8371 H   0  0  0  0  0  0
  -28.9417  -15.3165   20.8472 H   0  0  0  0  0  0
  -30.7669  -19.5688   19.4131 H   0  0  0  0  0  0
  1 25  1  0  0  0
  1 30  2  0  0  0
  1 83  1  0  0  0
  2  3  1  0  0  0
  2 25  1  0  0  0
  2 86  1  0  0  0
  2 87  1  0  0  0
  3  4  1  0  0  0
  3 88  1  0  0  0
  3 89  1  0  0  0
  4  5  1  0  0  0
  4 90  1  0  0  0
  4 91  1  0  0  0
  5  6  1  0  0  0
  5 26  1  0  0  0
  5 92  1  0  0  0
  6 25  1  0  0  0
  6 93  1  0  0  0
  6 94  1  0  0  0
  7  8  2  0  0  0
  7 26  1  0  0  0
  7 29  1  0  0  0
  8  9  1  0  0  0
  8 22  1  0  0  0
  9 10  1  0  0  0
  9 27  2  0  0  0
 10 11  2  0  0  0
 10 15  1  0  0  0
 11 12  1  0  0  0
 11 95  1  0  0  0
 12 13  2  0  0  0
 12 96  1  0  0  0
 13 14  1  0  0  0
 13 31  1  0  0  0
 14 15  2  0  0  0
 14 97  1  0  0  0
 15 98  1  0  0  0
 16 17  2  0  0  0
 16 21  1  0  0  0
 16 31  1  0  0  0
 17 18  1  0  0  0
 17 99  1  0  0  0
 18 19  2  0  0  0
 18100  1  0  0  0
 19 20  1  0  0  0
 19 24  1  0  0  0
 20 21  2  0  0  0
 20101  1  0  0  0
 21 23  1  0  0  0
 22 28  1  0  0  0
 22 32  2  0  0  0
 26 27  1  0  0  0
 28102  1  0  0  0
 28103  1  0  0  0
 29104  1  0  0  0
 29105  1  0  0  0
 33 34  1  0  0  0
 33 66  1  0  0  0
 33 70  2  0  0  0
 34 36  1  0  0  0
 34 59  1  0  0  0
 34106  1  0  0  0
 35 44  2  0  0  0
 35 45  1  0  0  0
 35 68  1  0  0  0
 36 56  1  0  0  0
 36107  1  0  0  0
 37 39  1  0  0  0
 37 47  1  0  0  0
 37 66  1  0  0  0
 37108  1  0  0  0
 38 43  2  0  0  0
 38 46  1  0  0  0
 38 47  1  0  0  0
 39 64  1  0  0  0
 39 67  2  0  0  0
 40 52  1  0  0  0
 40 53  2  0  0  0
 40 58  1  0  0  0
 41109  1  0  0  0
 41110  1  0  0  0
 41111  1  0  0  0
 41 48  1  0  0  0
 42 43  1  0  0  0
 42 66  1  0  0  0
 42112  1  0  0  0
 42113  1  0  0  0
 43 44  1  0  0  0
 44114  1  0  0  0
 45 46  2  0  0  0
 45115  1  0  0  0
 46116  1  0  0  0
 47117  1  0  0  0
 47118  1  0  0  0
 48 56  1  0  0  0
 48 65  1  0  0  0
 48119  1  0  0  0
 49 50  1  0  0  0
 49 53  1  0  0  0
 49 64  1  0  0  0
 49120  1  0  0  0
 50 51  1  0  0  0
 50121  1  0  0  0
 50122  1  0  0  0
 51 52  1  0  0  0
 51123  1  0  0  0
 51124  1  0  0  0
 52125  1  0  0  0
 52126  1  0  0  0
 53 54  1  0  0  0
 54 55  2  0  0  0
 54127  1  0  0  0
 55 57  1  0  0  0
 55128  1  0  0  0
 56 69  2  0  0  0
 57 58  2  0  0  0
 57129  1  0  0  0
 58130  1  0  0  0
 59 60  1  0  0  0
 59 61  1  0  0  0
 59 62  1  0  0  0
 60131  1  0  0  0
 60132  1  0  0  0
 60133  1  0  0  0
 61134  1  0  0  0
 61135  1  0  0  0
 61136  1  0  0  0
 62137  1  0  0  0
 62138  1  0  0  0
 62139  1  0  0  0
 63 65  1  0  0  0
 63140  1  0  0  0
 63141  1  0  0  0
 63142  1  0  0  0
 64143  1  0  0  0
 65144  1  0  0  0
 68 80  1  0  0  0
 71 74  1  0  0  0
 71 75  1  0  0  0
 71145  1  0  0  0
 71146  1  0  0  0
 72 74  1  0  0  0
 72 84  1  0  0  0
 72147  1  0  0  0
 72148  1  0  0  0
 73 75  1  0  0  0
 73 84  1  0  0  0
 73149  1  0  0  0
 73150  1  0  0  0
 74 76  1  0  0  0
 74151  1  0  0  0
 75 85  1  0  0  0
 75152  1  0  0  0
 76153  1  0  0  0
 76154  1  0  0  0
 76155  1  0  0  0
 77156  1  0  0  0
 77157  1  0  0  0
 77158  1  0  0  0
 77 82  1  0  0  0
 78 82  1  0  0  0
 78 83  1  0  0  0
 78159  1  0  0  0
 78160  1  0  0  0
 79 82  1  0  0  0
 79161  1  0  0  0
 79162  1  0  0  0
 79 84  1  0  0  0
 80 81  1  0  0  0
 80163  1  0  0  0
 80164  1  0  0  0
 81 85  1  0  0  0
 81165  1  0  0  0
 81166  1  0  0  0
 82167  1  0  0  0
 83168  1  0  0  0
 84169  1  0  0  0
M  CHG  1  84   1
M  ISO  4   1 100  68 101  80 101  83 100
M  END
> <chiral flag>
0

> <version>
0

> <s_m_source_file>
/data/baiqing/PycharmProjects/Reinvent-master-3.2/result/LINK_invent/BTK/process_docking_weight1_custom_sum_contain_oxygen_bond_distance_aromatic_linkinvent_7_9_3/rearranged_h_0139.sdf

> <i_m_source_file_index>
93

> <r_mmod_Potential_Energy-OPLS-2005>
-35.5178985595703

> <r_mmod_Stretch_Energy-OPLS-2005>
33.8064422607422

> <r_mmod_Bend_Energy-OPLS-2005>
98.3166351318359

> <r_mmod_Torsional_Energy-OPLS-2005>
291.561584472656

> <r_mmod_Improper_Torsional_Energy-OPLS-2005>
7.93007659912109

> <r_mmod_Van_der_Waal_Energy-OPLS-2005>
167.576873779297

> <r_mmod_Electrostatic_Energy-OPLS-2005>
-230.537216186523

> <r_mmod_Solvation_Energy-OPLS-2005>
-421.261535644531

> <b_mmod_Minimization_Converged-OPLS-2005>
0

> <r_mmod_RMS_Derivative-OPLS-2005>
5.52754497528076

$$$$
93
                    3D
 Structure written by MMmdl.
168177  0  0  1  0            999 V2000
  -30.6270  -14.5981   20.5489 C   0  0  0  0  0  0
  -30.4387  -12.3759   19.4426 C   0  0  0  0  0  0
  -29.5090  -12.5160   18.2174 C   0  0  0  0  0  0
  -28.0306  -12.3522   18.6267 C   0  0  0  0  0  0
  -27.6571  -13.2103   19.8656 C   0  0  2  0  0  0
  -28.6998  -13.0328   20.9926 C   0  0  0  0  0  0
  -25.2554  -13.8127   20.5611 C   0  0  0  0  0  0
  -24.1826  -13.0418   20.9173 C   0  0  0  0  0  0
  -24.6391  -11.6893   20.8734 C   0  0  0  0  0  0
  -23.9053  -10.4282   21.0407 C   0  0  0  0  0  0
  -24.3608   -9.4204   21.9188 C   0  0  0  0  0  0
  -23.6285   -8.2236   22.0755 C   0  0  0  0  0  0
  -22.4268   -8.0272   21.3550 C   0  0  0  0  0  0
  -21.9904   -9.0241   20.4651 C   0  0  0  0  0  0
  -22.7231  -10.2120   20.3053 C   0  0  0  0  0  0
  -21.6854   -6.0731   22.5279 C   0  0  0  0  0  0
  -21.4017   -6.5635   23.8212 C   0  0  0  0  0  0
  -21.3658   -5.6787   24.9177 C   0  0  0  0  0  0
  -21.6042   -4.3053   24.7227 C   0  0  0  0  0  0
  -21.8819   -3.8146   23.4351 C   0  0  0  0  0  0
  -21.9194   -4.6961   22.3405 C   0  0  0  0  0  0
  -22.7845  -13.5230   21.1837 C   0  0  0  0  0  0
  -22.1660   -4.2148   21.0983 F   0  0  0  0  0  0
  -21.5625   -3.4533   25.7742 F   0  0  0  0  0  0
  -30.0166  -13.3781   20.4397 N   0  0  0  0  0  0
  -26.3007  -12.9314   20.3304 N   0  0  0  0  0  0
  -25.9321  -11.6481   20.5753 N   0  0  0  0  0  0
  -22.0477  -12.8237   22.0403 N   0  0  0  0  0  0
  -25.4217  -15.1822   20.3908 N   0  0  0  0  0  0
  -31.7598  -14.7771   20.0901 O   0  0  0  0  0  0
  -21.6630   -6.8871   21.4243 O   0  0  0  0  0  0
  -22.3537  -14.5529   20.6679 O   0  0  0  0  0  0
  -24.6189  -31.8639   23.2019 C   0  0  0  0  0  0
  -25.9050  -32.4806   23.8346 C   0  0  1  0  0  0
  -27.2338  -27.3612   20.1074 C   0  0  0  0  0  0
  -25.5874  -33.8603   24.2276 N   0  0  0  0  0  0
  -23.4094  -30.4842   21.5445 C   0  0  2  0  0  0
  -24.8549  -28.9307   20.1192 C   0  0  0  0  0  0
  -22.7426  -29.4655   22.4963 C   0  0  0  0  0  0
  -18.0275  -28.1393   22.8500 C   0  0  0  0  0  0
  -24.1475  -36.7287   23.2644 C   0  0  0  0  0  0
  -25.9448  -30.8039   21.3655 C   0  0  0  0  0  0
  -26.0184  -29.4293   20.7179 C   0  0  0  0  0  0
  -27.2075  -28.6532   20.7049 C   0  0  0  0  0  0
  -26.0461  -26.8894   19.5074 C   0  0  0  0  0  0
  -24.8669  -27.6623   19.5116 C   0  0  0  0  0  0
  -23.6205  -29.8080   20.1632 C   0  0  0  0  0  0
  -25.4103  -36.3103   24.0341 C   0  0  1  0  0  0
  -20.5867  -28.3682   23.1306 C   0  0  2  0  0  0
  -20.6750  -26.9413   22.5420 C   0  0  0  0  0  0
  -19.5732  -26.6404   21.5211 C   0  0  0  0  0  0
  -18.1915  -26.7945   22.1628 C   0  0  0  0  0  0
  -19.1529  -28.8852   23.2903 C   0  0  0  0  0  0
  -18.9460  -30.1451   23.8929 C   0  0  0  0  0  0
  -17.6474  -30.6609   24.0574 C   0  0  0  0  0  0
  -25.9043  -34.9474   23.5115 C   0  0  0  0  0  0
  -16.5360  -29.9113   23.6336 C   0  0  0  0  0  0
  -16.7272  -28.6517   23.0377 C   0  0  0  0  0  0
  -26.4440  -31.6621   25.0715 C   0  0  0  0  0  0
  -25.3667  -31.3755   26.1444 C   0  0  0  0  0  0
  -27.0279  -30.3057   24.6145 C   0  0  0  0  0  0
  -27.6017  -32.4349   25.7471 C   0  0  0  0  0  0
  -27.5584  -37.1790   24.8464 C   0  0  0  0  0  0
  -21.4149  -29.3048   22.3707 N   0  0  0  0  0  0
  -26.4281  -37.3802   23.9431 N   0  0  0  0  0  0
  -24.6760  -31.0679   22.0947 N   0  0  0  0  0  0
  -23.4168  -28.8210   23.3043 O   0  0  0  0  0  0
  -28.4156  -26.6261   20.0650 O   0  0  0  0  0  0
  -26.5647  -34.8939   22.4707 O   0  0  0  0  0  0
  -23.5367  -32.1434   23.7370 O   0  0  0  0  0  0
  -29.2804  -23.1652   21.2354 C   0  0  0  0  0  0
  -28.2804  -24.4262   18.9501 C   0  0  0  0  0  0
  -28.9754  -24.5571   21.2552 C   0  0  0  0  0  0
  -29.0970  -22.3682   20.0743 C   0  0  0  0  0  0
  -28.4912  -25.2242   20.1015 C   0  0  0  0  0  0
  -28.5529  -23.0185   18.9301 C   0  0  0  0  0  0
  -29.3174  -19.9679   21.2425 C   0  0  1  0  0  0
  -28.1565  -18.9985   21.2167 C   0  0  1  0  0  0
  -29.5344  -18.4304   21.4775 C   0  0  1  0  0  0
  -29.2204  -25.3585   22.5193 C   0  0  0  0  0  0
  -26.1273  -17.9165   22.2805 C   0  0  0  0  0  0
  -27.5560  -22.7649   16.7528 C   0  0  0  0  0  0
  -29.5721  -20.8691   20.0082 C   0  0  0  0  0  0
  -29.8731  -15.8336   21.1772 C   0  0  0  0  0  0
  -27.1096  -19.0882   22.3078 C   0  0  0  0  0  0
  -30.1223  -17.2903   20.5914 C   0  0  0  0  0  0
  -28.3534  -22.2411   17.8086 O   0  0  0  0  0  0
  -31.4809  -12.4984   19.1450 H   0  0  0  0  0  0
  -30.3663  -11.3722   19.8643 H   0  0  0  0  0  0
  -29.7729  -11.7798   17.4571 H   0  0  0  0  0  0
  -29.6549  -13.4944   17.7580 H   0  0  0  0  0  0
  -27.8658  -11.2969   18.8471 H   0  0  0  0  0  0
  -27.3768  -12.5925   17.7879 H   0  0  0  0  0  0
  -27.6859  -14.2510   19.5431 H   0  0  0  0  0  0
  -28.7052  -12.0002   21.3451 H   0  0  0  0  0  0
  -28.4479  -13.6333   21.8669 H   0  0  0  0  0  0
  -25.2752   -9.5683   22.4760 H   0  0  0  0  0  0
  -23.9999   -7.4632   22.7479 H   0  0  0  0  0  0
  -21.0838   -8.8767   19.8959 H   0  0  0  0  0  0
  -22.3702  -10.9653   19.6151 H   0  0  0  0  0  0
  -21.2009   -7.6143   23.9719 H   0  0  0  0  0  0
  -21.1475   -6.0517   25.9079 H   0  0  0  0  0  0
  -22.0600   -2.7610   23.2848 H   0  0  0  0  0  0
  -22.4070  -11.9890   22.4797 H   0  0  0  0  0  0
  -21.1092  -13.1277   22.2586 H   0  0  0  0  0  0
  -24.6542  -15.8333   20.5076 H   0  0  0  0  0  0
  -26.2769  -15.6265   20.0829 H   0  0  0  0  0  0
  -26.7111  -32.5484   23.1094 H   0  0  0  0  0  0
  -24.9951  -33.9745   25.0369 H   0  0  0  0  0  0
  -22.7024  -31.3038   21.3981 H   0  0  0  0  0  0
  -23.3761  -35.9594   23.3305 H   0  0  0  0  0  0
  -24.3568  -36.8913   22.2059 H   0  0  0  0  0  0
  -23.7193  -37.6472   23.6664 H   0  0  0  0  0  0
  -26.0704  -31.5630   20.5917 H   0  0  0  0  0  0
  -26.8278  -30.8577   21.9902 H   0  0  0  0  0  0
  -28.1091  -29.0397   21.1587 H   0  0  0  0  0  0
  -26.0218  -25.9211   19.0321 H   0  0  0  0  0  0
  -23.9718  -27.2719   19.0456 H   0  0  0  0  0  0
  -23.7319  -30.5768   19.3979 H   0  0  0  0  0  0
  -22.7416  -29.2321   19.8694 H   0  0  0  0  0  0
  -25.1278  -36.1958   25.0834 H   0  0  0  0  0  0
  -20.9990  -28.3264   24.1414 H   0  0  0  0  0  0
  -20.5639  -26.2306   23.3617 H   0  0  0  0  0  0
  -21.6619  -26.7447   22.1223 H   0  0  0  0  0  0
  -19.6890  -25.6317   21.1231 H   0  0  0  0  0  0
  -19.6662  -27.3210   20.6735 H   0  0  0  0  0  0
  -17.4180  -26.6716   21.4030 H   0  0  0  0  0  0
  -18.0315  -26.0082   22.9025 H   0  0  0  0  0  0
  -19.7939  -30.7246   24.2340 H   0  0  0  0  0  0
  -17.5034  -31.6296   24.5160 H   0  0  0  0  0  0
  -15.5358  -30.3037   23.7637 H   0  0  0  0  0  0
  -15.8665  -28.0831   22.7121 H   0  0  0  0  0  0
  -24.5828  -30.7125   25.7770 H   0  0  0  0  0  0
  -24.8851  -32.2913   26.4884 H   0  0  0  0  0  0
  -25.7978  -30.8917   27.0217 H   0  0  0  0  0  0
  -26.2845  -29.6831   24.1153 H   0  0  0  0  0  0
  -27.3979  -29.7308   25.4646 H   0  0  0  0  0  0
  -27.8710  -30.4386   23.9360 H   0  0  0  0  0  0
  -27.2652  -33.3669   26.2030 H   0  0  0  0  0  0
  -28.3813  -32.6886   25.0273 H   0  0  0  0  0  0
  -28.0686  -31.8478   26.5390 H   0  0  0  0  0  0
  -28.2589  -38.0105   24.7575 H   0  0  0  0  0  0
  -28.1094  -36.2649   24.6207 H   0  0  0  0  0  0
  -27.2319  -37.1346   25.8869 H   0  0  0  0  0  0
  -20.9329  -29.8755   21.6894 H   0  0  0  0  0  0
  -26.0169  -38.2874   24.1466 H   0  0  0  0  0  0
  -29.7039  -22.7186   22.1228 H   0  0  0  0  0  0
  -27.9494  -24.9336   18.0566 H   0  0  0  0  0  0
  -29.4752  -20.5171   22.1673 H   0  0  0  0  0  0
  -27.7343  -18.8080   20.2305 H   0  0  0  0  0  0
  -29.7680  -18.2285   22.5217 H   0  0  0  0  0  0
  -29.4830  -24.7167   23.3600 H   0  0  0  0  0  0
  -28.3209  -25.9136   22.7891 H   0  0  0  0  0  0
  -30.0298  -26.0732   22.3693 H   0  0  0  0  0  0
  -25.3900  -18.0076   23.0785 H   0  0  0  0  0  0
  -26.6402  -16.9641   22.4103 H   0  0  0  0  0  0
  -25.5856  -17.8823   21.3348 H   0  0  0  0  0  0
  -27.3344  -21.9684   16.0416 H   0  0  0  0  0  0
  -28.0762  -23.5528   16.2077 H   0  0  0  0  0  0
  -26.6018  -23.1470   17.1184 H   0  0  0  0  0  0
  -30.6486  -20.8904   19.8369 H   0  0  0  0  0  0
  -29.1520  -20.3747   19.1324 H   0  0  0  0  0  0
  -28.7978  -15.6686   21.1488 H   0  0  0  0  0  0
  -30.1410  -15.8332   22.2340 H   0  0  0  0  0  0
  -26.5663  -20.0264   22.1871 H   0  0  0  0  0  0
  -27.6028  -19.1358   23.2798 H   0  0  0  0  0  0
  -31.1950  -17.4610   20.4945 H   0  0  0  0  0  0
  -29.7088  -17.3672   19.5856 H   0  0  0  0  0  0
  1 25  1  0  0  0
  1 30  2  0  0  0
  1 84  1  0  0  0
  2  3  1  0  0  0
  2 25  1  0  0  0
  2 88  1  0  0  0
  2 89  1  0  0  0
  3  4  1  0  0  0
  3 90  1  0  0  0
  3 91  1  0  0  0
  4  5  1  0  0  0
  4 92  1  0  0  0
  4 93  1  0  0  0
  5  6  1  0  0  0
  5 26  1  0  0  0
  5 94  1  0  0  0
  6 25  1  0  0  0
  6 95  1  0  0  0
  6 96  1  0  0  0
  7  8  2  0  0  0
  7 26  1  0  0  0
  7 29  1  0  0  0
  8  9  1  0  0  0
  8 22  1  0  0  0
  9 10  1  0  0  0
  9 27  2  0  0  0
 10 11  2  0  0  0
 10 15  1  0  0  0
 11 12  1  0  0  0
 11 97  1  0  0  0
 12 13  2  0  0  0
 12 98  1  0  0  0
 13 14  1  0  0  0
 13 31  1  0  0  0
 14 15  2  0  0  0
 14 99  1  0  0  0
 15100  1  0  0  0
 16 17  2  0  0  0
 16 21  1  0  0  0
 16 31  1  0  0  0
 17 18  1  0  0  0
 17101  1  0  0  0
 18 19  2  0  0  0
 18102  1  0  0  0
 19 20  1  0  0  0
 19 24  1  0  0  0
 20 21  2  0  0  0
 20103  1  0  0  0
 21 23  1  0  0  0
 22 28  1  0  0  0
 22 32  2  0  0  0
 26 27  1  0  0  0
 28104  1  0  0  0
 28105  1  0  0  0
 29106  1  0  0  0
 29107  1  0  0  0
 33 34  1  0  0  0
 33 66  1  0  0  0
 33 70  2  0  0  0
 34 36  1  0  0  0
 34 59  1  0  0  0
 34108  1  0  0  0
 35 44  2  0  0  0
 35 45  1  0  0  0
 35 68  1  0  0  0
 36 56  1  0  0  0
 36109  1  0  0  0
 37 39  1  0  0  0
 37 47  1  0  0  0
 37 66  1  0  0  0
 37110  1  0  0  0
 38 43  2  0  0  0
 38 46  1  0  0  0
 38 47  1  0  0  0
 39 64  1  0  0  0
 39 67  2  0  0  0
 40 52  1  0  0  0
 40 53  2  0  0  0
 40 58  1  0  0  0
 41111  1  0  0  0
 41112  1  0  0  0
 41113  1  0  0  0
 41 48  1  0  0  0
 42 43  1  0  0  0
 42 66  1  0  0  0
 42114  1  0  0  0
 42115  1  0  0  0
 43 44  1  0  0  0
 44116  1  0  0  0
 45 46  2  0  0  0
 45117  1  0  0  0
 46118  1  0  0  0
 47119  1  0  0  0
 47120  1  0  0  0
 48 56  1  0  0  0
 48 65  1  0  0  0
 48121  1  0  0  0
 49 50  1  0  0  0
 49 53  1  0  0  0
 49 64  1  0  0  0
 49122  1  0  0  0
 50 51  1  0  0  0
 50123  1  0  0  0
 50124  1  0  0  0
 51 52  1  0  0  0
 51125  1  0  0  0
 51126  1  0  0  0
 52127  1  0  0  0
 52128  1  0  0  0
 53 54  1  0  0  0
 54 55  2  0  0  0
 54129  1  0  0  0
 55 57  1  0  0  0
 55130  1  0  0  0
 56 69  2  0  0  0
 57 58  2  0  0  0
 57131  1  0  0  0
 58132  1  0  0  0
 59 60  1  0  0  0
 59 61  1  0  0  0
 59 62  1  0  0  0
 60133  1  0  0  0
 60134  1  0  0  0
 60135  1  0  0  0
 61136  1  0  0  0
 61137  1  0  0  0
 61138  1  0  0  0
 62139  1  0  0  0
 62140  1  0  0  0
 62141  1  0  0  0
 63 65  1  0  0  0
 63142  1  0  0  0
 63143  1  0  0  0
 63144  1  0  0  0
 64145  1  0  0  0
 65146  1  0  0  0
 68 75  1  0  0  0
 71 73  2  0  0  0
 71 74  1  0  0  0
 71147  1  0  0  0
 72 75  2  0  0  0
 72 76  1  0  0  0
 72148  1  0  0  0
 73 75  1  0  0  0
 73 80  1  0  0  0
 74 76  2  0  0  0
 74 83  1  0  0  0
 76 87  1  0  0  0
 77 78  1  0  0  0
 77 79  1  0  0  0
 77 83  1  0  0  0
 77149  1  0  0  0
 78 79  1  0  0  0
 78 85  1  0  0  0
 78150  1  0  0  0
 79 86  1  0  0  0
 79151  1  0  0  0
 80152  1  0  0  0
 80153  1  0  0  0
 80154  1  0  0  0
 81 85  1  0  0  0
 81155  1  0  0  0
 81156  1  0  0  0
 81157  1  0  0  0
 82 87  1  0  0  0
 82158  1  0  0  0
 82159  1  0  0  0
 82160  1  0  0  0
 83161  1  0  0  0
 83162  1  0  0  0
 84 86  1  0  0  0
 84163  1  0  0  0
 84164  1  0  0  0
 85165  1  0  0  0
 85166  1  0  0  0
 86167  1  0  0  0
 86168  1  0  0  0
M  ISO  4   1 100  68 101  75 101  84 100
M  END
> <chiral flag>
0

> <version>
0

> <s_m_source_file>
/data/baiqing/PycharmProjects/Reinvent-master-3.2/result/LINK_invent/BTK/process_docking_weight1_custom_sum_contain_oxygen_bond_distance_aromatic_linkinvent_7_9_3/rearranged_h_0139.sdf

> <i_m_source_file_index>
94

> <r_mmod_Potential_Energy-OPLS-2005>
110.921928405762

> <r_mmod_Stretch_Energy-OPLS-2005>
66.5199203491211

> <r_mmod_Bend_Energy-OPLS-2005>
143.789459228516

> <r_mmod_Torsional_Energy-OPLS-2005>
249.115097045898

> <r_mmod_Improper_Torsional_Energy-OPLS-2005>
3.58935761451721

> <r_mmod_Van_der_Waal_Energy-OPLS-2005>
134.211029052734

> <r_mmod_Electrostatic_Energy-OPLS-2005>
-331.624176025391

> <r_mmod_Solvation_Energy-OPLS-2005>
-184.2724609375

> <b_mmod_Minimization_Converged-OPLS-2005>
0

> <r_mmod_RMS_Derivative-OPLS-2005>
1.97022914886475

$$$$
94
                    3D
 Structure written by MMmdl.
179188  0  0  1  0            999 V2000
  -30.7233  -14.4369   20.5785 C   0  0  0  0  0  0
  -30.4161  -12.2842   19.4113 C   0  0  0  0  0  0
  -29.4972  -12.5092   18.1916 C   0  0  0  0  0  0
  -28.0115  -12.3868   18.5944 C   0  0  0  0  0  0
  -27.6657  -13.2118   19.8645 C   0  0  2  0  0  0
  -28.7096  -12.9726   20.9832 C   0  0  0  0  0  0
  -25.2585  -13.8181   20.5604 C   0  0  0  0  0  0
  -24.1836  -13.0421   20.9095 C   0  0  0  0  0  0
  -24.6435  -11.6886   20.8692 C   0  0  0  0  0  0
  -23.9092  -10.4270   21.0369 C   0  0  0  0  0  0
  -24.3642   -9.4194   21.9154 C   0  0  0  0  0  0
  -23.6300   -8.2227   22.0738 C   0  0  0  0  0  0
  -22.4289   -8.0264   21.3519 C   0  0  0  0  0  0
  -21.9919   -9.0243   20.4637 C   0  0  0  0  0  0
  -22.7259  -10.2103   20.3013 C   0  0  0  0  0  0
  -21.6893   -6.0725   22.5252 C   0  0  0  0  0  0
  -21.4056   -6.5633   23.8186 C   0  0  0  0  0  0
  -21.3620   -5.6781   24.9146 C   0  0  0  0  0  0
  -21.6019   -4.3040   24.7213 C   0  0  0  0  0  0
  -21.8831   -3.8118   23.4345 C   0  0  0  0  0  0
  -21.9200   -4.6944   22.3394 C   0  0  0  0  0  0
  -22.7843  -13.5179   21.1755 C   0  0  0  0  0  0
  -22.1668   -4.2121   21.0990 F   0  0  0  0  0  0
  -21.5585   -3.4527   25.7728 F   0  0  0  0  0  0
  -30.0432  -13.2687   20.4379 N   0  0  0  0  0  0
  -26.3041  -12.9370   20.3287 N   0  0  0  0  0  0
  -25.9361  -11.6515   20.5692 N   0  0  0  0  0  0
  -22.0547  -12.8186   22.0363 N   0  0  0  0  0  0
  -25.4295  -15.1896   20.4063 N   0  0  0  0  0  0
  -31.8222  -14.6464   20.0577 O   0  0  0  0  0  0
  -21.6630   -6.8860   21.4217 O   0  0  0  0  0  0
  -22.3503  -14.5463   20.6572 O   0  0  0  0  0  0
  -24.6184  -31.8668   23.2026 C   0  0  0  0  0  0
  -25.9040  -32.4848   23.8376 C   0  0  1  0  0  0
  -27.2254  -27.4400   20.1146 C   0  0  0  0  0  0
  -25.5886  -33.8645   24.2345 N   0  0  0  0  0  0
  -23.4040  -30.4929   21.5393 C   0  0  2  0  0  0
  -24.8468  -28.9535   20.1046 C   0  0  0  0  0  0
  -22.7455  -29.4682   22.4942 C   0  0  0  0  0  0
  -18.0321  -28.1362   22.8534 C   0  0  0  0  0  0
  -24.1479  -36.7327   23.2622 C   0  0  0  0  0  0
  -25.9269  -30.8411   21.3473 C   0  0  0  0  0  0
  -26.0039  -29.4713   20.7039 C   0  0  0  0  0  0
  -27.1956  -28.7182   20.7072 C   0  0  0  0  0  0
  -26.0643  -26.9361   19.4985 C   0  0  0  0  0  0
  -24.8707  -27.6883   19.4912 C   0  0  0  0  0  0
  -23.6063  -29.8152   20.1557 C   0  0  0  0  0  0
  -25.4098  -36.3166   24.0358 C   0  0  1  0  0  0
  -20.5912  -28.3678   23.1299 C   0  0  2  0  0  0
  -20.6802  -26.9400   22.5420 C   0  0  0  0  0  0
  -19.5757  -26.6398   21.5237 C   0  0  0  0  0  0
  -18.1949  -26.7936   22.1651 C   0  0  0  0  0  0
  -19.1568  -28.8842   23.2932 C   0  0  0  0  0  0
  -18.9467  -30.1460   23.8923 C   0  0  0  0  0  0
  -17.6453  -30.6553   24.0595 C   0  0  0  0  0  0
  -25.9052  -34.9526   23.5185 C   0  0  0  0  0  0
  -16.5354  -29.9068   23.6309 C   0  0  0  0  0  0
  -16.7313  -28.6483   23.0366 C   0  0  0  0  0  0
  -26.4462  -31.6597   25.0689 C   0  0  0  0  0  0
  -25.3695  -31.3634   26.1388 C   0  0  0  0  0  0
  -27.0272  -30.3061   24.6008 C   0  0  0  0  0  0
  -27.6115  -32.4216   25.7424 C   0  0  0  0  0  0
  -27.5580  -37.1811   24.8459 C   0  0  0  0  0  0
  -21.4174  -29.3065   22.3686 N   0  0  0  0  0  0
  -26.4294  -37.3854   23.9415 N   0  0  0  0  0  0
  -24.6688  -31.0806   22.0904 N   0  0  0  0  0  0
  -23.4258  -28.8255   23.2962 O   0  0  0  0  0  0
  -28.3734  -26.6856   20.1413 O   0  0  0  0  0  0
  -26.5618  -34.8991   22.4749 O   0  0  0  0  0  0
  -23.5365  -32.1367   23.7461 O   0  0  0  0  0  0
  -29.1097  -21.4270   17.2621 C   0  0  0  0  0  0
  -28.1948  -21.2193   18.3103 C   0  0  0  0  0  0
  -30.7828  -20.1511   18.4710 C   0  0  0  0  0  0
  -30.4438  -20.9762   17.3785 C   0  0  0  0  0  0
  -28.5976  -20.5375   19.4777 C   0  0  0  0  0  0
  -29.8579  -19.8915   19.5007 C   0  0  0  0  0  0
  -32.0830  -24.8875   16.4428 C   0  0  0  0  0  0
  -30.9313  -25.2113   15.5177 C   0  0  0  0  0  0
  -30.9694  -23.8865   16.2442 C   0  0  0  0  0  0
  -31.9655  -20.1505   15.5304 C   0  0  0  0  0  0
  -27.7362  -20.6297   20.7335 C   0  0  0  0  0  0
  -31.2097  -22.5863   15.4816 C   0  0  0  0  0  0
  -30.5148  -16.8056   21.3501 C   0  0  0  0  0  0
  -27.3738  -22.0976   21.0866 C   0  0  0  0  0  0
  -28.4346  -24.2145   20.1659 C   0  0  0  0  0  0
  -29.7073  -17.7499   20.4394 C   0  0  0  0  0  0
  -28.2908  -25.5209   20.9815 C   0  0  0  0  0  0
  -31.5375  -21.3614   16.3780 C   0  0  1  0  0  0
  -30.0730  -15.4099   21.2324 N   0  0  0  0  0  0
  -28.5613  -22.9896   21.0120 N   0  3  0  0  0  0
  -30.2334  -19.0742   20.5377 O   0  0  0  0  0  0
  -31.4652  -12.3605   19.1200 H   0  0  0  0  0  0
  -30.2874  -11.2736   19.8045 H   0  0  0  0  0  0
  -29.7317  -11.7918   17.4067 H   0  0  0  0  0  0
  -29.6804  -13.4987   17.7653 H   0  0  0  0  0  0
  -27.8025  -11.3322   18.7681 H   0  0  0  0  0  0
  -27.3710  -12.6865   17.7613 H   0  0  0  0  0  0
  -27.7170  -14.2624   19.5771 H   0  0  0  0  0  0
  -28.6827  -11.9301   21.3107 H   0  0  0  0  0  0
  -28.4778  -13.5648   21.8688 H   0  0  0  0  0  0
  -25.2820   -9.5643   22.4700 H   0  0  0  0  0  0
  -23.9974   -7.4651   22.7505 H   0  0  0  0  0  0
  -21.0802   -8.8761   19.9043 H   0  0  0  0  0  0
  -22.3707  -10.9609   19.6066 H   0  0  0  0  0  0
  -21.2114   -7.6155   23.9684 H   0  0  0  0  0  0
  -21.1411   -6.0525   25.9048 H   0  0  0  0  0  0
  -22.0668   -2.7586   23.2859 H   0  0  0  0  0  0
  -22.4225  -11.9851   22.4724 H   0  0  0  0  0  0
  -21.1157  -13.1176   22.2616 H   0  0  0  0  0  0
  -24.6604  -15.8443   20.5152 H   0  0  0  0  0  0
  -26.2810  -15.6361   20.0906 H   0  0  0  0  0  0
  -26.7139  -32.5611   23.1195 H   0  0  0  0  0  0
  -25.0133  -33.9818   25.0546 H   0  0  0  0  0  0
  -22.6937  -31.3114   21.4012 H   0  0  0  0  0  0
  -23.3789  -35.9614   23.3312 H   0  0  0  0  0  0
  -24.3553  -36.8900   22.2019 H   0  0  0  0  0  0
  -23.7186  -37.6534   23.6598 H   0  0  0  0  0  0
  -26.0302  -31.6010   20.5685 H   0  0  0  0  0  0
  -26.8182  -30.9079   21.9598 H   0  0  0  0  0  0
  -28.0846  -29.1057   21.1844 H   0  0  0  0  0  0
  -26.0832  -25.9676   19.0203 H   0  0  0  0  0  0
  -23.9863  -27.2981   19.0085 H   0  0  0  0  0  0
  -23.7087  -30.5799   19.3852 H   0  0  0  0  0  0
  -22.7335  -29.2250   19.8686 H   0  0  0  0  0  0
  -25.1295  -36.2056   25.0859 H   0  0  0  0  0  0
  -21.0071  -28.3255   24.1393 H   0  0  0  0  0  0
  -20.5738  -26.2293   23.3649 H   0  0  0  0  0  0
  -21.6667  -26.7455   22.1173 H   0  0  0  0  0  0
  -19.6912  -25.6342   21.1223 H   0  0  0  0  0  0
  -19.6646  -27.3239   20.6798 H   0  0  0  0  0  0
  -17.4234  -26.6764   21.4026 H   0  0  0  0  0  0
  -18.0278  -26.0058   22.9008 H   0  0  0  0  0  0
  -19.7944  -30.7313   24.2235 H   0  0  0  0  0  0
  -17.4999  -31.6215   24.5231 H   0  0  0  0  0  0
  -15.5352  -30.2967   23.7571 H   0  0  0  0  0  0
  -15.8753  -28.0799   22.7003 H   0  0  0  0  0  0
  -24.5981  -30.6891   25.7645 H   0  0  0  0  0  0
  -24.8738  -32.2733   26.4770 H   0  0  0  0  0  0
  -25.7994  -30.8836   27.0194 H   0  0  0  0  0  0
  -26.2764  -29.6847   24.1100 H   0  0  0  0  0  0
  -27.4124  -29.7285   25.4426 H   0  0  0  0  0  0
  -27.8613  -30.4458   23.9122 H   0  0  0  0  0  0
  -27.2877  -33.3578   26.2004 H   0  0  0  0  0  0
  -28.3909  -32.6603   25.0162 H   0  0  0  0  0  0
  -28.0810  -31.8284   26.5300 H   0  0  0  0  0  0
  -28.2636  -38.0092   24.7585 H   0  0  0  0  0  0
  -28.1072  -36.2641   24.6226 H   0  0  0  0  0  0
  -27.2321  -37.1377   25.8876 H   0  0  0  0  0  0
  -20.9307  -29.8783   21.6923 H   0  0  0  0  0  0
  -26.0229  -38.2974   24.1380 H   0  0  0  0  0  0
  -28.7936  -22.0066   16.4103 H   0  0  0  0  0  0
  -27.2124  -21.6639   18.2371 H   0  0  0  0  0  0
  -31.7811  -19.7432   18.5261 H   0  0  0  0  0  0
  -32.1279  -25.4001   17.4046 H   0  0  0  0  0  0
  -33.0458  -24.6745   15.9827 H   0  0  0  0  0  0
  -31.1146  -25.2018   14.4441 H   0  0  0  0  0  0
  -30.1867  -25.9351   15.8505 H   0  0  0  0  0  0
  -30.2579  -23.8107   17.0625 H   0  0  0  0  0  0
  -32.2602  -19.3014   16.1503 H   0  0  0  0  0  0
  -32.8248  -20.3915   14.9016 H   0  0  0  0  0  0
  -31.1597  -19.8165   14.8757 H   0  0  0  0  0  0
  -28.2623  -20.1856   21.5788 H   0  0  0  0  0  0
  -26.8339  -20.0348   20.5955 H   0  0  0  0  0  0
  -32.0366  -22.7514   14.7901 H   0  0  0  0  0  0
  -30.3452  -22.3802   14.8500 H   0  0  0  0  0  0
  -30.4118  -17.1098   22.3936 H   0  0  0  0  0  0
  -31.5742  -16.9046   21.1086 H   0  0  0  0  0  0
  -26.9533  -22.1457   22.0930 H   0  0  0  0  0  0
  -26.5790  -22.4486   20.4258 H   0  0  0  0  0  0
  -29.3446  -24.2862   19.5693 H   0  0  0  0  0  0
  -27.6235  -24.1231   19.4426 H   0  0  0  0  0  0
  -28.6568  -17.7464   20.7309 H   0  0  0  0  0  0
  -29.7490  -17.3936   19.4065 H   0  0  0  0  0  0
  -29.1038  -25.5853   21.7043 H   0  0  0  0  0  0
  -27.3737  -25.5027   21.5744 H   0  0  0  0  0  0
  -32.3982  -21.6570   16.9857 H   0  0  0  0  0  0
  -29.1803  -15.1701   21.6330 H   0  0  0  0  0  0
  -29.2798  -22.4231   20.5871 H   0  0  0  0  0  0
  -28.8952  -23.2049   21.9407 H   0  0  0  0  0  0
  1 25  1  0  0  0
  1 30  2  0  0  0
  1 89  1  0  0  0
  2  3  1  0  0  0
  2 25  1  0  0  0
  2 92  1  0  0  0
  2 93  1  0  0  0
  3  4  1  0  0  0
  3 94  1  0  0  0
  3 95  1  0  0  0
  4  5  1  0  0  0
  4 96  1  0  0  0
  4 97  1  0  0  0
  5  6  1  0  0  0
  5 26  1  0  0  0
  5 98  1  0  0  0
  6 25  1  0  0  0
  6 99  1  0  0  0
  6100  1  0  0  0
  7  8  2  0  0  0
  7 26  1  0  0  0
  7 29  1  0  0  0
  8  9  1  0  0  0
  8 22  1  0  0  0
  9 10  1  0  0  0
  9 27  2  0  0  0
 10 11  2  0  0  0
 10 15  1  0  0  0
 11 12  1  0  0  0
 11101  1  0  0  0
 12 13  2  0  0  0
 12102  1  0  0  0
 13 14  1  0  0  0
 13 31  1  0  0  0
 14 15  2  0  0  0
 14103  1  0  0  0
 15104  1  0  0  0
 16 17  2  0  0  0
 16 21  1  0  0  0
 16 31  1  0  0  0
 17 18  1  0  0  0
 17105  1  0  0  0
 18 19  2  0  0  0
 18106  1  0  0  0
 19 20  1  0  0  0
 19 24  1  0  0  0
 20 21  2  0  0  0
 20107  1  0  0  0
 21 23  1  0  0  0
 22 28  1  0  0  0
 22 32  2  0  0  0
 26 27  1  0  0  0
 28108  1  0  0  0
 28109  1  0  0  0
 29110  1  0  0  0
 29111  1  0  0  0
 33 34  1  0  0  0
 33 66  1  0  0  0
 33 70  2  0  0  0
 34 36  1  0  0  0
 34 59  1  0  0  0
 34112  1  0  0  0
 35 44  2  0  0  0
 35 45  1  0  0  0
 35 68  1  0  0  0
 36 56  1  0  0  0
 36113  1  0  0  0
 37 39  1  0  0  0
 37 47  1  0  0  0
 37 66  1  0  0  0
 37114  1  0  0  0
 38 43  2  0  0  0
 38 46  1  0  0  0
 38 47  1  0  0  0
 39 64  1  0  0  0
 39 67  2  0  0  0
 40 52  1  0  0  0
 40 53  2  0  0  0
 40 58  1  0  0  0
 41115  1  0  0  0
 41116  1  0  0  0
 41117  1  0  0  0
 41 48  1  0  0  0
 42 43  1  0  0  0
 42 66  1  0  0  0
 42118  1  0  0  0
 42119  1  0  0  0
 43 44  1  0  0  0
 44120  1  0  0  0
 45 46  2  0  0  0
 45121  1  0  0  0
 46122  1  0  0  0
 47123  1  0  0  0
 47124  1  0  0  0
 48 56  1  0  0  0
 48 65  1  0  0  0
 48125  1  0  0  0
 49 50  1  0  0  0
 49 53  1  0  0  0
 49 64  1  0  0  0
 49126  1  0  0  0
 50 51  1  0  0  0
 50127  1  0  0  0
 50128  1  0  0  0
 51 52  1  0  0  0
 51129  1  0  0  0
 51130  1  0  0  0
 52131  1  0  0  0
 52132  1  0  0  0
 53 54  1  0  0  0
 54 55  2  0  0  0
 54133  1  0  0  0
 55 57  1  0  0  0
 55134  1  0  0  0
 56 69  2  0  0  0
 57 58  2  0  0  0
 57135  1  0  0  0
 58136  1  0  0  0
 59 60  1  0  0  0
 59 61  1  0  0  0
 59 62  1  0  0  0
 60137  1  0  0  0
 60138  1  0  0  0
 60139  1  0  0  0
 61140  1  0  0  0
 61141  1  0  0  0
 61142  1  0  0  0
 62143  1  0  0  0
 62144  1  0  0  0
 62145  1  0  0  0
 63 65  1  0  0  0
 63146  1  0  0  0
 63147  1  0  0  0
 63148  1  0  0  0
 64149  1  0  0  0
 65150  1  0  0  0
 68 87  1  0  0  0
 71 72  2  0  0  0
 71 74  1  0  0  0
 71151  1  0  0  0
 72 75  1  0  0  0
 72152  1  0  0  0
 73 74  2  0  0  0
 73 76  1  0  0  0
 73153  1  0  0  0
 74 88  1  0  0  0
 75 76  2  0  0  0
 75 81  1  0  0  0
 76 91  1  0  0  0
 77 78  1  0  0  0
 77 79  1  0  0  0
 77154  1  0  0  0
 77155  1  0  0  0
 78 79  1  0  0  0
 78156  1  0  0  0
 78157  1  0  0  0
 79 82  1  0  0  0
 79158  1  0  0  0
 80159  1  0  0  0
 80160  1  0  0  0
 80161  1  0  0  0
 80 88  1  0  0  0
 81 84  1  0  0  0
 81162  1  0  0  0
 81163  1  0  0  0
 82 88  1  0  0  0
 82164  1  0  0  0
 82165  1  0  0  0
 83 86  1  0  0  0
 83 89  1  0  0  0
 83166  1  0  0  0
 83167  1  0  0  0
 84 90  1  0  0  0
 84168  1  0  0  0
 84169  1  0  0  0
 85 87  1  0  0  0
 85 90  1  0  0  0
 85170  1  0  0  0
 85171  1  0  0  0
 86 91  1  0  0  0
 86172  1  0  0  0
 86173  1  0  0  0
 87174  1  0  0  0
 87175  1  0  0  0
 88176  1  0  0  0
 89177  1  0  0  0
 90178  1  0  0  0
 90179  1  0  0  0
M  CHG  1  90   1
M  ISO  4   1 100  68 101  87 101  89 100
M  END
> <chiral flag>
0

> <version>
0

> <s_m_source_file>
/data/baiqing/PycharmProjects/Reinvent-master-3.2/result/LINK_invent/BTK/process_docking_weight1_custom_sum_contain_oxygen_bond_distance_aromatic_linkinvent_7_9_3/rearranged_h_0139.sdf

> <i_m_source_file_index>
95

> <r_mmod_Potential_Energy-OPLS-2005>
-160.396682739258

> <r_mmod_Stretch_Energy-OPLS-2005>
38.1535911560059

> <r_mmod_Bend_Energy-OPLS-2005>
94.7350769042969

> <r_mmod_Torsional_Energy-OPLS-2005>
335.923736572266

> <r_mmod_Improper_Torsional_Energy-OPLS-2005>
3.4278130531311

> <r_mmod_Van_der_Waal_Energy-OPLS-2005>
147.16227722168

> <r_mmod_Electrostatic_Energy-OPLS-2005>
-358.960571289062

> <r_mmod_Solvation_Energy-OPLS-2005>
-432.194396972656

> <b_mmod_Minimization_Converged-OPLS-2005>
0

> <r_mmod_RMS_Derivative-OPLS-2005>
6.23365497589111

$$$$
95
                    3D
 Structure written by MMmdl.
168176  0  0  1  0            999 V2000
  -30.7699  -14.3740   20.6768 C   0  0  0  0  0  0
  -30.4126  -12.2928   19.3987 C   0  0  0  0  0  0
  -29.4821  -12.5282   18.1950 C   0  0  0  0  0  0
  -28.0074  -12.3835   18.6126 C   0  0  0  0  0  0
  -27.6658  -13.2060   19.8826 C   0  0  2  0  0  0
  -28.7047  -12.9573   20.9987 C   0  0  0  0  0  0
  -25.2604  -13.8164   20.5684 C   0  0  0  0  0  0
  -24.1847  -13.0446   20.9176 C   0  0  0  0  0  0
  -24.6398  -11.6914   20.8742 C   0  0  0  0  0  0
  -23.9056  -10.4299   21.0410 C   0  0  0  0  0  0
  -24.3610   -9.4219   21.9193 C   0  0  0  0  0  0
  -23.6289   -8.2251   22.0754 C   0  0  0  0  0  0
  -22.4273   -8.0284   21.3539 C   0  0  0  0  0  0
  -21.9910   -9.0261   20.4641 C   0  0  0  0  0  0
  -22.7232  -10.2146   20.3058 C   0  0  0  0  0  0
  -21.6851   -6.0739   22.5275 C   0  0  0  0  0  0
  -21.4015   -6.5647   23.8214 C   0  0  0  0  0  0
  -21.3664   -5.6799   24.9180 C   0  0  0  0  0  0
  -21.6045   -4.3059   24.7230 C   0  0  0  0  0  0
  -21.8823   -3.8152   23.4349 C   0  0  0  0  0  0
  -21.9191   -4.6964   22.3403 C   0  0  0  0  0  0
  -22.7873  -13.5246   21.1837 C   0  0  0  0  0  0
  -22.1659   -4.2154   21.0976 F   0  0  0  0  0  0
  -21.5636   -3.4543   25.7747 F   0  0  0  0  0  0
  -30.0459  -13.2455   20.4583 N   0  0  0  0  0  0
  -26.3048  -12.9339   20.3410 N   0  0  0  0  0  0
  -25.9326  -11.6489   20.5773 N   0  0  0  0  0  0
  -22.0516  -12.8235   22.0394 N   0  0  0  0  0  0
  -25.4335  -15.1872   20.4068 N   0  0  0  0  0  0
  -31.8006  -14.6480   20.0568 O   0  0  0  0  0  0
  -21.6636   -6.8880   21.4236 O   0  0  0  0  0  0
  -22.3564  -14.5555   20.6686 O   0  0  0  0  0  0
  -24.6102  -31.8706   23.2132 C   0  0  0  0  0  0
  -25.9014  -32.4843   23.8423 C   0  0  1  0  0  0
  -27.2388  -27.4619   20.1034 C   0  0  0  0  0  0
  -25.5875  -33.8644   24.2345 N   0  0  0  0  0  0
  -23.3986  -30.4926   21.5528 C   0  0  2  0  0  0
  -24.8479  -28.9551   20.1230 C   0  0  0  0  0  0
  -22.7386  -29.4675   22.5014 C   0  0  0  0  0  0
  -18.0259  -28.1374   22.8502 C   0  0  0  0  0  0
  -24.1471  -36.7334   23.2644 C   0  0  0  0  0  0
  -25.9240  -30.8426   21.3646 C   0  0  0  0  0  0
  -26.0025  -29.4749   20.7232 C   0  0  0  0  0  0
  -27.2022  -28.7312   20.7187 C   0  0  0  0  0  0
  -26.0750  -26.9478   19.4990 C   0  0  0  0  0  0
  -24.8748  -27.6859   19.5153 C   0  0  0  0  0  0
  -23.6069  -29.8194   20.1695 C   0  0  0  0  0  0
  -25.4103  -36.3133   24.0334 C   0  0  1  0  0  0
  -20.5847  -28.3681   23.1324 C   0  0  2  0  0  0
  -20.6750  -26.9420   22.5424 C   0  0  0  0  0  0
  -19.5728  -26.6395   21.5215 C   0  0  0  0  0  0
  -18.1905  -26.7925   22.1625 C   0  0  0  0  0  0
  -19.1511  -28.8840   23.2910 C   0  0  0  0  0  0
  -18.9444  -30.1439   23.8932 C   0  0  0  0  0  0
  -17.6449  -30.6587   24.0572 C   0  0  0  0  0  0
  -25.9028  -34.9494   23.5142 C   0  0  0  0  0  0
  -16.5339  -29.9100   23.6316 C   0  0  0  0  0  0
  -16.7251  -28.6499   23.0372 C   0  0  0  0  0  0
  -26.4471  -31.6617   25.0736 C   0  0  0  0  0  0
  -25.3733  -31.3671   26.1461 C   0  0  0  0  0  0
  -27.0350  -30.3076   24.6118 C   0  0  0  0  0  0
  -27.6040  -32.4355   25.7499 C   0  0  0  0  0  0
  -27.5581  -37.1821   24.8466 C   0  0  0  0  0  0
  -21.4117  -29.3045   22.3730 N   0  0  0  0  0  0
  -26.4297  -37.3814   23.9401 N   0  0  0  0  0  0
  -24.6625  -31.0830   22.1026 N   0  0  0  0  0  0
  -23.4158  -28.8223   23.3058 O   0  0  0  0  0  0
  -28.4062  -26.7459   20.0278 O   0  0  0  0  0  0
  -26.5613  -34.8936   22.4719 O   0  0  0  0  0  0
  -23.5296  -32.1453   23.7533 O   0  0  0  0  0  0
  -30.3833  -21.7045   22.3821 C   0  0  0  0  0  0
  -30.4852  -20.3050   22.2605 C   0  0  0  0  0  0
  -28.3513  -21.6733   21.0603 C   0  0  0  0  0  0
  -28.4495  -20.2683   20.9224 C   0  0  0  0  0  0
  -29.3289  -22.4089   21.7713 C   0  0  0  0  0  0
  -29.5361  -19.5717   21.5092 C   0  0  0  0  0  0
  -24.6098  -18.7516   22.4777 C   0  0  0  0  0  0
  -27.1836  -20.0936   18.7214 C   0  0  0  0  0  0
  -31.0100  -16.3740   22.1371 C   0  0  0  0  0  0
  -26.0331  -18.7085   21.9206 C   0  0  0  0  0  0
  -30.8727  -17.5825   21.1908 C   0  0  0  0  0  0
  -28.7735  -26.0462   21.2143 C   0  0  0  0  0  0
  -28.4494  -24.5462   21.0756 C   0  0  0  0  0  0
  -27.3767  -19.5181   20.1304 C   0  0  2  0  0  0
  -30.3197  -15.1765   21.6496 N   0  0  0  0  0  0
  -29.3144  -23.7817   21.9168 O   0  0  0  0  0  0
  -29.5958  -18.1983   21.3711 O   0  0  0  0  0  0
  -26.1078  -19.5510   20.7765 O   0  0  0  0  0  0
  -31.4561  -12.3888   19.0920 H   0  0  0  0  0  0
  -30.3070  -11.2713   19.7678 H   0  0  0  0  0  0
  -29.7132  -11.8269   17.3926 H   0  0  0  0  0  0
  -29.6511  -13.5264   17.7871 H   0  0  0  0  0  0
  -27.8125  -11.3254   18.7922 H   0  0  0  0  0  0
  -27.3530  -12.6774   17.7909 H   0  0  0  0  0  0
  -27.7229  -14.2590   19.6074 H   0  0  0  0  0  0
  -28.6680  -11.9169   21.3258 H   0  0  0  0  0  0
  -28.4557  -13.5452   21.8819 H   0  0  0  0  0  0
  -25.2752   -9.5708   22.4777 H   0  0  0  0  0  0
  -23.9999   -7.4649   22.7481 H   0  0  0  0  0  0
  -21.0844   -8.8777   19.8949 H   0  0  0  0  0  0
  -22.3678  -10.9689   19.6175 H   0  0  0  0  0  0
  -21.2009   -7.6157   23.9715 H   0  0  0  0  0  0
  -21.1486   -6.0534   25.9084 H   0  0  0  0  0  0
  -22.0603   -2.7615   23.2846 H   0  0  0  0  0  0
  -22.4120  -11.9873   22.4753 H   0  0  0  0  0  0
  -21.1143  -13.1272   22.2613 H   0  0  0  0  0  0
  -24.6681  -15.8440   20.5068 H   0  0  0  0  0  0
  -26.2923  -15.6184   20.0907 H   0  0  0  0  0  0
  -26.7096  -32.5575   23.1204 H   0  0  0  0  0  0
  -24.9982  -33.9802   25.0462 H   0  0  0  0  0  0
  -22.6846  -31.3075   21.4120 H   0  0  0  0  0  0
  -23.3738  -35.9666   23.3311 H   0  0  0  0  0  0
  -24.3569  -36.8964   22.2061 H   0  0  0  0  0  0
  -23.7208  -37.6526   23.6682 H   0  0  0  0  0  0
  -26.0283  -31.6049   20.5919 H   0  0  0  0  0  0
  -26.8152  -30.9052   21.9779 H   0  0  0  0  0  0
  -28.0987  -29.1331   21.1698 H   0  0  0  0  0  0
  -26.1022  -25.9831   19.0132 H   0  0  0  0  0  0
  -23.9866  -27.2782   19.0518 H   0  0  0  0  0  0
  -23.7115  -30.5919   19.4062 H   0  0  0  0  0  0
  -22.7325  -29.2343   19.8785 H   0  0  0  0  0  0
  -25.1272  -36.2026   25.0826 H   0  0  0  0  0  0
  -20.9942  -28.3270   24.1444 H   0  0  0  0  0  0
  -20.5678  -26.2292   23.3621 H   0  0  0  0  0  0
  -21.6621  -26.7470   22.1214 H   0  0  0  0  0  0
  -19.6903  -25.6317   21.1239 H   0  0  0  0  0  0
  -19.6653  -27.3203   20.6746 H   0  0  0  0  0  0
  -17.4183  -26.6698   21.4012 H   0  0  0  0  0  0
  -18.0281  -26.0055   22.9000 H   0  0  0  0  0  0
  -19.7923  -30.7239   24.2338 H   0  0  0  0  0  0
  -17.5017  -31.6267   24.5181 H   0  0  0  0  0  0
  -15.5353  -30.3035   23.7608 H   0  0  0  0  0  0
  -15.8641  -28.0817   22.7113 H   0  0  0  0  0  0
  -24.5925  -30.7018   25.7762 H   0  0  0  0  0  0
  -24.8888  -32.2793   26.4947 H   0  0  0  0  0  0
  -25.8073  -30.8802   27.0197 H   0  0  0  0  0  0
  -26.2914  -29.6773   24.1231 H   0  0  0  0  0  0
  -27.4193  -29.7377   25.4596 H   0  0  0  0  0  0
  -27.8706  -30.4420   23.9243 H   0  0  0  0  0  0
  -27.2660  -33.3655   26.2081 H   0  0  0  0  0  0
  -28.3833  -32.6912   25.0308 H   0  0  0  0  0  0
  -28.0731  -31.8482   26.5397 H   0  0  0  0  0  0
  -28.2601  -38.0120   24.7553 H   0  0  0  0  0  0
  -28.1072  -36.2657   24.6262 H   0  0  0  0  0  0
  -27.2296  -37.1442   25.8868 H   0  0  0  0  0  0
  -20.9298  -29.8756   21.6924 H   0  0  0  0  0  0
  -26.0191  -38.2891   24.1423 H   0  0  0  0  0  0
  -31.1295  -22.2419   22.9500 H   0  0  0  0  0  0
  -31.3005  -19.8100   22.7667 H   0  0  0  0  0  0
  -27.5072  -22.1736   20.6117 H   0  0  0  0  0  0
  -24.5163  -18.0978   23.3452 H   0  0  0  0  0  0
  -23.8839  -18.4205   21.7342 H   0  0  0  0  0  0
  -24.3398  -19.7609   22.7900 H   0  0  0  0  0  0
  -28.1236  -20.0957   18.1690 H   0  0  0  0  0  0
  -26.8048  -21.1148   18.7409 H   0  0  0  0  0  0
  -26.4701  -19.4950   18.1550 H   0  0  0  0  0  0
  -30.6383  -16.6330   23.1293 H   0  0  0  0  0  0
  -32.0687  -16.1394   22.2658 H   0  0  0  0  0  0
  -26.2875  -17.6823   21.6540 H   0  0  0  0  0  0
  -26.7407  -19.0302   22.6851 H   0  0  0  0  0  0
  -30.9578  -17.2741   20.1491 H   0  0  0  0  0  0
  -31.7119  -18.2574   21.3498 H   0  0  0  0  0  0
  -29.8506  -26.1733   21.3290 H   0  0  0  0  0  0
  -28.3180  -26.4649   22.1145 H   0  0  0  0  0  0
  -28.6117  -24.2479   20.0368 H   0  0  0  0  0  0
  -27.4015  -24.3654   21.3134 H   0  0  0  0  0  0
  -27.6696  -18.4764   19.9909 H   0  0  0  0  0  0
  -29.4702  -14.9018   22.1199 H   0  0  0  0  0  0
  1 25  1  0  0  0
  1 30  2  0  0  0
  1 85  1  0  0  0
  2  3  1  0  0  0
  2 25  1  0  0  0
  2 89  1  0  0  0
  2 90  1  0  0  0
  3  4  1  0  0  0
  3 91  1  0  0  0
  3 92  1  0  0  0
  4  5  1  0  0  0
  4 93  1  0  0  0
  4 94  1  0  0  0
  5  6  1  0  0  0
  5 26  1  0  0  0
  5 95  1  0  0  0
  6 25  1  0  0  0
  6 96  1  0  0  0
  6 97  1  0  0  0
  7  8  2  0  0  0
  7 26  1  0  0  0
  7 29  1  0  0  0
  8  9  1  0  0  0
  8 22  1  0  0  0
  9 10  1  0  0  0
  9 27  2  0  0  0
 10 11  2  0  0  0
 10 15  1  0  0  0
 11 12  1  0  0  0
 11 98  1  0  0  0
 12 13  2  0  0  0
 12 99  1  0  0  0
 13 14  1  0  0  0
 13 31  1  0  0  0
 14 15  2  0  0  0
 14100  1  0  0  0
 15101  1  0  0  0
 16 17  2  0  0  0
 16 21  1  0  0  0
 16 31  1  0  0  0
 17 18  1  0  0  0
 17102  1  0  0  0
 18 19  2  0  0  0
 18103  1  0  0  0
 19 20  1  0  0  0
 19 24  1  0  0  0
 20 21  2  0  0  0
 20104  1  0  0  0
 21 23  1  0  0  0
 22 28  1  0  0  0
 22 32  2  0  0  0
 26 27  1  0  0  0
 28105  1  0  0  0
 28106  1  0  0  0
 29107  1  0  0  0
 29108  1  0  0  0
 33 34  1  0  0  0
 33 66  1  0  0  0
 33 70  2  0  0  0
 34 36  1  0  0  0
 34 59  1  0  0  0
 34109  1  0  0  0
 35 44  2  0  0  0
 35 45  1  0  0  0
 35 68  1  0  0  0
 36 56  1  0  0  0
 36110  1  0  0  0
 37 39  1  0  0  0
 37 47  1  0  0  0
 37 66  1  0  0  0
 37111  1  0  0  0
 38 43  2  0  0  0
 38 46  1  0  0  0
 38 47  1  0  0  0
 39 64  1  0  0  0
 39 67  2  0  0  0
 40 52  1  0  0  0
 40 53  2  0  0  0
 40 58  1  0  0  0
 41112  1  0  0  0
 41113  1  0  0  0
 41114  1  0  0  0
 41 48  1  0  0  0
 42 43  1  0  0  0
 42 66  1  0  0  0
 42115  1  0  0  0
 42116  1  0  0  0
 43 44  1  0  0  0
 44117  1  0  0  0
 45 46  2  0  0  0
 45118  1  0  0  0
 46119  1  0  0  0
 47120  1  0  0  0
 47121  1  0  0  0
 48 56  1  0  0  0
 48 65  1  0  0  0
 48122  1  0  0  0
 49 50  1  0  0  0
 49 53  1  0  0  0
 49 64  1  0  0  0
 49123  1  0  0  0
 50 51  1  0  0  0
 50124  1  0  0  0
 50125  1  0  0  0
 51 52  1  0  0  0
 51126  1  0  0  0
 51127  1  0  0  0
 52128  1  0  0  0
 52129  1  0  0  0
 53 54  1  0  0  0
 54 55  2  0  0  0
 54130  1  0  0  0
 55 57  1  0  0  0
 55131  1  0  0  0
 56 69  2  0  0  0
 57 58  2  0  0  0
 57132  1  0  0  0
 58133  1  0  0  0
 59 60  1  0  0  0
 59 61  1  0  0  0
 59 62  1  0  0  0
 60134  1  0  0  0
 60135  1  0  0  0
 60136  1  0  0  0
 61137  1  0  0  0
 61138  1  0  0  0
 61139  1  0  0  0
 62140  1  0  0  0
 62141  1  0  0  0
 62142  1  0  0  0
 63 65  1  0  0  0
 63143  1  0  0  0
 63144  1  0  0  0
 63145  1  0  0  0
 64146  1  0  0  0
 65147  1  0  0  0
 68 82  1  0  0  0
 71 72  2  0  0  0
 71 75  1  0  0  0
 71148  1  0  0  0
 72 76  1  0  0  0
 72149  1  0  0  0
 73 74  1  0  0  0
 73 75  2  0  0  0
 73150  1  0  0  0
 74 76  2  0  0  0
 74 84  1  0  0  0
 75 86  1  0  0  0
 76 87  1  0  0  0
 77 80  1  0  0  0
 77151  1  0  0  0
 77152  1  0  0  0
 77153  1  0  0  0
 78154  1  0  0  0
 78155  1  0  0  0
 78156  1  0  0  0
 78 84  1  0  0  0
 79 81  1  0  0  0
 79 85  1  0  0  0
 79157  1  0  0  0
 79158  1  0  0  0
 80 88  1  0  0  0
 80159  1  0  0  0
 80160  1  0  0  0
 81 87  1  0  0  0
 81161  1  0  0  0
 81162  1  0  0  0
 82 83  1  0  0  0
 82163  1  0  0  0
 82164  1  0  0  0
 83 86  1  0  0  0
 83165  1  0  0  0
 83166  1  0  0  0
 84 88  1  0  0  0
 84167  1  0  0  0
 85168  1  0  0  0
M  ISO  4   1 100  68 101  82 101  85 100
M  END
> <chiral flag>
0

> <version>
0

> <s_m_source_file>
/data/baiqing/PycharmProjects/Reinvent-master-3.2/result/LINK_invent/BTK/process_docking_weight1_custom_sum_contain_oxygen_bond_distance_aromatic_linkinvent_7_9_3/rearranged_h_0139.sdf

> <i_m_source_file_index>
96

> <r_mmod_Potential_Energy-OPLS-2005>
-114.352569580078

> <r_mmod_Stretch_Energy-OPLS-2005>
34.9221038818359

> <r_mmod_Bend_Energy-OPLS-2005>
100.651832580566

> <r_mmod_Torsional_Energy-OPLS-2005>
245.744262695312

> <r_mmod_Improper_Torsional_Energy-OPLS-2005>
1.98213970661163

> <r_mmod_Van_der_Waal_Energy-OPLS-2005>
154.253982543945

> <r_mmod_Electrostatic_Energy-OPLS-2005>
-451.072998046875

> <r_mmod_Solvation_Energy-OPLS-2005>
-206.982467651367

> <b_mmod_Minimization_Converged-OPLS-2005>
0

> <r_mmod_RMS_Derivative-OPLS-2005>
1.7130913734436

$$$$
96
                    3D
 Structure written by MMmdl.
167175  0  0  1  0            999 V2000
  -30.7138  -14.4345   20.5908 C   0  0  0  0  0  0
  -30.4256  -12.2904   19.4112 C   0  0  0  0  0  0
  -29.4914  -12.4973   18.2016 C   0  0  0  0  0  0
  -28.0123  -12.3698   18.6173 C   0  0  0  0  0  0
  -27.6647  -13.2027   19.8806 C   0  0  2  0  0  0
  -28.7073  -12.9597   20.9954 C   0  0  0  0  0  0
  -25.2585  -13.8134   20.5659 C   0  0  0  0  0  0
  -24.1829  -13.0432   20.9174 C   0  0  0  0  0  0
  -24.6361  -11.6892   20.8729 C   0  0  0  0  0  0
  -23.9017  -10.4295   21.0396 C   0  0  0  0  0  0
  -24.3593   -9.4215   21.9165 C   0  0  0  0  0  0
  -23.6281   -8.2244   22.0743 C   0  0  0  0  0  0
  -22.4254   -8.0271   21.3539 C   0  0  0  0  0  0
  -21.9869   -9.0246   20.4653 C   0  0  0  0  0  0
  -22.7187  -10.2132   20.3053 C   0  0  0  0  0  0
  -21.6852   -6.0719   22.5279 C   0  0  0  0  0  0
  -21.4024   -6.5634   23.8210 C   0  0  0  0  0  0
  -21.3660   -5.6792   24.9177 C   0  0  0  0  0  0
  -21.6043   -4.3055   24.7227 C   0  0  0  0  0  0
  -21.8827   -3.8135   23.4354 C   0  0  0  0  0  0
  -21.9199   -4.6949   22.3407 C   0  0  0  0  0  0
  -22.7858  -13.5246   21.1828 C   0  0  0  0  0  0
  -22.1659   -4.2137   21.0981 F   0  0  0  0  0  0
  -21.5627   -3.4539   25.7740 F   0  0  0  0  0  0
  -30.0414  -13.2617   20.4465 N   0  0  0  0  0  0
  -26.3040  -12.9310   20.3404 N   0  0  0  0  0  0
  -25.9296  -11.6472   20.5778 N   0  0  0  0  0  0
  -22.0438  -12.8241   22.0329 N   0  0  0  0  0  0
  -25.4256  -15.1849   20.3968 N   0  0  0  0  0  0
  -31.8172  -14.6534   20.0840 O   0  0  0  0  0  0
  -21.6625   -6.8859   21.4240 O   0  0  0  0  0  0
  -22.3636  -14.5619   20.6731 O   0  0  0  0  0  0
  -24.6143  -31.8680   23.2099 C   0  0  0  0  0  0
  -25.9037  -32.4823   23.8392 C   0  0  1  0  0  0
  -27.2344  -27.4469   20.0989 C   0  0  0  0  0  0
  -25.5900  -33.8623   24.2325 N   0  0  0  0  0  0
  -23.4009  -30.4913   21.5486 C   0  0  2  0  0  0
  -24.8479  -28.9534   20.1172 C   0  0  0  0  0  0
  -22.7400  -29.4670   22.4992 C   0  0  0  0  0  0
  -18.0272  -28.1371   22.8499 C   0  0  0  0  0  0
  -24.1481  -36.7320   23.2636 C   0  0  0  0  0  0
  -25.9278  -30.8387   21.3592 C   0  0  0  0  0  0
  -26.0072  -29.4725   20.7097 C   0  0  0  0  0  0
  -27.2071  -28.7268   20.6939 C   0  0  0  0  0  0
  -26.0623  -26.9323   19.5099 C   0  0  0  0  0  0
  -24.8687  -27.6814   19.5154 C   0  0  0  0  0  0
  -23.6084  -29.8185   20.1648 C   0  0  0  0  0  0
  -25.4101  -36.3116   24.0338 C   0  0  1  0  0  0
  -20.5862  -28.3662   23.1320 C   0  0  2  0  0  0
  -20.6765  -26.9400   22.5416 C   0  0  0  0  0  0
  -19.5743  -26.6384   21.5210 C   0  0  0  0  0  0
  -18.1921  -26.7919   22.1622 C   0  0  0  0  0  0
  -19.1519  -28.8831   23.2908 C   0  0  0  0  0  0
  -18.9448  -30.1438   23.8916 C   0  0  0  0  0  0
  -17.6450  -30.6583   24.0565 C   0  0  0  0  0  0
  -25.9024  -34.9483   23.5124 C   0  0  0  0  0  0
  -16.5343  -29.9089   23.6322 C   0  0  0  0  0  0
  -16.7255  -28.6500   23.0351 C   0  0  0  0  0  0
  -26.4473  -31.6594   25.0709 C   0  0  0  0  0  0
  -25.3747  -31.3700   26.1460 C   0  0  0  0  0  0
  -27.0296  -30.3039   24.6070 C   0  0  0  0  0  0
  -27.6050  -32.4309   25.7472 C   0  0  0  0  0  0
  -27.5576  -37.1815   24.8465 C   0  0  0  0  0  0
  -21.4130  -29.3031   22.3729 N   0  0  0  0  0  0
  -26.4292  -37.3798   23.9408 N   0  0  0  0  0  0
  -24.6654  -31.0806   22.0975 N   0  0  0  0  0  0
  -23.4171  -28.8215   23.3032 O   0  0  0  0  0  0
  -28.3953  -26.7123   20.0626 O   0  0  0  0  0  0
  -26.5589  -34.8937   22.4685 O   0  0  0  0  0  0
  -23.5335  -32.1424   23.7502 O   0  0  0  0  0  0
  -27.0105  -19.5877   21.4346 C   0  0  0  0  0  0
  -26.1526  -21.7824   20.8226 C   0  0  0  0  0  0
  -28.5222  -21.2892   20.5642 C   0  0  0  0  0  0
  -25.9292  -20.4829   21.3217 C   0  0  0  0  0  0
  -28.3160  -19.9667   21.0328 C   0  0  0  0  0  0
  -27.4461  -22.2137   20.4687 C   0  0  0  0  0  0
  -22.7183  -18.4096   21.5418 C   0  0  0  0  0  0
  -23.8848  -19.1801   19.5224 C   0  0  0  0  0  0
  -24.5332  -20.0538   21.7598 C   0  0  0  0  0  0
  -30.3848  -16.8375   21.1825 C   0  0  0  0  0  0
  -29.1301  -17.7147   21.3504 C   0  0  0  0  0  0
  -28.4316  -25.5943   20.9596 C   0  0  0  0  0  0
  -28.7582  -24.2510   20.2639 C   0  0  0  0  0  0
  -30.0348  -15.4115   21.2069 N   0  0  0  0  0  0
  -23.9904  -18.9144   20.9769 N   0  3  0  0  0  0
  -29.3951  -19.0974   21.0744 O   0  0  0  0  0  0
  -27.5553  -23.5165   20.0158 O   0  0  0  0  0  0
  -31.4667  -12.3976   19.1027 H   0  0  0  0  0  0
  -30.3366  -11.2738   19.7975 H   0  0  0  0  0  0
  -29.7238  -11.7671   17.4253 H   0  0  0  0  0  0
  -29.6695  -13.4800   17.7618 H   0  0  0  0  0  0
  -27.8149  -11.3142   18.8069 H   0  0  0  0  0  0
  -27.3628  -12.6557   17.7889 H   0  0  0  0  0  0
  -27.7181  -14.2534   19.5963 H   0  0  0  0  0  0
  -28.6732  -11.9182   21.3215 H   0  0  0  0  0  0
  -28.4725  -13.5470   21.8838 H   0  0  0  0  0  0
  -25.2744   -9.5705   22.4729 H   0  0  0  0  0  0
  -24.0011   -7.4635   22.7454 H   0  0  0  0  0  0
  -21.0789   -8.8741   19.8973 H   0  0  0  0  0  0
  -22.3603  -10.9668   19.6176 H   0  0  0  0  0  0
  -21.2019   -7.6143   23.9714 H   0  0  0  0  0  0
  -21.1465   -6.0515   25.9078 H   0  0  0  0  0  0
  -22.0599   -2.7595   23.2852 H   0  0  0  0  0  0
  -22.3965  -11.9842   22.4686 H   0  0  0  0  0  0
  -21.1054  -13.1312   22.2465 H   0  0  0  0  0  0
  -24.5846  -15.7311   20.2659 H   0  0  0  0  0  0
  -26.2218  -15.5487   19.8887 H   0  0  0  0  0  0
  -26.7112  -32.5541   23.1163 H   0  0  0  0  0  0
  -25.0073  -33.9783   25.0486 H   0  0  0  0  0  0
  -22.6887  -31.3082   21.4086 H   0  0  0  0  0  0
  -23.3744  -35.9655   23.3312 H   0  0  0  0  0  0
  -24.3577  -36.8915   22.2049 H   0  0  0  0  0  0
  -23.7243  -37.6531   23.6640 H   0  0  0  0  0  0
  -26.0354  -31.6053   20.5911 H   0  0  0  0  0  0
  -26.8174  -30.8947   21.9743 H   0  0  0  0  0  0
  -28.1069  -29.1273   21.1391 H   0  0  0  0  0  0
  -26.0770  -25.9563   19.0449 H   0  0  0  0  0  0
  -23.9775  -27.2759   19.0552 H   0  0  0  0  0  0
  -23.7134  -30.5911   19.4022 H   0  0  0  0  0  0
  -22.7336  -29.2349   19.8713 H   0  0  0  0  0  0
  -25.1285  -36.1977   25.0836 H   0  0  0  0  0  0
  -20.9954  -28.3226   24.1440 H   0  0  0  0  0  0
  -20.5663  -26.2273   23.3604 H   0  0  0  0  0  0
  -21.6640  -26.7443   22.1210 H   0  0  0  0  0  0
  -19.6905  -25.6297   21.1229 H   0  0  0  0  0  0
  -19.6680  -27.3210   20.6750 H   0  0  0  0  0  0
  -17.4192  -26.6673   21.4021 H   0  0  0  0  0  0
  -18.0321  -26.0053   22.9008 H   0  0  0  0  0  0
  -19.7923  -30.7250   24.2297 H   0  0  0  0  0  0
  -17.5004  -31.6267   24.5163 H   0  0  0  0  0  0
  -15.5342  -30.2997   23.7629 H   0  0  0  0  0  0
  -15.8656  -28.0822   22.7057 H   0  0  0  0  0  0
  -24.5907  -30.7060   25.7796 H   0  0  0  0  0  0
  -24.8960  -32.2860   26.4934 H   0  0  0  0  0  0
  -25.8106  -30.8843   27.0198 H   0  0  0  0  0  0
  -26.2827  -29.6812   24.1128 H   0  0  0  0  0  0
  -27.4074  -29.7263   25.4519 H   0  0  0  0  0  0
  -27.8665  -30.4365   23.9208 H   0  0  0  0  0  0
  -27.2663  -33.3593   26.2092 H   0  0  0  0  0  0
  -28.3843  -32.6894   25.0286 H   0  0  0  0  0  0
  -28.0742  -31.8405   26.5354 H   0  0  0  0  0  0
  -28.2608  -38.0096   24.7508 H   0  0  0  0  0  0
  -28.1056  -36.2635   24.6295 H   0  0  0  0  0  0
  -27.2299  -37.1474   25.8867 H   0  0  0  0  0  0
  -20.9285  -29.8753   21.6961 H   0  0  0  0  0  0
  -26.0182  -38.2877   24.1403 H   0  0  0  0  0  0
  -26.8100  -18.6039   21.8335 H   0  0  0  0  0  0
  -25.3265  -22.4740   20.7380 H   0  0  0  0  0  0
  -29.5176  -21.5773   20.2575 H   0  0  0  0  0  0
  -22.3917  -17.5056   21.0257 H   0  0  0  0  0  0
  -21.9233  -19.1525   21.4575 H   0  0  0  0  0  0
  -22.8327  -18.1572   22.5966 H   0  0  0  0  0  0
  -23.5300  -18.2941   18.9945 H   0  0  0  0  0  0
  -24.8496  -19.4436   19.0891 H   0  0  0  0  0  0
  -23.1877  -19.9932   19.3185 H   0  0  0  0  0  0
  -23.8449  -20.8982   21.7001 H   0  0  0  0  0  0
  -24.5861  -19.7761   22.8140 H   0  0  0  0  0  0
  -31.1146  -17.0535   21.9631 H   0  0  0  0  0  0
  -30.8565  -17.0884   20.2304 H   0  0  0  0  0  0
  -28.7538  -17.6003   22.3684 H   0  0  0  0  0  0
  -28.3600  -17.3518   20.6655 H   0  0  0  0  0  0
  -29.2300  -25.8107   21.6700 H   0  0  0  0  0  0
  -27.5252  -25.4996   21.5627 H   0  0  0  0  0  0
  -29.4392  -23.7037   20.9155 H   0  0  0  0  0  0
  -29.2903  -24.4202   19.3270 H   0  0  0  0  0  0
  -29.1414  -15.1591   21.6003 H   0  0  0  0  0  0
  -24.6536  -18.1625   21.0816 H   0  0  0  0  0  0
  1 25  1  0  0  0
  1 30  2  0  0  0
  1 84  1  0  0  0
  2  3  1  0  0  0
  2 25  1  0  0  0
  2 88  1  0  0  0
  2 89  1  0  0  0
  3  4  1  0  0  0
  3 90  1  0  0  0
  3 91  1  0  0  0
  4  5  1  0  0  0
  4 92  1  0  0  0
  4 93  1  0  0  0
  5  6  1  0  0  0
  5 26  1  0  0  0
  5 94  1  0  0  0
  6 25  1  0  0  0
  6 95  1  0  0  0
  6 96  1  0  0  0
  7  8  2  0  0  0
  7 26  1  0  0  0
  7 29  1  0  0  0
  8  9  1  0  0  0
  8 22  1  0  0  0
  9 10  1  0  0  0
  9 27  2  0  0  0
 10 11  2  0  0  0
 10 15  1  0  0  0
 11 12  1  0  0  0
 11 97  1  0  0  0
 12 13  2  0  0  0
 12 98  1  0  0  0
 13 14  1  0  0  0
 13 31  1  0  0  0
 14 15  2  0  0  0
 14 99  1  0  0  0
 15100  1  0  0  0
 16 17  2  0  0  0
 16 21  1  0  0  0
 16 31  1  0  0  0
 17 18  1  0  0  0
 17101  1  0  0  0
 18 19  2  0  0  0
 18102  1  0  0  0
 19 20  1  0  0  0
 19 24  1  0  0  0
 20 21  2  0  0  0
 20103  1  0  0  0
 21 23  1  0  0  0
 22 28  1  0  0  0
 22 32  2  0  0  0
 26 27  1  0  0  0
 28104  1  0  0  0
 28105  1  0  0  0
 29106  1  0  0  0
 29107  1  0  0  0
 33 34  1  0  0  0
 33 66  1  0  0  0
 33 70  2  0  0  0
 34 36  1  0  0  0
 34 59  1  0  0  0
 34108  1  0  0  0
 35 44  2  0  0  0
 35 45  1  0  0  0
 35 68  1  0  0  0
 36 56  1  0  0  0
 36109  1  0  0  0
 37 39  1  0  0  0
 37 47  1  0  0  0
 37 66  1  0  0  0
 37110  1  0  0  0
 38 43  2  0  0  0
 38 46  1  0  0  0
 38 47  1  0  0  0
 39 64  1  0  0  0
 39 67  2  0  0  0
 40 52  1  0  0  0
 40 53  2  0  0  0
 40 58  1  0  0  0
 41111  1  0  0  0
 41112  1  0  0  0
 41113  1  0  0  0
 41 48  1  0  0  0
 42 43  1  0  0  0
 42 66  1  0  0  0
 42114  1  0  0  0
 42115  1  0  0  0
 43 44  1  0  0  0
 44116  1  0  0  0
 45 46  2  0  0  0
 45117  1  0  0  0
 46118  1  0  0  0
 47119  1  0  0  0
 47120  1  0  0  0
 48 56  1  0  0  0
 48 65  1  0  0  0
 48121  1  0  0  0
 49 50  1  0  0  0
 49 53  1  0  0  0
 49 64  1  0  0  0
 49122  1  0  0  0
 50 51  1  0  0  0
 50123  1  0  0  0
 50124  1  0  0  0
 51 52  1  0  0  0
 51125  1  0  0  0
 51126  1  0  0  0
 52127  1  0  0  0
 52128  1  0  0  0
 53 54  1  0  0  0
 54 55  2  0  0  0
 54129  1  0  0  0
 55 57  1  0  0  0
 55130  1  0  0  0
 56 69  2  0  0  0
 57 58  2  0  0  0
 57131  1  0  0  0
 58132  1  0  0  0
 59 60  1  0  0  0
 59 61  1  0  0  0
 59 62  1  0  0  0
 60133  1  0  0  0
 60134  1  0  0  0
 60135  1  0  0  0
 61136  1  0  0  0
 61137  1  0  0  0
 61138  1  0  0  0
 62139  1  0  0  0
 62140  1  0  0  0
 62141  1  0  0  0
 63 65  1  0  0  0
 63142  1  0  0  0
 63143  1  0  0  0
 63144  1  0  0  0
 64145  1  0  0  0
 65146  1  0  0  0
 68 82  1  0  0  0
 71 74  2  0  0  0
 71 75  1  0  0  0
 71147  1  0  0  0
 72 74  1  0  0  0
 72 76  2  0  0  0
 72148  1  0  0  0
 73 75  2  0  0  0
 73 76  1  0  0  0
 73149  1  0  0  0
 74 79  1  0  0  0
 75 86  1  0  0  0
 76 87  1  0  0  0
 77150  1  0  0  0
 77151  1  0  0  0
 77152  1  0  0  0
 77 85  1  0  0  0
 78 85  1  0  0  0
 78153  1  0  0  0
 78154  1  0  0  0
 78155  1  0  0  0
 79 85  1  0  0  0
 79156  1  0  0  0
 79157  1  0  0  0
 80 81  1  0  0  0
 80 84  1  0  0  0
 80158  1  0  0  0
 80159  1  0  0  0
 81 86  1  0  0  0
 81160  1  0  0  0
 81161  1  0  0  0
 82 83  1  0  0  0
 82162  1  0  0  0
 82163  1  0  0  0
 83 87  1  0  0  0
 83164  1  0  0  0
 83165  1  0  0  0
 84166  1  0  0  0
 85167  1  0  0  0
M  CHG  1  85   1
M  ISO  4   1 100  68 101  82 101  84 100
M  END
> <chiral flag>
0

> <version>
0

> <s_m_source_file>
/data/baiqing/PycharmProjects/Reinvent-master-3.2/result/LINK_invent/BTK/process_docking_weight1_custom_sum_contain_oxygen_bond_distance_aromatic_linkinvent_7_9_3/rearranged_h_0139.sdf

> <i_m_source_file_index>
97

> <r_mmod_Potential_Energy-OPLS-2005>
-256.561370849609

> <r_mmod_Stretch_Energy-OPLS-2005>
37.6925239562988

> <r_mmod_Bend_Energy-OPLS-2005>
100.582496643066

> <r_mmod_Torsional_Energy-OPLS-2005>
229.607284545898

> <r_mmod_Improper_Torsional_Energy-OPLS-2005>
6.29346752166748

> <r_mmod_Van_der_Waal_Energy-OPLS-2005>
151.177810668945

> <r_mmod_Electrostatic_Energy-OPLS-2005>
-327.209503173828

> <r_mmod_Solvation_Energy-OPLS-2005>
-463.771881103516

> <b_mmod_Minimization_Converged-OPLS-2005>
0

> <r_mmod_RMS_Derivative-OPLS-2005>
2.02759027481079

$$$$
97
                    3D
 Structure written by MMmdl.
171179  0  0  1  0            999 V2000
  -30.6353  -14.5256   20.6280 C   0  0  0  0  0  0
  -30.4324  -12.3536   19.4563 C   0  0  0  0  0  0
  -29.4994  -12.5288   18.2331 C   0  0  0  0  0  0
  -28.0110  -12.4158   18.6170 C   0  0  0  0  0  0
  -27.6562  -13.2157   19.9024 C   0  0  2  0  0  0
  -28.6917  -12.9560   21.0217 C   0  0  0  0  0  0
  -25.2531  -13.8192   20.5782 C   0  0  0  0  0  0
  -24.1778  -13.0491   20.9249 C   0  0  0  0  0  0
  -24.6344  -11.6975   20.8722 C   0  0  0  0  0  0
  -23.9038  -10.4370   21.0426 C   0  0  0  0  0  0
  -24.3659   -9.4277   21.9174 C   0  0  0  0  0  0
  -23.6344   -8.2277   22.0756 C   0  0  0  0  0  0
  -22.4283   -8.0331   21.3544 C   0  0  0  0  0  0
  -21.9934   -9.0291   20.4633 C   0  0  0  0  0  0
  -22.7257  -10.2208   20.3042 C   0  0  0  0  0  0
  -21.6882   -6.0785   22.5339 C   0  0  0  0  0  0
  -21.4004   -6.5666   23.8263 C   0  0  0  0  0  0
  -21.3666   -5.6819   24.9217 C   0  0  0  0  0  0
  -21.6043   -4.3060   24.7260 C   0  0  0  0  0  0
  -21.8800   -3.8190   23.4358 C   0  0  0  0  0  0
  -21.9203   -4.7026   22.3435 C   0  0  0  0  0  0
  -22.7808  -13.5272   21.1909 C   0  0  0  0  0  0
  -22.1668   -4.2195   21.0999 F   0  0  0  0  0  0
  -21.5665   -3.4558   25.7759 F   0  0  0  0  0  0
  -30.0181  -13.3143   20.4956 N   0  0  0  0  0  0
  -26.2981  -12.9399   20.3442 N   0  0  0  0  0  0
  -25.9264  -11.6533   20.5752 N   0  0  0  0  0  0
  -22.0428  -12.8248   22.0506 N   0  0  0  0  0  0
  -25.4214  -15.1938   20.4416 N   0  0  0  0  0  0
  -31.7247  -14.7762   20.1052 O   0  0  0  0  0  0
  -21.6670   -6.8941   21.4270 O   0  0  0  0  0  0
  -22.3505  -14.5607   20.6869 O   0  0  0  0  0  0
  -24.6354  -31.8711   23.1941 C   0  0  0  0  0  0
  -25.9143  -32.4855   23.8322 C   0  0  1  0  0  0
  -27.2622  -27.4299   20.0875 C   0  0  0  0  0  0
  -25.5925  -33.8595   24.2293 N   0  0  0  0  0  0
  -23.5594  -30.2594   21.6532 C   0  0  2  0  0  0
  -24.9098  -28.9880   19.9963 C   0  0  0  0  0  0
  -22.6869  -29.4552   22.6455 C   0  0  0  0  0  0
  -18.0134  -28.1258   22.8499 C   0  0  0  0  0  0
  -24.1515  -36.7284   23.2646 C   0  0  0  0  0  0
  -25.9711  -30.8842   21.3033 C   0  0  0  0  0  0
  -26.0675  -29.5140   20.6148 C   0  0  0  0  0  0
  -27.2364  -28.7161   20.6820 C   0  0  0  0  0  0
  -26.0915  -26.9359   19.4777 C   0  0  0  0  0  0
  -24.9078  -27.6983   19.4424 C   0  0  0  0  0  0
  -23.6176  -29.7713   20.1865 C   0  0  0  0  0  0
  -25.4116  -36.3044   24.0350 C   0  0  1  0  0  0
  -20.5503  -28.3626   23.1150 C   0  0  2  0  0  0
  -20.6563  -26.9372   22.5032 C   0  0  0  0  0  0
  -19.5418  -26.6195   21.5073 C   0  0  0  0  0  0
  -18.1863  -26.7667   22.2057 C   0  0  0  0  0  0
  -19.1321  -28.8894   23.2679 C   0  0  0  0  0  0
  -18.9231  -30.1652   23.8312 C   0  0  0  0  0  0
  -17.6193  -30.6585   24.0125 C   0  0  0  0  0  0
  -25.9043  -34.9474   23.5116 C   0  0  0  0  0  0
  -16.5107  -29.8866   23.6259 C   0  0  0  0  0  0
  -16.7135  -28.6278   23.0354 C   0  0  0  0  0  0
  -26.4496  -31.6575   25.0657 C   0  0  0  0  0  0
  -25.3740  -31.3737   26.1401 C   0  0  0  0  0  0
  -27.0301  -30.3062   24.5947 C   0  0  0  0  0  0
  -27.6056  -32.4286   25.7399 C   0  0  0  0  0  0
  -27.5597  -37.1809   24.8491 C   0  0  0  0  0  0
  -21.3884  -29.3127   22.3850 N   0  0  0  0  0  0
  -26.4291  -37.3765   23.9423 N   0  0  0  0  0  0
  -24.6946  -31.1298   22.0510 N   0  0  0  0  0  0
  -23.2073  -28.8685   23.6103 O   0  0  0  0  0  0
  -28.4373  -26.7140   19.9363 O   0  0  0  0  0  0
  -26.5637  -34.8993   22.4664 O   0  0  0  0  0  0
  -23.5550  -32.1093   23.7489 O   0  0  0  0  0  0
  -25.2464  -22.3112   21.3720 C   0  0  0  0  0  0
  -25.9714  -23.1252   20.4940 C   0  0  0  0  0  0
  -27.9198  -21.6881   20.8038 C   0  0  0  0  0  0
  -25.8486  -21.1961   21.9929 C   0  0  0  0  0  0
  -27.3415  -22.8749   20.2914 C   0  0  0  0  0  0
  -27.1801  -20.8167   21.6413 C   0  0  0  0  0  0
  -25.2112  -20.7580   25.6955 C   0  0  0  0  0  0
  -24.2441  -19.2901   22.6723 C   0  0  0  0  0  0
  -25.8916  -20.3034   24.3926 C   0  0  0  0  0  0
  -29.1612  -17.7037   22.1960 C   0  0  0  0  0  0
  -30.2250  -16.9246   21.3595 C   0  0  0  0  0  0
  -29.2209  -24.4142   20.3791 C   0  0  0  0  0  0
  -29.0512  -19.2274   21.9037 C   0  0  0  0  0  0
  -28.8391  -25.8098   20.9682 C   0  0  0  0  0  0
  -25.0527  -20.5307   23.1225 C   0  0  1  0  0  0
  -28.1244  -23.8171   19.6140 N   0  0  0  0  0  0
  -29.9305  -15.4696   21.3005 N   0  0  0  0  0  0
  -27.7054  -19.6489   22.1867 O   0  0  0  0  0  0
  -31.4684  -12.5101   19.1464 H   0  0  0  0  0  0
  -30.3912  -11.3344   19.8450 H   0  0  0  0  0  0
  -29.7493  -11.7910   17.4660 H   0  0  0  0  0  0
  -29.6779  -13.5180   17.8042 H   0  0  0  0  0  0
  -27.7670  -11.3643   18.7454 H   0  0  0  0  0  0
  -27.3928  -12.7741   17.7949 H   0  0  0  0  0  0
  -27.7154  -14.2760   19.6517 H   0  0  0  0  0  0
  -28.6705  -11.9020   21.3229 H   0  0  0  0  0  0
  -28.4324  -13.5161   21.9236 H   0  0  0  0  0  0
  -25.2854   -9.5821   22.4681 H   0  0  0  0  0  0
  -24.0131   -7.4709   22.7489 H   0  0  0  0  0  0
  -21.0867   -8.8820   19.8945 H   0  0  0  0  0  0
  -22.3704  -10.9748   19.6136 H   0  0  0  0  0  0
  -21.1912   -7.6168   23.9775 H   0  0  0  0  0  0
  -21.1517   -6.0534   25.9117 H   0  0  0  0  0  0
  -22.0544   -2.7651   23.2865 H   0  0  0  0  0  0
  -22.4088  -11.9891   22.4831 H   0  0  0  0  0  0
  -21.1045  -13.1259   22.2716 H   0  0  0  0  0  0
  -24.6665  -15.8459   20.6224 H   0  0  0  0  0  0
  -26.2809  -15.6606   20.1823 H   0  0  0  0  0  0
  -26.7237  -32.5584   23.1083 H   0  0  0  0  0  0
  -25.0010  -33.9631   25.0444 H   0  0  0  0  0  0
  -24.2254  -29.4937   21.9986 H   0  0  0  0  0  0
  -23.3791  -35.9619   23.3302 H   0  0  0  0  0  0
  -24.3661  -36.8900   22.2072 H   0  0  0  0  0  0
  -23.7289  -37.6506   23.6661 H   0  0  0  0  0  0
  -26.1013  -31.6614   20.5458 H   0  0  0  0  0  0
  -26.8525  -30.9289   21.9304 H   0  0  0  0  0  0
  -28.1204  -29.0997   21.1642 H   0  0  0  0  0  0
  -26.0990  -25.9620   19.0103 H   0  0  0  0  0  0
  -24.0135  -27.2809   19.0001 H   0  0  0  0  0  0
  -23.5538  -30.6096   19.4877 H   0  0  0  0  0  0
  -22.7661  -29.1232   19.9700 H   0  0  0  0  0  0
  -25.1327  -36.1900   25.0870 H   0  0  0  0  0  0
  -20.9142  -28.2934   24.1447 H   0  0  0  0  0  0
  -20.5956  -26.2000   23.3047 H   0  0  0  0  0  0
  -21.6311  -26.7636   22.0490 H   0  0  0  0  0  0
  -19.6595  -25.5977   21.1296 H   0  0  0  0  0  0
  -19.5905  -27.2806   20.6411 H   0  0  0  0  0  0
  -17.3545  -26.5548   21.5294 H   0  0  0  0  0  0
  -18.1327  -26.0221   23.0029 H   0  0  0  0  0  0
  -19.7674  -30.7884   24.1224 H   0  0  0  0  0  0
  -17.4789  -31.6369   24.4478 H   0  0  0  0  0  0
  -15.5050  -30.2638   23.7758 H   0  0  0  0  0  0
  -15.8664  -28.0392   22.7091 H   0  0  0  0  0  0
  -24.5863  -30.7108   25.7791 H   0  0  0  0  0  0
  -24.8945  -32.2916   26.4837 H   0  0  0  0  0  0
  -25.8044  -30.8908   27.0172 H   0  0  0  0  0  0
  -26.2841  -29.6821   24.0990 H   0  0  0  0  0  0
  -27.4163  -29.7308   25.4367 H   0  0  0  0  0  0
  -27.8619  -30.4502   23.9039 H   0  0  0  0  0  0
  -27.2669  -33.3624   26.1945 H   0  0  0  0  0  0
  -28.3824  -32.6809   25.0141 H   0  0  0  0  0  0
  -28.0717  -31.8377   26.5292 H   0  0  0  0  0  0
  -28.2649  -38.0083   24.7477 H   0  0  0  0  0  0
  -28.1045  -36.2600   24.6346 H   0  0  0  0  0  0
  -27.2309  -37.1502   25.8905 H   0  0  0  0  0  0
  -20.9625  -29.8257   21.6270 H   0  0  0  0  0  0
  -26.0181  -38.2878   24.1333 H   0  0  0  0  0  0
  -24.2324  -22.6015   21.6299 H   0  0  0  0  0  0
  -25.4396  -23.9738   20.0860 H   0  0  0  0  0  0
  -28.9606  -21.4873   20.5831 H   0  0  0  0  0  0
  -25.8640  -20.5349   26.5409 H   0  0  0  0  0  0
  -24.2349  -20.2921   25.8562 H   0  0  0  0  0  0
  -25.0761  -21.8386   25.6838 H   0  0  0  0  0  0
  -24.8786  -18.4740   22.3294 H   0  0  0  0  0  0
  -23.6465  -18.9150   23.5102 H   0  0  0  0  0  0
  -23.5392  -19.5280   21.8688 H   0  0  0  0  0  0
  -26.1960  -19.2608   24.4447 H   0  0  0  0  0  0
  -26.8030  -20.8930   24.3333 H   0  0  0  0  0  0
  -28.1795  -17.2815   22.0020 H   0  0  0  0  0  0
  -29.3579  -17.5537   23.2677 H   0  0  0  0  0  0
  -30.2916  -17.3303   20.3459 H   0  0  0  0  0  0
  -31.2057  -17.0846   21.8122 H   0  0  0  0  0  0
  -29.5868  -23.7527   21.1835 H   0  0  0  0  0  0
  -30.0581  -24.5025   19.6771 H   0  0  0  0  0  0
  -29.3376  -19.4125   20.8716 H   0  0  0  0  0  0
  -29.7650  -19.7790   22.5148 H   0  0  0  0  0  0
  -29.7394  -26.2411   21.4064 H   0  0  0  0  0  0
  -28.1205  -25.7460   21.7804 H   0  0  0  0  0  0
  -24.3127  -21.2721   23.4261 H   0  0  0  0  0  0
  -27.5954  -24.5483   19.1539 H   0  0  0  0  0  0
  -29.0821  -15.1477   21.7378 H   0  0  0  0  0  0
  1 25  1  0  0  0
  1 30  2  0  0  0
  1 87  1  0  0  0
  2  3  1  0  0  0
  2 25  1  0  0  0
  2 89  1  0  0  0
  2 90  1  0  0  0
  3  4  1  0  0  0
  3 91  1  0  0  0
  3 92  1  0  0  0
  4  5  1  0  0  0
  4 93  1  0  0  0
  4 94  1  0  0  0
  5  6  1  0  0  0
  5 26  1  0  0  0
  5 95  1  0  0  0
  6 25  1  0  0  0
  6 96  1  0  0  0
  6 97  1  0  0  0
  7  8  2  0  0  0
  7 26  1  0  0  0
  7 29  1  0  0  0
  8  9  1  0  0  0
  8 22  1  0  0  0
  9 10  1  0  0  0
  9 27  2  0  0  0
 10 11  2  0  0  0
 10 15  1  0  0  0
 11 12  1  0  0  0
 11 98  1  0  0  0
 12 13  2  0  0  0
 12 99  1  0  0  0
 13 14  1  0  0  0
 13 31  1  0  0  0
 14 15  2  0  0  0
 14100  1  0  0  0
 15101  1  0  0  0
 16 17  2  0  0  0
 16 21  1  0  0  0
 16 31  1  0  0  0
 17 18  1  0  0  0
 17102  1  0  0  0
 18 19  2  0  0  0
 18103  1  0  0  0
 19 20  1  0  0  0
 19 24  1  0  0  0
 20 21  2  0  0  0
 20104  1  0  0  0
 21 23  1  0  0  0
 22 28  1  0  0  0
 22 32  2  0  0  0
 26 27  1  0  0  0
 28105  1  0  0  0
 28106  1  0  0  0
 29107  1  0  0  0
 29108  1  0  0  0
 33 34  1  0  0  0
 33 66  1  0  0  0
 33 70  2  0  0  0
 34 36  1  0  0  0
 34 59  1  0  0  0
 34109  1  0  0  0
 35 44  2  0  0  0
 35 45  1  0  0  0
 35 68  1  0  0  0
 36 56  1  0  0  0
 36110  1  0  0  0
 37 39  1  0  0  0
 37 47  1  0  0  0
 37 66  1  0  0  0
 37111  1  0  0  0
 38 43  2  0  0  0
 38 46  1  0  0  0
 38 47  1  0  0  0
 39 64  1  0  0  0
 39 67  2  0  0  0
 40 52  1  0  0  0
 40 53  2  0  0  0
 40 58  1  0  0  0
 41112  1  0  0  0
 41113  1  0  0  0
 41114  1  0  0  0
 41 48  1  0  0  0
 42 43  1  0  0  0
 42 66  1  0  0  0
 42115  1  0  0  0
 42116  1  0  0  0
 43 44  1  0  0  0
 44117  1  0  0  0
 45 46  2  0  0  0
 45118  1  0  0  0
 46119  1  0  0  0
 47120  1  0  0  0
 47121  1  0  0  0
 48 56  1  0  0  0
 48 65  1  0  0  0
 48122  1  0  0  0
 49 50  1  0  0  0
 49 53  1  0  0  0
 49 64  1  0  0  0
 49123  1  0  0  0
 50 51  1  0  0  0
 50124  1  0  0  0
 50125  1  0  0  0
 51 52  1  0  0  0
 51126  1  0  0  0
 51127  1  0  0  0
 52128  1  0  0  0
 52129  1  0  0  0
 53 54  1  0  0  0
 54 55  2  0  0  0
 54130  1  0  0  0
 55 57  1  0  0  0
 55131  1  0  0  0
 56 69  2  0  0  0
 57 58  2  0  0  0
 57132  1  0  0  0
 58133  1  0  0  0
 59 60  1  0  0  0
 59 61  1  0  0  0
 59 62  1  0  0  0
 60134  1  0  0  0
 60135  1  0  0  0
 60136  1  0  0  0
 61137  1  0  0  0
 61138  1  0  0  0
 61139  1  0  0  0
 62140  1  0  0  0
 62141  1  0  0  0
 62142  1  0  0  0
 63 65  1  0  0  0
 63143  1  0  0  0
 63144  1  0  0  0
 63145  1  0  0  0
 64146  1  0  0  0
 65147  1  0  0  0
 68 84  1  0  0  0
 71 72  2  0  0  0
 71 74  1  0  0  0
 71148  1  0  0  0
 72 75  1  0  0  0
 72149  1  0  0  0
 73 75  2  0  0  0
 73 76  1  0  0  0
 73150  1  0  0  0
 74 76  2  0  0  0
 74 85  1  0  0  0
 75 86  1  0  0  0
 76 88  1  0  0  0
 77 79  1  0  0  0
 77151  1  0  0  0
 77152  1  0  0  0
 77153  1  0  0  0
 78154  1  0  0  0
 78155  1  0  0  0
 78156  1  0  0  0
 78 85  1  0  0  0
 79 85  1  0  0  0
 79157  1  0  0  0
 79158  1  0  0  0
 80 81  1  0  0  0
 80 83  1  0  0  0
 80159  1  0  0  0
 80160  1  0  0  0
 81 87  1  0  0  0
 81161  1  0  0  0
 81162  1  0  0  0
 82 84  1  0  0  0
 82 86  1  0  0  0
 82163  1  0  0  0
 82164  1  0  0  0
 83 88  1  0  0  0
 83165  1  0  0  0
 83166  1  0  0  0
 84167  1  0  0  0
 84168  1  0  0  0
 85169  1  0  0  0
 86170  1  0  0  0
 87171  1  0  0  0
M  ISO  4   1 100  68 101  84 101  87 100
M  END
> <chiral flag>
0

> <version>
0

> <s_m_source_file>
/data/baiqing/PycharmProjects/Reinvent-master-3.2/result/LINK_invent/BTK/process_docking_weight1_custom_sum_contain_oxygen_bond_distance_aromatic_linkinvent_7_9_3/rearranged_h_0139.sdf

> <i_m_source_file_index>
98

> <r_mmod_Potential_Energy-OPLS-2005>
238.404205322266

> <r_mmod_Stretch_Energy-OPLS-2005>
47.422966003418

> <r_mmod_Bend_Energy-OPLS-2005>
239.800094604492

> <r_mmod_Torsional_Energy-OPLS-2005>
285.914947509766

> <r_mmod_Improper_Torsional_Energy-OPLS-2005>
11.9054269790649

> <r_mmod_Van_der_Waal_Energy-OPLS-2005>
195.930877685547

> <r_mmod_Electrostatic_Energy-OPLS-2005>
-378.561950683594

> <r_mmod_Solvation_Energy-OPLS-2005>
-214.284133911133

> <b_mmod_Minimization_Converged-OPLS-2005>
0

> <r_mmod_RMS_Derivative-OPLS-2005>
16.9080600738525

$$$$
98
                    3D
 Structure written by MMmdl.
174184  0  0  1  0            999 V2000
  -30.5237  -14.9159   20.4239 C   0  0  0  0  0  0
  -30.4391  -12.5669   19.4803 C   0  0  0  0  0  0
  -29.5143  -12.5333   18.2417 C   0  0  0  0  0  0
  -28.0411  -12.3347   18.6526 C   0  0  0  0  0  0
  -27.6264  -13.2434   19.8392 C   0  0  2  0  0  0
  -28.6735  -13.2376   20.9704 C   0  0  0  0  0  0
  -25.2429  -13.8210   20.5689 C   0  0  0  0  0  0
  -24.1748  -13.0431   20.9215 C   0  0  0  0  0  0
  -24.6373  -11.6917   20.8751 C   0  0  0  0  0  0
  -23.9073  -10.4282   21.0405 C   0  0  0  0  0  0
  -24.3633   -9.4194   21.9175 C   0  0  0  0  0  0
  -23.6303   -8.2235   22.0749 C   0  0  0  0  0  0
  -22.4282   -8.0279   21.3539 C   0  0  0  0  0  0
  -21.9923   -9.0251   20.4636 C   0  0  0  0  0  0
  -22.7256  -10.2126   20.3041 C   0  0  0  0  0  0
  -21.6858   -6.0735   22.5273 C   0  0  0  0  0  0
  -21.4017   -6.5638   23.8205 C   0  0  0  0  0  0
  -21.3662   -5.6787   24.9165 C   0  0  0  0  0  0
  -21.6044   -4.3048   24.7213 C   0  0  0  0  0  0
  -21.8822   -3.8144   23.4329 C   0  0  0  0  0  0
  -21.9190   -4.6963   22.3388 C   0  0  0  0  0  0
  -22.7761  -13.5190   21.1887 C   0  0  0  0  0  0
  -22.1657   -4.2153   21.0965 F   0  0  0  0  0  0
  -21.5633   -3.4531   25.7721 F   0  0  0  0  0  0
  -29.9468  -13.6525   20.3664 N   0  0  0  0  0  0
  -26.2848  -12.9428   20.3237 N   0  0  0  0  0  0
  -25.9304  -11.6564   20.5747 N   0  0  0  0  0  0
  -22.0438  -12.8152   22.0445 N   0  0  0  0  0  0
  -25.4086  -15.1940   20.4101 N   0  0  0  0  0  0
  -31.7423  -15.0046   20.2288 O   0  0  0  0  0  0
  -21.6638   -6.8882   21.4236 O   0  0  0  0  0  0
  -22.3421  -14.5496   20.6747 O   0  0  0  0  0  0
  -24.6380  -31.8443   23.1838 C   0  0  0  0  0  0
  -25.9150  -32.4702   23.8230 C   0  0  1  0  0  0
  -27.2191  -27.1454   20.1467 C   0  0  0  0  0  0
  -25.5890  -33.8504   24.2150 N   0  0  0  0  0  0
  -23.4431  -30.4582   21.5280 C   0  0  2  0  0  0
  -24.8906  -28.8798   20.1052 C   0  0  0  0  0  0
  -22.7547  -29.4533   22.4838 C   0  0  0  0  0  0
  -18.0333  -28.1402   22.8511 C   0  0  0  0  0  0
  -24.1477  -36.7250   23.2667 C   0  0  0  0  0  0
  -25.9936  -30.7164   21.3801 C   0  0  0  0  0  0
  -26.0649  -29.3279   20.7238 C   0  0  0  0  0  0
  -27.2257  -28.4756   20.7288 C   0  0  0  0  0  0
  -26.0231  -26.7868   19.4918 C   0  0  0  0  0  0
  -24.8823  -27.6221   19.4759 C   0  0  0  0  0  0
  -23.6690  -29.7843   20.1473 C   0  0  0  0  0  0
  -25.4111  -36.3034   24.0342 C   0  0  1  0  0  0
  -20.5929  -28.3691   23.1258 C   0  0  2  0  0  0
  -20.6804  -26.9394   22.5405 C   0  0  0  0  0  0
  -19.5757  -26.6376   21.5230 C   0  0  0  0  0  0
  -18.1950  -26.7946   22.1646 C   0  0  0  0  0  0
  -19.1585  -28.8866   23.2887 C   0  0  0  0  0  0
  -18.9508  -30.1491   23.8855 C   0  0  0  0  0  0
  -17.6499  -30.6590   24.0574 C   0  0  0  0  0  0
  -25.9064  -34.9420   23.5062 C   0  0  0  0  0  0
  -16.5398  -29.9091   23.6349 C   0  0  0  0  0  0
  -16.7317  -28.6512   23.0357 C   0  0  0  0  0  0
  -26.4479  -31.6582   25.0663 C   0  0  0  0  0  0
  -25.3701  -31.3794   26.1385 C   0  0  0  0  0  0
  -27.0352  -30.2990   24.6227 C   0  0  0  0  0  0
  -27.5989  -32.4361   25.7454 C   0  0  0  0  0  0
  -27.5563  -37.1781   24.8477 C   0  0  0  0  0  0
  -21.4243  -29.3027   22.3620 N   0  0  0  0  0  0
  -26.4272  -37.3750   23.9437 N   0  0  0  0  0  0
  -24.7110  -31.0300   22.0853 N   0  0  0  0  0  0
  -23.4200  -28.8118   23.3009 O   0  0  0  0  0  0
  -28.3041  -26.2089   20.2389 O   0  0  0  0  0  0
  -26.5674  -34.8924   22.4651 O   0  0  0  0  0  0
  -23.5487  -32.1303   23.7055 O   0  0  0  0  0  0
  -30.7661  -18.1141   21.5545 C   0  0  0  0  0  0
  -29.1456  -18.6940   20.1414 C   0  0  0  0  0  0
  -29.8613  -17.5590   20.6158 C   0  0  0  0  0  0
  -30.5681  -19.4821   21.6627 C   0  0  0  0  0  0
  -29.9671  -22.4645   19.7413 C   0  0  0  0  0  0
  -27.6750  -22.0213   20.4390 C   0  0  0  0  0  0
  -35.1481  -17.8120   22.1868 C   0  0  0  0  0  0
  -35.8426  -18.8947   21.3840 C   0  0  0  0  0  0
  -29.7517  -24.0427   20.0039 C   0  0  0  0  0  0
  -27.4450  -23.6156   20.7051 C   0  0  0  0  0  0
  -29.1443  -21.4827   20.6552 C   0  0  1  0  0  0
  -34.8959  -19.2715   22.4999 C   0  0  0  0  0  0
  -28.3041  -24.6897   19.8951 C   0  0  2  0  0  0
  -30.3061  -20.5566   23.9097 C   0  0  0  0  0  0
  -32.6157  -19.9310   23.1536 C   0  0  0  0  0  0
  -31.2210  -20.3976   22.6789 C   0  0  1  0  0  0
  -29.5665  -19.9390   20.7645 N   0  0  0  0  0  0
  -29.6814  -16.0596   20.3936 N   0  0  0  0  0  0
  -33.5817  -19.7820   22.0485 N   0  3  0  0  0  0
  -31.4720  -12.7321   19.1698 H   0  0  0  0  0  0
  -30.4337  -11.6083   20.0010 H   0  0  0  0  0  0
  -29.8234  -11.7424   17.5582 H   0  0  0  0  0  0
  -29.6128  -13.4699   17.6904 H   0  0  0  0  0  0
  -27.9083  -11.2871   18.9236 H   0  0  0  0  0  0
  -27.3860  -12.5119   17.7982 H   0  0  0  0  0  0
  -27.5956  -14.2531   19.4318 H   0  0  0  0  0  0
  -28.7501  -12.2491   21.4256 H   0  0  0  0  0  0
  -28.3823  -13.9236   21.7671 H   0  0  0  0  0  0
  -25.2787   -9.5656   22.4746 H   0  0  0  0  0  0
  -24.0010   -7.4612   22.7453 H   0  0  0  0  0  0
  -21.0867   -8.8764   19.8925 H   0  0  0  0  0  0
  -22.3729  -10.9663   19.6139 H   0  0  0  0  0  0
  -21.2021   -7.6150   23.9712 H   0  0  0  0  0  0
  -21.1486   -6.0515   25.9070 H   0  0  0  0  0  0
  -22.0606   -2.7614   23.2819 H   0  0  0  0  0  0
  -22.4099  -11.9831   22.4828 H   0  0  0  0  0  0
  -21.1044  -13.1126   22.2671 H   0  0  0  0  0  0
  -24.6419  -15.8471   20.5270 H   0  0  0  0  0  0
  -26.2492  -15.6373   20.0671 H   0  0  0  0  0  0
  -26.7207  -32.5288   23.0951 H   0  0  0  0  0  0
  -24.9983  -33.9627   25.0252 H   0  0  0  0  0  0
  -22.7456  -31.2843   21.3752 H   0  0  0  0  0  0
  -23.3751  -35.9565   23.3307 H   0  0  0  0  0  0
  -24.3565  -36.8873   22.2084 H   0  0  0  0  0  0
  -23.7210  -37.6440   23.6691 H   0  0  0  0  0  0
  -26.1512  -31.4675   20.6043 H   0  0  0  0  0  0
  -26.8637  -30.7627   22.0246 H   0  0  0  0  0  0
  -28.1179  -28.8155   21.2357 H   0  0  0  0  0  0
  -25.9474  -25.8220   19.0133 H   0  0  0  0  0  0
  -23.9814  -27.2751   18.9882 H   0  0  0  0  0  0
  -23.8123  -30.5563   19.3887 H   0  0  0  0  0  0
  -22.7791  -29.2336   19.8350 H   0  0  0  0  0  0
  -25.1304  -36.1847   25.0836 H   0  0  0  0  0  0
  -21.0082  -28.3261   24.1354 H   0  0  0  0  0  0
  -20.5691  -26.2298   23.3621 H   0  0  0  0  0  0
  -21.6674  -26.7397   22.1201 H   0  0  0  0  0  0
  -19.6882  -25.6284   21.1260 H   0  0  0  0  0  0
  -19.6679  -27.3204   20.6769 H   0  0  0  0  0  0
  -17.4222  -26.6753   21.4043 H   0  0  0  0  0  0
  -18.0305  -26.0083   22.9024 H   0  0  0  0  0  0
  -19.7975  -30.7364   24.2143 H   0  0  0  0  0  0
  -17.5043  -31.6259   24.5197 H   0  0  0  0  0  0
  -15.5385  -30.2981   23.7664 H   0  0  0  0  0  0
  -15.8742  -28.0833   22.7043 H   0  0  0  0  0  0
  -24.5883  -30.7111   25.7767 H   0  0  0  0  0  0
  -24.8867  -32.2996   26.4683 H   0  0  0  0  0  0
  -25.8016  -30.9098   27.0247 H   0  0  0  0  0  0
  -26.2970  -29.6732   24.1206 H   0  0  0  0  0  0
  -27.3957  -29.7244   25.4767 H   0  0  0  0  0  0
  -27.8876  -30.4270   23.9552 H   0  0  0  0  0  0
  -27.2566  -33.3703   26.1944 H   0  0  0  0  0  0
  -28.3870  -32.6828   25.0331 H   0  0  0  0  0  0
  -28.0590  -31.8527   26.5443 H   0  0  0  0  0  0
  -28.2590  -38.0076   24.7530 H   0  0  0  0  0  0
  -28.1056  -36.2602   24.6296 H   0  0  0  0  0  0
  -27.2293  -37.1436   25.8889 H   0  0  0  0  0  0
  -20.9412  -29.8701   21.6802 H   0  0  0  0  0  0
  -26.0125  -38.2814   24.1442 H   0  0  0  0  0  0
  -31.4436  -17.5382   22.1707 H   0  0  0  0  0  0
  -28.3386  -18.7361   19.4219 H   0  0  0  0  0  0
  -31.0258  -22.2341   19.8583 H   0  0  0  0  0  0
  -29.7396  -22.2457   18.6975 H   0  0  0  0  0  0
  -27.3583  -21.7842   19.4219 H   0  0  0  0  0  0
  -27.0071  -21.4588   21.0917 H   0  0  0  0  0  0
  -35.7558  -17.2473   22.8917 H   0  0  0  0  0  0
  -34.3738  -17.2354   21.6828 H   0  0  0  0  0  0
  -35.5245  -19.0495   20.3551 H   0  0  0  0  0  0
  -36.9058  -19.0447   21.5655 H   0  0  0  0  0  0
  -30.4167  -24.5952   19.3368 H   0  0  0  0  0  0
  -30.1243  -24.2474   21.0069 H   0  0  0  0  0  0
  -27.6050  -23.8011   21.7671 H   0  0  0  0  0  0
  -26.3897  -23.8338   20.5401 H   0  0  0  0  0  0
  -29.3292  -21.8608   21.6547 H   0  0  0  0  0  0
  -35.3023  -19.7364   23.3974 H   0  0  0  0  0  0
  -28.0022  -24.6171   18.8485 H   0  0  0  0  0  0
  -29.3184  -20.9387   23.6538 H   0  0  0  0  0  0
  -30.7353  -21.2401   24.6434 H   0  0  0  0  0  0
  -30.1545  -19.5961   24.4063 H   0  0  0  0  0  0
  -32.5367  -18.9883   23.6949 H   0  0  0  0  0  0
  -33.0208  -20.6543   23.8621 H   0  0  0  0  0  0
  -31.3643  -21.3828   22.2372 H   0  0  0  0  0  0
  -28.7204  -15.7940   20.2440 H   0  0  0  0  0  0
  -33.1831  -19.1759   21.3491 H   0  0  0  0  0  0
  -33.7097  -20.6900   21.6310 H   0  0  0  0  0  0
  1 25  1  0  0  0
  1 30  2  0  0  0
  1 88  1  0  0  0
  2  3  1  0  0  0
  2 25  1  0  0  0
  2 90  1  0  0  0
  2 91  1  0  0  0
  3  4  1  0  0  0
  3 92  1  0  0  0
  3 93  1  0  0  0
  4  5  1  0  0  0
  4 94  1  0  0  0
  4 95  1  0  0  0
  5  6  1  0  0  0
  5 26  1  0  0  0
  5 96  1  0  0  0
  6 25  1  0  0  0
  6 97  1  0  0  0
  6 98  1  0  0  0
  7  8  2  0  0  0
  7 26  1  0  0  0
  7 29  1  0  0  0
  8  9  1  0  0  0
  8 22  1  0  0  0
  9 10  1  0  0  0
  9 27  2  0  0  0
 10 11  2  0  0  0
 10 15  1  0  0  0
 11 12  1  0  0  0
 11 99  1  0  0  0
 12 13  2  0  0  0
 12100  1  0  0  0
 13 14  1  0  0  0
 13 31  1  0  0  0
 14 15  2  0  0  0
 14101  1  0  0  0
 15102  1  0  0  0
 16 17  2  0  0  0
 16 21  1  0  0  0
 16 31  1  0  0  0
 17 18  1  0  0  0
 17103  1  0  0  0
 18 19  2  0  0  0
 18104  1  0  0  0
 19 20  1  0  0  0
 19 24  1  0  0  0
 20 21  2  0  0  0
 20105  1  0  0  0
 21 23  1  0  0  0
 22 28  1  0  0  0
 22 32  2  0  0  0
 26 27  1  0  0  0
 28106  1  0  0  0
 28107  1  0  0  0
 29108  1  0  0  0
 29109  1  0  0  0
 33 34  1  0  0  0
 33 66  1  0  0  0
 33 70  2  0  0  0
 34 36  1  0  0  0
 34 59  1  0  0  0
 34110  1  0  0  0
 35 44  2  0  0  0
 35 45  1  0  0  0
 35 68  1  0  0  0
 36 56  1  0  0  0
 36111  1  0  0  0
 37 39  1  0  0  0
 37 47  1  0  0  0
 37 66  1  0  0  0
 37112  1  0  0  0
 38 43  2  0  0  0
 38 46  1  0  0  0
 38 47  1  0  0  0
 39 64  1  0  0  0
 39 67  2  0  0  0
 40 52  1  0  0  0
 40 53  2  0  0  0
 40 58  1  0  0  0
 41113  1  0  0  0
 41114  1  0  0  0
 41115  1  0  0  0
 41 48  1  0  0  0
 42 43  1  0  0  0
 42 66  1  0  0  0
 42116  1  0  0  0
 42117  1  0  0  0
 43 44  1  0  0  0
 44118  1  0  0  0
 45 46  2  0  0  0
 45119  1  0  0  0
 46120  1  0  0  0
 47121  1  0  0  0
 47122  1  0  0  0
 48 56  1  0  0  0
 48 65  1  0  0  0
 48123  1  0  0  0
 49 50  1  0  0  0
 49 53  1  0  0  0
 49 64  1  0  0  0
 49124  1  0  0  0
 50 51  1  0  0  0
 50125  1  0  0  0
 50126  1  0  0  0
 51 52  1  0  0  0
 51127  1  0  0  0
 51128  1  0  0  0
 52129  1  0  0  0
 52130  1  0  0  0
 53 54  1  0  0  0
 54 55  2  0  0  0
 54131  1  0  0  0
 55 57  1  0  0  0
 55132  1  0  0  0
 56 69  2  0  0  0
 57 58  2  0  0  0
 57133  1  0  0  0
 58134  1  0  0  0
 59 60  1  0  0  0
 59 61  1  0  0  0
 59 62  1  0  0  0
 60135  1  0  0  0
 60136  1  0  0  0
 60137  1  0  0  0
 61138  1  0  0  0
 61139  1  0  0  0
 61140  1  0  0  0
 62141  1  0  0  0
 62142  1  0  0  0
 62143  1  0  0  0
 63 65  1  0  0  0
 63144  1  0  0  0
 63145  1  0  0  0
 63146  1  0  0  0
 64147  1  0  0  0
 65148  1  0  0  0
 68 83  1  0  0  0
 71 73  1  0  0  0
 71 74  2  0  0  0
 71149  1  0  0  0
 72 73  2  0  0  0
 72 87  1  0  0  0
 72150  1  0  0  0
 73 88  1  0  0  0
 74 86  1  0  0  0
 74 87  1  0  0  0
 75 79  1  0  0  0
 75 81  1  0  0  0
 75151  1  0  0  0
 75152  1  0  0  0
 76 80  1  0  0  0
 76 81  1  0  0  0
 76153  1  0  0  0
 76154  1  0  0  0
 77 78  1  0  0  0
 77 82  1  0  0  0
 77155  1  0  0  0
 77156  1  0  0  0
 78 82  1  0  0  0
 78157  1  0  0  0
 78158  1  0  0  0
 79 83  1  0  0  0
 79159  1  0  0  0
 79160  1  0  0  0
 80 83  1  0  0  0
 80161  1  0  0  0
 80162  1  0  0  0
 81 87  1  0  0  0
 81163  1  0  0  0
 82 89  1  0  0  0
 82164  1  0  0  0
 83165  1  0  0  0
 84166  1  0  0  0
 84167  1  0  0  0
 84168  1  0  0  0
 84 86  1  0  0  0
 85 86  1  0  0  0
 85 89  1  0  0  0
 85169  1  0  0  0
 85170  1  0  0  0
 86171  1  0  0  0
 88172  1  0  0  0
 89173  1  0  0  0
 89174  1  0  0  0
M  CHG  1  89   1
M  ISO  4   1 100  68 101  83 101  88 100
M  END
> <chiral flag>
0

> <version>
0

> <s_m_source_file>
/data/baiqing/PycharmProjects/Reinvent-master-3.2/result/LINK_invent/BTK/process_docking_weight1_custom_sum_contain_oxygen_bond_distance_aromatic_linkinvent_7_9_3/rearranged_h_0139.sdf

> <i_m_source_file_index>
99

> <r_mmod_Potential_Energy-OPLS-2005>
336.070434570312

> <r_mmod_Stretch_Energy-OPLS-2005>
214.769653320312

> <r_mmod_Bend_Energy-OPLS-2005>
288.703247070312

> <r_mmod_Torsional_Energy-OPLS-2005>
322.717010498047

> <r_mmod_Improper_Torsional_Energy-OPLS-2005>
8.57969570159912

> <r_mmod_Van_der_Waal_Energy-OPLS-2005>
104.396522521973

> <r_mmod_Electrostatic_Energy-OPLS-2005>
-329.427886962891

> <r_mmod_Solvation_Energy-OPLS-2005>
-449.718292236328

> <b_mmod_Minimization_Converged-OPLS-2005>
0

> <r_mmod_RMS_Derivative-OPLS-2005>
3.27913761138916

$$$$
