0
                    3D
 Structure written by MMmdl.
157165  0  0  1  0            999 V2000
  -30.5396  -15.0200   20.3745 C   0  0  0  0  0  0
  -30.4368  -12.6225   19.5085 C   0  0  0  0  0  0
  -29.5273  -12.5289   18.2610 C   0  0  0  0  0  0
  -28.0636  -12.2971   18.6823 C   0  0  0  0  0  0
  -27.6280  -13.2520   19.8274 C   0  0  2  0  0  0
  -28.6714  -13.3233   20.9642 C   0  0  0  0  0  0
  -25.2463  -13.8219   20.5619 C   0  0  0  0  0  0
  -24.1787  -13.0459   20.9203 C   0  0  0  0  0  0
  -24.6407  -11.6946   20.8738 C   0  0  0  0  0  0
  -23.9098  -10.4301   21.0411 C   0  0  0  0  0  0
  -24.3656   -9.4210   21.9184 C   0  0  0  0  0  0
  -23.6313   -8.2247   22.0763 C   0  0  0  0  0  0
  -22.4297   -8.0268   21.3563 C   0  0  0  0  0  0
  -21.9925   -9.0255   20.4677 C   0  0  0  0  0  0
  -22.7258  -10.2129   20.3071 C   0  0  0  0  0  0
  -21.6860   -6.0742   22.5284 C   0  0  0  0  0  0
  -21.3999   -6.5645   23.8216 C   0  0  0  0  0  0
  -21.3661   -5.6793   24.9179 C   0  0  0  0  0  0
  -21.6050   -4.3057   24.7225 C   0  0  0  0  0  0
  -21.8816   -3.8148   23.4351 C   0  0  0  0  0  0
  -21.9183   -4.6961   22.3407 C   0  0  0  0  0  0
  -22.7800  -13.5216   21.1835 C   0  0  0  0  0  0
  -22.1656   -4.2145   21.0979 F   0  0  0  0  0  0
  -21.5636   -3.4541   25.7747 F   0  0  0  0  0  0
  -29.9394  -13.7509   20.3573 N   0  0  0  0  0  0
  -26.2896  -12.9451   20.3200 N   0  0  0  0  0  0
  -25.9345  -11.6589   20.5747 N   0  0  0  0  0  0
  -22.0456  -12.8232   22.0403 N   0  0  0  0  0  0
  -25.4109  -15.1934   20.3936 N   0  0  0  0  0  0
  -31.7489  -15.0319   20.1215 O   0  0  0  0  0  0
  -21.6660   -6.8871   21.4248 O   0  0  0  0  0  0
  -22.3472  -14.5508   20.6651 O   0  0  0  0  0  0
  -24.6517  -31.8384   23.1895 C   0  0  0  0  0  0
  -25.9269  -32.4678   23.8273 C   0  0  1  0  0  0
  -27.2052  -27.0800   20.1508 C   0  0  0  0  0  0
  -25.6031  -33.8493   24.2166 N   0  0  0  0  0  0
  -23.4538  -30.4602   21.5328 C   0  0  2  0  0  0
  -24.9000  -28.8783   20.1109 C   0  0  0  0  0  0
  -22.7577  -29.4524   22.4843 C   0  0  0  0  0  0
  -18.0287  -28.1475   22.8454 C   0  0  0  0  0  0
  -24.1454  -36.7184   23.2632 C   0  0  0  0  0  0
  -26.0164  -30.6918   21.3943 C   0  0  0  0  0  0
  -26.0815  -29.2984   20.7348 C   0  0  0  0  0  0
  -27.2341  -28.4174   20.7347 C   0  0  0  0  0  0
  -25.9982  -26.7796   19.4801 C   0  0  0  0  0  0
  -24.8749  -27.6354   19.4659 C   0  0  0  0  0  0
  -23.6822  -29.7912   20.1528 C   0  0  0  0  0  0
  -25.4088  -36.2976   24.0305 C   0  0  1  0  0  0
  -20.5893  -28.3782   23.1230 C   0  0  2  0  0  0
  -20.6770  -26.9461   22.5442 C   0  0  0  0  0  0
  -19.5776  -26.6397   21.5224 C   0  0  0  0  0  0
  -18.1914  -26.8050   22.1538 C   0  0  0  0  0  0
  -19.1539  -28.8946   23.2855 C   0  0  0  0  0  0
  -18.9471  -30.1537   23.8907 C   0  0  0  0  0  0
  -17.6474  -30.6679   24.0566 C   0  0  0  0  0  0
  -25.9069  -34.9386   23.5002 C   0  0  0  0  0  0
  -16.5362  -29.9149   23.6396 C   0  0  0  0  0  0
  -16.7266  -28.6567   23.0405 C   0  0  0  0  0  0
  -26.4588  -31.6639   25.0772 C   0  0  0  0  0  0
  -25.3751  -31.3872   26.1466 C   0  0  0  0  0  0
  -27.0433  -30.3021   24.6417 C   0  0  0  0  0  0
  -27.6149  -32.4422   25.7506 C   0  0  0  0  0  0
  -27.5560  -37.1686   24.8418 C   0  0  0  0  0  0
  -21.4262  -29.3095   22.3603 N   0  0  0  0  0  0
  -26.4200  -37.3749   23.9484 N   0  0  0  0  0  0
  -24.7275  -31.0172   22.0951 N   0  0  0  0  0  0
  -23.4205  -28.8017   23.2970 O   0  0  0  0  0  0
  -28.2473  -26.0664   20.1920 O   0  0  0  0  0  0
  -26.5577  -34.8901   22.4538 O   0  0  0  0  0  0
  -23.5619  -32.1265   23.7094 O   0  0  0  0  0  0
  -31.2954  -18.0969   19.5704 C   0  0  0  0  0  0
  -30.0758  -17.7573   20.2053 C   0  0  0  0  0  0
  -31.6343  -19.4190   19.1731 C   0  0  0  0  0  0
  -29.5263  -20.3982   20.1078 C   0  0  0  0  0  0
  -29.2129  -18.9648   20.4556 C   0  0  0  0  0  0
  -30.7742  -20.5282   19.4408 C   0  0  0  0  0  0
  -34.0192  -18.8287   18.7374 C   0  0  0  0  0  0
  -32.7275  -20.2898   17.1542 C   0  0  0  0  0  0
  -29.0335  -23.1857   20.1187 C   0  0  0  0  0  0
  -27.9569  -24.5118   20.2741 C   0  0  0  0  0  0
  -29.7892  -16.2459   20.4939 N   0  0  0  0  0  0
  -28.7039  -21.6479   20.3471 N   0  0  0  0  0  0
  -32.8403  -19.6490   18.4639 N   0  0  0  0  0  0
  -28.0146  -18.7359   21.0485 F   0  0  0  0  0  0
  -31.1819  -21.7599   19.0381 F   0  0  0  0  0  0
  -31.4747  -12.7592   19.2022 H   0  0  0  0  0  0
  -30.4214  -11.6816   20.0616 H   0  0  0  0  0  0
  -29.8641  -11.7249   17.6058 H   0  0  0  0  0  0
  -29.6029  -13.4486   17.6794 H   0  0  0  0  0  0
  -27.9809  -11.2604   19.0153 H   0  0  0  0  0  0
  -27.3975  -12.3886   17.8228 H   0  0  0  0  0  0
  -27.5788  -14.2443   19.3747 H   0  0  0  0  0  0
  -28.7747  -12.3565   21.4604 H   0  0  0  0  0  0
  -28.3567  -14.0319   21.7317 H   0  0  0  0  0  0
  -25.2813   -9.5679   22.4753 H   0  0  0  0  0  0
  -24.0030   -7.4646   22.7486 H   0  0  0  0  0  0
  -21.0838   -8.8781   19.9002 H   0  0  0  0  0  0
  -22.3717  -10.9669   19.6178 H   0  0  0  0  0  0
  -21.1979   -7.6138   23.9727 H   0  0  0  0  0  0
  -21.1486   -6.0519   25.9087 H   0  0  0  0  0  0
  -22.0586   -2.7612   23.2863 H   0  0  0  0  0  0
  -22.4092  -11.9927   22.4846 H   0  0  0  0  0  0
  -21.1089  -13.1294   22.2619 H   0  0  0  0  0  0
  -24.6283  -15.8347   20.4562 H   0  0  0  0  0  0
  -26.2395  -15.6273   20.0070 H   0  0  0  0  0  0
  -26.7328  -32.5247   23.0980 H   0  0  0  0  0  0
  -25.0397  -33.9630   25.0462 H   0  0  0  0  0  0
  -22.7625  -31.2908   21.3780 H   0  0  0  0  0  0
  -23.3795  -35.9423   23.3142 H   0  0  0  0  0  0
  -24.3553  -36.8969   22.2077 H   0  0  0  0  0  0
  -23.7090  -37.6271   23.6795 H   0  0  0  0  0  0
  -26.1761  -31.4429   20.6193 H   0  0  0  0  0  0
  -26.8864  -30.7438   22.0379 H   0  0  0  0  0  0
  -28.1343  -28.7273   21.2448 H   0  0  0  0  0  0
  -25.8850  -25.8421   18.9586 H   0  0  0  0  0  0
  -23.9785  -27.3165   18.9530 H   0  0  0  0  0  0
  -23.8300  -30.5704   19.4044 H   0  0  0  0  0  0
  -22.7944  -29.2461   19.8294 H   0  0  0  0  0  0
  -25.1260  -36.1717   25.0784 H   0  0  0  0  0  0
  -20.9983  -28.3388   24.1364 H   0  0  0  0  0  0
  -20.5654  -26.2385   23.3677 H   0  0  0  0  0  0
  -21.6640  -26.7474   22.1242 H   0  0  0  0  0  0
  -19.6927  -25.6275   21.1343 H   0  0  0  0  0  0
  -19.6805  -27.3144   20.6723 H   0  0  0  0  0  0
  -17.4228  -26.6919   21.3867 H   0  0  0  0  0  0
  -18.0183  -26.0183   22.8883 H   0  0  0  0  0  0
  -19.7943  -30.7348   24.2287 H   0  0  0  0  0  0
  -17.5027  -31.6382   24.5118 H   0  0  0  0  0  0
  -15.5364  -30.3047   23.7793 H   0  0  0  0  0  0
  -15.8636  -28.0890   22.7188 H   0  0  0  0  0  0
  -24.6240  -30.6786   25.7942 H   0  0  0  0  0  0
  -24.8557  -32.3001   26.4423 H   0  0  0  0  0  0
  -25.8099  -30.9602   27.0510 H   0  0  0  0  0  0
  -26.3075  -29.6776   24.1351 H   0  0  0  0  0  0
  -27.3912  -29.7328   25.5039 H   0  0  0  0  0  0
  -27.9028  -30.4219   23.9813 H   0  0  0  0  0  0
  -27.2852  -33.3842   26.1890 H   0  0  0  0  0  0
  -28.4060  -32.6786   25.0375 H   0  0  0  0  0  0
  -28.0722  -31.8673   26.5563 H   0  0  0  0  0  0
  -28.2444  -38.0122   24.7657 H   0  0  0  0  0  0
  -28.1179  -36.2666   24.5942 H   0  0  0  0  0  0
  -27.2341  -37.0931   25.8822 H   0  0  0  0  0  0
  -20.9485  -29.8818   21.6789 H   0  0  0  0  0  0
  -26.0011  -38.2729   24.1747 H   0  0  0  0  0  0
  -31.9833  -17.3054   19.3315 H   0  0  0  0  0  0
  -34.1979  -18.7263   19.8092 H   0  0  0  0  0  0
  -34.9093  -19.2910   18.3023 H   0  0  0  0  0  0
  -33.9353  -17.8306   18.3038 H   0  0  0  0  0  0
  -31.6910  -20.3606   16.8163 H   0  0  0  0  0  0
  -33.2690  -19.7235   16.3933 H   0  0  0  0  0  0
  -33.1440  -21.2994   17.1715 H   0  0  0  0  0  0
  -29.8842  -23.4029   20.7640 H   0  0  0  0  0  0
  -29.4219  -23.2602   19.1035 H   0  0  0  0  0  0
  -27.4719  -24.3877   21.2442 H   0  0  0  0  0  0
  -27.1730  -24.2973   19.5501 H   0  0  0  0  0  0
  -28.8334  -16.0749   20.7684 H   0  0  0  0  0  0
  -27.8093  -21.4648   20.7997 H   0  0  0  0  0  0
  1 25  1  0  0  0
  1 30  2  0  0  0
  1 81  1  0  0  0
  2  3  1  0  0  0
  2 25  1  0  0  0
  2 86  1  0  0  0
  2 87  1  0  0  0
  3  4  1  0  0  0
  3 88  1  0  0  0
  3 89  1  0  0  0
  4  5  1  0  0  0
  4 90  1  0  0  0
  4 91  1  0  0  0
  5  6  1  0  0  0
  5 26  1  0  0  0
  5 92  1  0  0  0
  6 25  1  0  0  0
  6 93  1  0  0  0
  6 94  1  0  0  0
  7  8  2  0  0  0
  7 26  1  0  0  0
  7 29  1  0  0  0
  8  9  1  0  0  0
  8 22  1  0  0  0
  9 10  1  0  0  0
  9 27  2  0  0  0
 10 11  2  0  0  0
 10 15  1  0  0  0
 11 12  1  0  0  0
 11 95  1  0  0  0
 12 13  2  0  0  0
 12 96  1  0  0  0
 13 14  1  0  0  0
 13 31  1  0  0  0
 14 15  2  0  0  0
 14 97  1  0  0  0
 15 98  1  0  0  0
 16 17  2  0  0  0
 16 21  1  0  0  0
 16 31  1  0  0  0
 17 18  1  0  0  0
 17 99  1  0  0  0
 18 19  2  0  0  0
 18100  1  0  0  0
 19 20  1  0  0  0
 19 24  1  0  0  0
 20 21  2  0  0  0
 20101  1  0  0  0
 21 23  1  0  0  0
 22 28  1  0  0  0
 22 32  2  0  0  0
 26 27  1  0  0  0
 28102  1  0  0  0
 28103  1  0  0  0
 29104  1  0  0  0
 29105  1  0  0  0
 33 34  1  0  0  0
 33 66  1  0  0  0
 33 70  2  0  0  0
 34 36  1  0  0  0
 34 59  1  0  0  0
 34106  1  0  0  0
 35 44  2  0  0  0
 35 45  1  0  0  0
 35 68  1  0  0  0
 36 56  1  0  0  0
 36107  1  0  0  0
 37 39  1  0  0  0
 37 47  1  0  0  0
 37 66  1  0  0  0
 37108  1  0  0  0
 38 43  2  0  0  0
 38 46  1  0  0  0
 38 47  1  0  0  0
 39 64  1  0  0  0
 39 67  2  0  0  0
 40 52  1  0  0  0
 40 53  2  0  0  0
 40 58  1  0  0  0
 41109  1  0  0  0
 41110  1  0  0  0
 41111  1  0  0  0
 41 48  1  0  0  0
 42 43  1  0  0  0
 42 66  1  0  0  0
 42112  1  0  0  0
 42113  1  0  0  0
 43 44  1  0  0  0
 44114  1  0  0  0
 45 46  2  0  0  0
 45115  1  0  0  0
 46116  1  0  0  0
 47117  1  0  0  0
 47118  1  0  0  0
 48 56  1  0  0  0
 48 65  1  0  0  0
 48119  1  0  0  0
 49 50  1  0  0  0
 49 53  1  0  0  0
 49 64  1  0  0  0
 49120  1  0  0  0
 50 51  1  0  0  0
 50121  1  0  0  0
 50122  1  0  0  0
 51 52  1  0  0  0
 51123  1  0  0  0
 51124  1  0  0  0
 52125  1  0  0  0
 52126  1  0  0  0
 53 54  1  0  0  0
 54 55  2  0  0  0
 54127  1  0  0  0
 55 57  1  0  0  0
 55128  1  0  0  0
 56 69  2  0  0  0
 57 58  2  0  0  0
 57129  1  0  0  0
 58130  1  0  0  0
 59 60  1  0  0  0
 59 61  1  0  0  0
 59 62  1  0  0  0
 60131  1  0  0  0
 60132  1  0  0  0
 60133  1  0  0  0
 61134  1  0  0  0
 61135  1  0  0  0
 61136  1  0  0  0
 62137  1  0  0  0
 62138  1  0  0  0
 62139  1  0  0  0
 63 65  1  0  0  0
 63140  1  0  0  0
 63141  1  0  0  0
 63142  1  0  0  0
 64143  1  0  0  0
 65144  1  0  0  0
 68 80  1  0  0  0
 71 72  2  0  0  0
 71 73  1  0  0  0
 71145  1  0  0  0
 72 75  1  0  0  0
 72 81  1  0  0  0
 73 76  2  0  0  0
 73 83  1  0  0  0
 74 75  2  0  0  0
 74 76  1  0  0  0
 74 82  1  0  0  0
 75 84  1  0  0  0
 76 85  1  0  0  0
 77 83  1  0  0  0
 77146  1  0  0  0
 77147  1  0  0  0
 77148  1  0  0  0
 78 83  1  0  0  0
 78149  1  0  0  0
 78150  1  0  0  0
 78151  1  0  0  0
 79 80  1  0  0  0
 79 82  1  0  0  0
 79152  1  0  0  0
 79153  1  0  0  0
 80154  1  0  0  0
 80155  1  0  0  0
 81156  1  0  0  0
 82157  1  0  0  0
M  ISO  4   1 100  68 101  80 101  81 100
M  END
> <chiral flag>
0

> <version>
0

> <s_m_source_file>
/data/baiqing/PycharmProjects/Reinvent-master-3.2/result/LINK_invent/BTK/process_docking_weight1_custom_sum_contain_oxygen_bond_distance_aromatic_linkinvent_7_9_3/rearranged_h_0011.sdf

> <i_m_source_file_index>
1

> <r_mmod_Potential_Energy-OPLS-2005>
769.116577148438

> <r_mmod_Stretch_Energy-OPLS-2005>
327.156433105469

> <r_mmod_Bend_Energy-OPLS-2005>
291.374389648438

> <r_mmod_Torsional_Energy-OPLS-2005>
213.402954101562

> <r_mmod_Improper_Torsional_Energy-OPLS-2005>
5.56951999664307

> <r_mmod_Van_der_Waal_Energy-OPLS-2005>
142.368301391602

> <r_mmod_Electrostatic_Energy-OPLS-2005>
-219.70637512207

> <r_mmod_Solvation_Energy-OPLS-2005>
-233.572525024414

> <b_mmod_Minimization_Converged-OPLS-2005>
0

> <r_mmod_RMS_Derivative-OPLS-2005>
4.44283628463745

$$$$
1
                    3D
 Structure written by MMmdl.
152160  0  0  1  0            999 V2000
  -30.5245  -14.9006   20.4480 C   0  0  0  0  0  0
  -30.4531  -12.5552   19.4944 C   0  0  0  0  0  0
  -29.5256  -12.5358   18.2551 C   0  0  0  0  0  0
  -28.0552  -12.3283   18.6681 C   0  0  0  0  0  0
  -27.6407  -13.2393   19.8528 C   0  0  2  0  0  0
  -28.6850  -13.2091   20.9909 C   0  0  0  0  0  0
  -25.2464  -13.8163   20.5625 C   0  0  0  0  0  0
  -24.1783  -13.0408   20.9186 C   0  0  0  0  0  0
  -24.6406  -11.6899   20.8753 C   0  0  0  0  0  0
  -23.9084  -10.4278   21.0412 C   0  0  0  0  0  0
  -24.3628   -9.4193   21.9190 C   0  0  0  0  0  0
  -23.6296   -8.2233   22.0758 C   0  0  0  0  0  0
  -22.4278   -8.0277   21.3546 C   0  0  0  0  0  0
  -21.9919   -9.0252   20.4648 C   0  0  0  0  0  0
  -22.7255  -10.2126   20.3058 C   0  0  0  0  0  0
  -21.6851   -6.0734   22.5279 C   0  0  0  0  0  0
  -21.4014   -6.5639   23.8212 C   0  0  0  0  0  0
  -21.3659   -5.6792   24.9175 C   0  0  0  0  0  0
  -21.6045   -4.3055   24.7226 C   0  0  0  0  0  0
  -21.8819   -3.8146   23.4347 C   0  0  0  0  0  0
  -21.9192   -4.6962   22.3403 C   0  0  0  0  0  0
  -22.7806  -13.5192   21.1856 C   0  0  0  0  0  0
  -22.1661   -4.2148   21.0980 F   0  0  0  0  0  0
  -21.5629   -3.4539   25.7739 F   0  0  0  0  0  0
  -29.9733  -13.6233   20.4133 N   0  0  0  0  0  0
  -26.2935  -12.9406   20.3289 N   0  0  0  0  0  0
  -25.9349  -11.6542   20.5777 N   0  0  0  0  0  0
  -22.0468  -12.8188   22.0429 N   0  0  0  0  0  0
  -25.4055  -15.1864   20.3919 N   0  0  0  0  0  0
  -31.7009  -15.0421   20.0956 O   0  0  0  0  0  0
  -21.6638   -6.8877   21.4242 O   0  0  0  0  0  0
  -22.3478  -14.5496   20.6708 O   0  0  0  0  0  0
  -24.6421  -31.8460   23.1900 C   0  0  0  0  0  0
  -25.9200  -32.4706   23.8284 C   0  0  1  0  0  0
  -27.2216  -27.1559   20.1466 C   0  0  0  0  0  0
  -25.5953  -33.8511   24.2200 N   0  0  0  0  0  0
  -23.4448  -30.4661   21.5358 C   0  0  2  0  0  0
  -24.8944  -28.8967   20.1127 C   0  0  0  0  0  0
  -22.7562  -29.4557   22.4872 C   0  0  0  0  0  0
  -18.0303  -28.1395   22.8477 C   0  0  0  0  0  0
  -24.1491  -36.7260   23.2642 C   0  0  0  0  0  0
  -26.0001  -30.7263   21.3861 C   0  0  0  0  0  0
  -26.0724  -29.3394   20.7274 C   0  0  0  0  0  0
  -27.2376  -28.4862   20.7256 C   0  0  0  0  0  0
  -26.0141  -26.8108   19.4975 C   0  0  0  0  0  0
  -24.8771  -27.6447   19.4829 C   0  0  0  0  0  0
  -23.6705  -29.7967   20.1550 C   0  0  0  0  0  0
  -25.4122  -36.3037   24.0317 C   0  0  1  0  0  0
  -20.5915  -28.3719   23.1241 C   0  0  2  0  0  0
  -20.6789  -26.9424   22.5404 C   0  0  0  0  0  0
  -19.5762  -26.6382   21.5213 C   0  0  0  0  0  0
  -18.1943  -26.7933   22.1624 C   0  0  0  0  0  0
  -19.1560  -28.8875   23.2850 C   0  0  0  0  0  0
  -18.9477  -30.1472   23.8874 C   0  0  0  0  0  0
  -17.6474  -30.6592   24.0559 C   0  0  0  0  0  0
  -25.9072  -34.9412   23.5066 C   0  0  0  0  0  0
  -16.5365  -29.9084   23.6335 C   0  0  0  0  0  0
  -16.7289  -28.6504   23.0354 C   0  0  0  0  0  0
  -26.4525  -31.6567   25.0718 C   0  0  0  0  0  0
  -25.3711  -31.3753   26.1414 C   0  0  0  0  0  0
  -27.0390  -30.2966   24.6286 C   0  0  0  0  0  0
  -27.6052  -32.4335   25.7506 C   0  0  0  0  0  0
  -27.5575  -37.1787   24.8465 C   0  0  0  0  0  0
  -21.4256  -29.3049   22.3618 N   0  0  0  0  0  0
  -26.4286  -37.3748   23.9408 N   0  0  0  0  0  0
  -24.7155  -31.0333   22.0926 N   0  0  0  0  0  0
  -23.4212  -28.8102   23.3016 O   0  0  0  0  0  0
  -28.2865  -26.1869   20.2001 O   0  0  0  0  0  0
  -26.5656  -34.8905   22.4643 O   0  0  0  0  0  0
  -23.5543  -32.1328   23.7129 O   0  0  0  0  0  0
  -30.1355  -19.9144   19.9520 C   0  0  0  0  0  0
  -30.4235  -18.4758   20.0066 C   0  0  0  0  0  0
  -28.1701  -19.5547   21.1966 C   0  0  0  0  0  0
  -28.9682  -20.5349   20.5293 C   0  0  0  0  0  0
  -29.5831  -17.5043   20.6639 C   0  0  0  0  0  0
  -28.4568  -18.1430   21.2751 C   0  0  0  0  0  0
  -30.0615  -23.6316   21.4257 C   0  0  0  0  0  0
  -27.9873  -24.6644   20.2035 C   0  0  0  0  0  0
  -29.0537  -23.3661   20.3026 C   0  0  2  0  0  0
  -29.6719  -15.9795   20.7565 N   0  0  0  0  0  0
  -28.4761  -21.9381   20.4799 N   0  0  0  0  0  0
  -27.3535  -17.1630   22.1744 Cl  0  0  0  0  0  0
  -31.4860  -12.7224   19.1849 H   0  0  0  0  0  0
  -30.4463  -11.5874   19.9980 H   0  0  0  0  0  0
  -29.8346  -11.7514   17.5630 H   0  0  0  0  0  0
  -29.6219  -13.4776   17.7125 H   0  0  0  0  0  0
  -27.9376  -11.2817   18.9513 H   0  0  0  0  0  0
  -27.3942  -12.4889   17.8156 H   0  0  0  0  0  0
  -27.6204  -14.2540   19.4544 H   0  0  0  0  0  0
  -28.7576  -12.2112   21.4258 H   0  0  0  0  0  0
  -28.3881  -13.8721   21.8050 H   0  0  0  0  0  0
  -25.2772   -9.5666   22.4767 H   0  0  0  0  0  0
  -24.0000   -7.4624   22.7479 H   0  0  0  0  0  0
  -21.0849   -8.8776   19.8953 H   0  0  0  0  0  0
  -22.3718  -10.9667   19.6167 H   0  0  0  0  0  0
  -21.2007   -7.6147   23.9715 H   0  0  0  0  0  0
  -21.1481   -6.0523   25.9078 H   0  0  0  0  0  0
  -22.0599   -2.7608   23.2848 H   0  0  0  0  0  0
  -22.4097  -11.9853   22.4813 H   0  0  0  0  0  0
  -21.1089  -13.1209   22.2651 H   0  0  0  0  0  0
  -24.6419  -15.8372   20.5352 H   0  0  0  0  0  0
  -26.2649  -15.6427   20.1187 H   0  0  0  0  0  0
  -26.7266  -32.5319   23.1015 H   0  0  0  0  0  0
  -25.0080  -33.9630   25.0333 H   0  0  0  0  0  0
  -22.7463  -31.2913   21.3825 H   0  0  0  0  0  0
  -23.3757  -35.9590   23.3294 H   0  0  0  0  0  0
  -24.3577  -36.8901   22.2058 H   0  0  0  0  0  0
  -23.7245  -37.6453   23.6685 H   0  0  0  0  0  0
  -26.1534  -31.4821   20.6146 H   0  0  0  0  0  0
  -26.8715  -30.7761   22.0274 H   0  0  0  0  0  0
  -28.1364  -28.8227   21.2233 H   0  0  0  0  0  0
  -25.9083  -25.8601   19.0001 H   0  0  0  0  0  0
  -23.9782  -27.3007   18.9897 H   0  0  0  0  0  0
  -23.8065  -30.5716   19.3998 H   0  0  0  0  0  0
  -22.7858  -29.2382   19.8442 H   0  0  0  0  0  0
  -25.1310  -36.1866   25.0809 H   0  0  0  0  0  0
  -21.0005  -28.3307   24.1362 H   0  0  0  0  0  0
  -20.5687  -26.2332   23.3622 H   0  0  0  0  0  0
  -21.6654  -26.7435   22.1199 H   0  0  0  0  0  0
  -19.6924  -25.6287   21.1256 H   0  0  0  0  0  0
  -19.6697  -27.3181   20.6733 H   0  0  0  0  0  0
  -17.4212  -26.6677   21.4028 H   0  0  0  0  0  0
  -18.0342  -26.0080   22.9026 H   0  0  0  0  0  0
  -19.7954  -30.7293   24.2232 H   0  0  0  0  0  0
  -17.5029  -31.6269   24.5166 H   0  0  0  0  0  0
  -15.5364  -30.2978   23.7675 H   0  0  0  0  0  0
  -15.8689  -28.0817   22.7080 H   0  0  0  0  0  0
  -24.5897  -30.7093   25.7737 H   0  0  0  0  0  0
  -24.8891  -32.2934   26.4784 H   0  0  0  0  0  0
  -25.7996  -30.8965   27.0228 H   0  0  0  0  0  0
  -26.3007  -29.6690   24.1282 H   0  0  0  0  0  0
  -27.4000  -29.7261   25.4855 H   0  0  0  0  0  0
  -27.8915  -30.4209   23.9604 H   0  0  0  0  0  0
  -27.2640  -33.3651   26.2033 H   0  0  0  0  0  0
  -28.3890  -32.6873   25.0357 H   0  0  0  0  0  0
  -28.0690  -31.8495   26.5466 H   0  0  0  0  0  0
  -28.2584  -38.0092   24.7511 H   0  0  0  0  0  0
  -28.1081  -36.2620   24.6292 H   0  0  0  0  0  0
  -27.2293  -37.1433   25.8868 H   0  0  0  0  0  0
  -20.9466  -29.8766   21.6801 H   0  0  0  0  0  0
  -26.0153  -38.2816   24.1413 H   0  0  0  0  0  0
  -30.8280  -20.5436   19.4111 H   0  0  0  0  0  0
  -31.3122  -18.1207   19.5052 H   0  0  0  0  0  0
  -27.2670  -19.8876   21.6862 H   0  0  0  0  0  0
  -30.5469  -24.5988   21.2892 H   0  0  0  0  0  0
  -30.8454  -22.8739   21.4475 H   0  0  0  0  0  0
  -29.5759  -23.6425   22.4019 H   0  0  0  0  0  0
  -27.4290  -24.4604   19.2919 H   0  0  0  0  0  0
  -27.2698  -24.5299   21.0139 H   0  0  0  0  0  0
  -29.6150  -23.3530   19.3669 H   0  0  0  0  0  0
  -28.8083  -15.6086   21.1251 H   0  0  0  0  0  0
  -27.5074  -22.0003   20.7846 H   0  0  0  0  0  0
  1 25  1  0  0  0
  1 30  2  0  0  0
  1 80  1  0  0  0
  2  3  1  0  0  0
  2 25  1  0  0  0
  2 83  1  0  0  0
  2 84  1  0  0  0
  3  4  1  0  0  0
  3 85  1  0  0  0
  3 86  1  0  0  0
  4  5  1  0  0  0
  4 87  1  0  0  0
  4 88  1  0  0  0
  5  6  1  0  0  0
  5 26  1  0  0  0
  5 89  1  0  0  0
  6 25  1  0  0  0
  6 90  1  0  0  0
  6 91  1  0  0  0
  7  8  2  0  0  0
  7 26  1  0  0  0
  7 29  1  0  0  0
  8  9  1  0  0  0
  8 22  1  0  0  0
  9 10  1  0  0  0
  9 27  2  0  0  0
 10 11  2  0  0  0
 10 15  1  0  0  0
 11 12  1  0  0  0
 11 92  1  0  0  0
 12 13  2  0  0  0
 12 93  1  0  0  0
 13 14  1  0  0  0
 13 31  1  0  0  0
 14 15  2  0  0  0
 14 94  1  0  0  0
 15 95  1  0  0  0
 16 17  2  0  0  0
 16 21  1  0  0  0
 16 31  1  0  0  0
 17 18  1  0  0  0
 17 96  1  0  0  0
 18 19  2  0  0  0
 18 97  1  0  0  0
 19 20  1  0  0  0
 19 24  1  0  0  0
 20 21  2  0  0  0
 20 98  1  0  0  0
 21 23  1  0  0  0
 22 28  1  0  0  0
 22 32  2  0  0  0
 26 27  1  0  0  0
 28 99  1  0  0  0
 28100  1  0  0  0
 29101  1  0  0  0
 29102  1  0  0  0
 33 34  1  0  0  0
 33 66  1  0  0  0
 33 70  2  0  0  0
 34 36  1  0  0  0
 34 59  1  0  0  0
 34103  1  0  0  0
 35 44  2  0  0  0
 35 45  1  0  0  0
 35 68  1  0  0  0
 36 56  1  0  0  0
 36104  1  0  0  0
 37 39  1  0  0  0
 37 47  1  0  0  0
 37 66  1  0  0  0
 37105  1  0  0  0
 38 43  2  0  0  0
 38 46  1  0  0  0
 38 47  1  0  0  0
 39 64  1  0  0  0
 39 67  2  0  0  0
 40 52  1  0  0  0
 40 53  2  0  0  0
 40 58  1  0  0  0
 41106  1  0  0  0
 41107  1  0  0  0
 41108  1  0  0  0
 41 48  1  0  0  0
 42 43  1  0  0  0
 42 66  1  0  0  0
 42109  1  0  0  0
 42110  1  0  0  0
 43 44  1  0  0  0
 44111  1  0  0  0
 45 46  2  0  0  0
 45112  1  0  0  0
 46113  1  0  0  0
 47114  1  0  0  0
 47115  1  0  0  0
 48 56  1  0  0  0
 48 65  1  0  0  0
 48116  1  0  0  0
 49 50  1  0  0  0
 49 53  1  0  0  0
 49 64  1  0  0  0
 49117  1  0  0  0
 50 51  1  0  0  0
 50118  1  0  0  0
 50119  1  0  0  0
 51 52  1  0  0  0
 51120  1  0  0  0
 51121  1  0  0  0
 52122  1  0  0  0
 52123  1  0  0  0
 53 54  1  0  0  0
 54 55  2  0  0  0
 54124  1  0  0  0
 55 57  1  0  0  0
 55125  1  0  0  0
 56 69  2  0  0  0
 57 58  2  0  0  0
 57126  1  0  0  0
 58127  1  0  0  0
 59 60  1  0  0  0
 59 61  1  0  0  0
 59 62  1  0  0  0
 60128  1  0  0  0
 60129  1  0  0  0
 60130  1  0  0  0
 61131  1  0  0  0
 61132  1  0  0  0
 61133  1  0  0  0
 62134  1  0  0  0
 62135  1  0  0  0
 62136  1  0  0  0
 63 65  1  0  0  0
 63137  1  0  0  0
 63138  1  0  0  0
 63139  1  0  0  0
 64140  1  0  0  0
 65141  1  0  0  0
 68 78  1  0  0  0
 71 72  2  0  0  0
 71 74  1  0  0  0
 71142  1  0  0  0
 72 75  1  0  0  0
 72143  1  0  0  0
 73 74  2  0  0  0
 73 76  1  0  0  0
 73144  1  0  0  0
 74 81  1  0  0  0
 75 76  2  0  0  0
 75 80  1  0  0  0
 76 82  1  0  0  0
 77145  1  0  0  0
 77146  1  0  0  0
 77147  1  0  0  0
 77 79  1  0  0  0
 78 79  1  0  0  0
 78148  1  0  0  0
 78149  1  0  0  0
 79 81  1  0  0  0
 79150  1  0  0  0
 80151  1  0  0  0
 81152  1  0  0  0
M  ISO  4   1 100  68 101  78 101  80 100
M  END
> <chiral flag>
0

> <version>
0

> <s_m_source_file>
/data/baiqing/PycharmProjects/Reinvent-master-3.2/result/LINK_invent/BTK/process_docking_weight1_custom_sum_contain_oxygen_bond_distance_aromatic_linkinvent_7_9_3/rearranged_h_0011.sdf

> <i_m_source_file_index>
2

> <r_mmod_Potential_Energy-OPLS-2005>
381.351196289062

> <r_mmod_Stretch_Energy-OPLS-2005>
206.376541137695

> <r_mmod_Bend_Energy-OPLS-2005>
289.046356201172

> <r_mmod_Torsional_Energy-OPLS-2005>
210.573776245117

> <r_mmod_Improper_Torsional_Energy-OPLS-2005>
3.48490500450134

> <r_mmod_Van_der_Waal_Energy-OPLS-2005>
128.59196472168

> <r_mmod_Electrostatic_Energy-OPLS-2005>
-410.432403564453

> <r_mmod_Solvation_Energy-OPLS-2005>
-212.264221191406

> <b_mmod_Minimization_Converged-OPLS-2005>
0

> <r_mmod_RMS_Derivative-OPLS-2005>
0.2029649913311

$$$$
2
                    3D
 Structure written by MMmdl.
156164  0  0  1  0            999 V2000
  -30.5326  -15.0335   20.4039 C   0  0  0  0  0  0
  -30.4365  -12.6472   19.5071 C   0  0  0  0  0  0
  -29.5217  -12.5424   18.2638 C   0  0  0  0  0  0
  -28.0585  -12.3140   18.6847 C   0  0  0  0  0  0
  -27.6232  -13.2591   19.8346 C   0  0  2  0  0  0
  -28.6659  -13.3323   20.9702 C   0  0  0  0  0  0
  -25.2431  -13.8228   20.5738 C   0  0  0  0  0  0
  -24.1760  -13.0445   20.9234 C   0  0  0  0  0  0
  -24.6387  -11.6929   20.8757 C   0  0  0  0  0  0
  -23.9084  -10.4294   21.0408 C   0  0  0  0  0  0
  -24.3629   -9.4203   21.9184 C   0  0  0  0  0  0
  -23.6295   -8.2243   22.0753 C   0  0  0  0  0  0
  -22.4280   -8.0282   21.3542 C   0  0  0  0  0  0
  -21.9922   -9.0258   20.4645 C   0  0  0  0  0  0
  -22.7257  -10.2134   20.3055 C   0  0  0  0  0  0
  -21.6861   -6.0736   22.5279 C   0  0  0  0  0  0
  -21.4014   -6.5640   23.8210 C   0  0  0  0  0  0
  -21.3656   -5.6792   24.9174 C   0  0  0  0  0  0
  -21.6048   -4.3056   24.7225 C   0  0  0  0  0  0
  -21.8817   -3.8145   23.4346 C   0  0  0  0  0  0
  -21.9190   -4.6964   22.3402 C   0  0  0  0  0  0
  -22.7779  -13.5205   21.1889 C   0  0  0  0  0  0
  -22.1662   -4.2151   21.0982 F   0  0  0  0  0  0
  -21.5626   -3.4539   25.7737 F   0  0  0  0  0  0
  -29.9305  -13.7672   20.3601 N   0  0  0  0  0  0
  -26.2862  -12.9482   20.3253 N   0  0  0  0  0  0
  -25.9325  -11.6601   20.5747 N   0  0  0  0  0  0
  -22.0433  -12.8191   22.0441 N   0  0  0  0  0  0
  -25.4087  -15.1965   20.4175 N   0  0  0  0  0  0
  -31.7453  -15.0481   20.1596 O   0  0  0  0  0  0
  -21.6643   -6.8881   21.4240 O   0  0  0  0  0  0
  -22.3463  -14.5514   20.6736 O   0  0  0  0  0  0
  -24.6488  -31.8386   23.1832 C   0  0  0  0  0  0
  -25.9238  -32.4663   23.8241 C   0  0  1  0  0  0
  -27.2207  -27.0876   20.1513 C   0  0  0  0  0  0
  -25.5963  -33.8475   24.2158 N   0  0  0  0  0  0
  -23.4551  -30.4562   21.5299 C   0  0  2  0  0  0
  -24.9059  -28.8729   20.1092 C   0  0  0  0  0  0
  -22.7597  -29.4511   22.4838 C   0  0  0  0  0  0
  -18.0310  -28.1396   22.8469 C   0  0  0  0  0  0
  -24.1493  -36.7235   23.2649 C   0  0  0  0  0  0
  -26.0148  -30.6947   21.3912 C   0  0  0  0  0  0
  -26.0868  -29.3026   20.7303 C   0  0  0  0  0  0
  -27.2447  -28.4283   20.7279 C   0  0  0  0  0  0
  -26.0105  -26.7662   19.4995 C   0  0  0  0  0  0
  -24.8845  -27.6198   19.4785 C   0  0  0  0  0  0
  -23.6842  -29.7813   20.1520 C   0  0  0  0  0  0
  -25.4130  -36.3017   24.0314 C   0  0  1  0  0  0
  -20.5930  -28.3729   23.1225 C   0  0  2  0  0  0
  -20.6792  -26.9420   22.5410 C   0  0  0  0  0  0
  -19.5763  -26.6379   21.5212 C   0  0  0  0  0  0
  -18.1942  -26.7934   22.1621 C   0  0  0  0  0  0
  -19.1569  -28.8876   23.2835 C   0  0  0  0  0  0
  -18.9485  -30.1468   23.8866 C   0  0  0  0  0  0
  -17.6484  -30.6589   24.0554 C   0  0  0  0  0  0
  -25.9089  -34.9393   23.5060 C   0  0  0  0  0  0
  -16.5374  -29.9080   23.6342 C   0  0  0  0  0  0
  -16.7293  -28.6503   23.0352 C   0  0  0  0  0  0
  -26.4544  -31.6550   25.0706 C   0  0  0  0  0  0
  -25.3710  -31.3757   26.1384 C   0  0  0  0  0  0
  -27.0422  -30.2939   24.6337 C   0  0  0  0  0  0
  -27.6062  -32.4334   25.7496 C   0  0  0  0  0  0
  -27.5573  -37.1772   24.8467 C   0  0  0  0  0  0
  -21.4280  -29.3050   22.3592 N   0  0  0  0  0  0
  -26.4287  -37.3736   23.9406 N   0  0  0  0  0  0
  -24.7263  -31.0184   22.0903 N   0  0  0  0  0  0
  -23.4223  -28.8051   23.2994 O   0  0  0  0  0  0
  -28.2683  -26.0813   20.2170 O   0  0  0  0  0  0
  -26.5677  -34.8897   22.4635 O   0  0  0  0  0  0
  -23.5592  -32.1299   23.7004 O   0  0  0  0  0  0
  -31.8669  -19.5200   20.4281 C   0  0  0  0  0  0
  -31.4551  -18.1683   20.4852 C   0  0  0  0  0  0
  -30.9672  -20.6067   20.3429 C   0  0  0  0  0  0
  -30.0967  -17.7821   20.4445 C   0  0  0  0  0  0
  -29.5659  -20.4307   20.3301 C   0  0  0  0  0  0
  -29.1688  -18.9687   20.3686 C   0  0  0  0  0  0
  -29.6462  -23.4885   21.7981 C   0  0  0  0  0  0
  -27.2244  -18.8511   19.0746 C   0  0  0  0  0  0
  -28.0090  -24.5278   20.0820 C   0  0  0  0  0  0
  -29.0836  -23.2237   20.3935 C   0  0  2  0  0  0
  -29.7674  -16.2550   20.4979 N   0  0  0  0  0  0
  -28.7192  -21.6789   20.2782 N   0  0  0  0  0  0
  -27.8336  -18.6594   20.3434 O   0  0  0  0  0  0
  -31.4680  -12.8078   19.1916 H   0  0  0  0  0  0
  -30.4412  -11.7096   20.0668 H   0  0  0  0  0  0
  -29.8558  -11.7305   17.6162 H   0  0  0  0  0  0
  -29.5965  -13.4567   17.6734 H   0  0  0  0  0  0
  -27.9701  -11.2768   19.0088 H   0  0  0  0  0  0
  -27.3927  -12.4240   17.8273 H   0  0  0  0  0  0
  -27.5705  -14.2518   19.3864 H   0  0  0  0  0  0
  -28.7737  -12.3673   21.4681 H   0  0  0  0  0  0
  -28.3506  -14.0430   21.7360 H   0  0  0  0  0  0
  -25.2767   -9.5685   22.4770 H   0  0  0  0  0  0
  -24.0004   -7.4635   22.7476 H   0  0  0  0  0  0
  -21.0851   -8.8775   19.8954 H   0  0  0  0  0  0
  -22.3703  -10.9675   19.6169 H   0  0  0  0  0  0
  -21.2009   -7.6148   23.9715 H   0  0  0  0  0  0
  -21.1483   -6.0524   25.9078 H   0  0  0  0  0  0
  -22.0598   -2.7610   23.2846 H   0  0  0  0  0  0
  -22.4062  -11.9857   22.4828 H   0  0  0  0  0  0
  -21.1047  -13.1208   22.2653 H   0  0  0  0  0  0
  -24.6406  -15.8481   20.5361 H   0  0  0  0  0  0
  -26.2547  -15.6393   20.0849 H   0  0  0  0  0  0
  -26.7302  -32.5260   23.0955 H   0  0  0  0  0  0
  -25.0077  -33.9567   25.0283 H   0  0  0  0  0  0
  -22.7606  -31.2836   21.3715 H   0  0  0  0  0  0
  -23.3768  -35.9552   23.3301 H   0  0  0  0  0  0
  -24.3586  -36.8887   22.2067 H   0  0  0  0  0  0
  -23.7226  -37.6418   23.6695 H   0  0  0  0  0  0
  -26.1788  -31.4474   20.6192 H   0  0  0  0  0  0
  -26.8837  -30.7468   22.0371 H   0  0  0  0  0  0
  -28.1429  -28.7527   21.2366 H   0  0  0  0  0  0
  -25.9018  -25.8052   19.0200 H   0  0  0  0  0  0
  -23.9834  -27.2829   18.9821 H   0  0  0  0  0  0
  -23.8133  -30.5539   19.3924 H   0  0  0  0  0  0
  -22.7972  -29.2239   19.8470 H   0  0  0  0  0  0
  -25.1312  -36.1851   25.0806 H   0  0  0  0  0  0
  -21.0021  -28.3329   24.1346 H   0  0  0  0  0  0
  -20.5689  -26.2332   23.3638 H   0  0  0  0  0  0
  -21.6651  -26.7412   22.1197 H   0  0  0  0  0  0
  -19.6932  -25.6285   21.1251 H   0  0  0  0  0  0
  -19.6702  -27.3180   20.6733 H   0  0  0  0  0  0
  -17.4209  -26.6672   21.4026 H   0  0  0  0  0  0
  -18.0330  -26.0082   22.9027 H   0  0  0  0  0  0
  -19.7959  -30.7284   24.2221 H   0  0  0  0  0  0
  -17.5034  -31.6266   24.5155 H   0  0  0  0  0  0
  -15.5367  -30.2968   23.7685 H   0  0  0  0  0  0
  -15.8691  -28.0815   22.7084 H   0  0  0  0  0  0
  -24.5899  -30.7096   25.7697 H   0  0  0  0  0  0
  -24.8871  -32.2940   26.4736 H   0  0  0  0  0  0
  -25.7974  -30.8975   27.0213 H   0  0  0  0  0  0
  -26.3056  -29.6639   24.1332 H   0  0  0  0  0  0
  -27.4007  -29.7273   25.4945 H   0  0  0  0  0  0
  -27.8977  -30.4161   23.9685 H   0  0  0  0  0  0
  -27.2651  -33.3668   26.1989 H   0  0  0  0  0  0
  -28.3916  -32.6852   25.0354 H   0  0  0  0  0  0
  -28.0680  -31.8517   26.5486 H   0  0  0  0  0  0
  -28.2576  -38.0080   24.7513 H   0  0  0  0  0  0
  -28.1083  -36.2609   24.6296 H   0  0  0  0  0  0
  -27.2286  -37.1413   25.8869 H   0  0  0  0  0  0
  -20.9496  -29.8745   21.6752 H   0  0  0  0  0  0
  -26.0162  -38.2805   24.1418 H   0  0  0  0  0  0
  -32.9259  -19.7320   20.4624 H   0  0  0  0  0  0
  -32.2303  -17.4230   20.5683 H   0  0  0  0  0  0
  -31.3874  -21.6010   20.2935 H   0  0  0  0  0  0
  -30.0164  -24.5132   21.8762 H   0  0  0  0  0  0
  -30.4757  -22.8296   22.0505 H   0  0  0  0  0  0
  -28.8762  -23.3678   22.5623 H   0  0  0  0  0  0
  -26.2632  -18.3374   19.0547 H   0  0  0  0  0  0
  -27.8327  -18.4423   18.2656 H   0  0  0  0  0  0
  -27.0371  -19.9055   18.8702 H   0  0  0  0  0  0
  -27.1322  -24.3401   20.7022 H   0  0  0  0  0  0
  -27.6657  -24.3877   19.0572 H   0  0  0  0  0  0
  -29.9032  -23.3581   19.6835 H   0  0  0  0  0  0
  -28.7821  -16.0706   20.5976 H   0  0  0  0  0  0
  -27.7202  -21.4991   20.2888 H   0  0  0  0  0  0
  1 25  1  0  0  0
  1 30  2  0  0  0
  1 81  1  0  0  0
  2  3  1  0  0  0
  2 25  1  0  0  0
  2 84  1  0  0  0
  2 85  1  0  0  0
  3  4  1  0  0  0
  3 86  1  0  0  0
  3 87  1  0  0  0
  4  5  1  0  0  0
  4 88  1  0  0  0
  4 89  1  0  0  0
  5  6  1  0  0  0
  5 26  1  0  0  0
  5 90  1  0  0  0
  6 25  1  0  0  0
  6 91  1  0  0  0
  6 92  1  0  0  0
  7  8  2  0  0  0
  7 26  1  0  0  0
  7 29  1  0  0  0
  8  9  1  0  0  0
  8 22  1  0  0  0
  9 10  1  0  0  0
  9 27  2  0  0  0
 10 11  2  0  0  0
 10 15  1  0  0  0
 11 12  1  0  0  0
 11 93  1  0  0  0
 12 13  2  0  0  0
 12 94  1  0  0  0
 13 14  1  0  0  0
 13 31  1  0  0  0
 14 15  2  0  0  0
 14 95  1  0  0  0
 15 96  1  0  0  0
 16 17  2  0  0  0
 16 21  1  0  0  0
 16 31  1  0  0  0
 17 18  1  0  0  0
 17 97  1  0  0  0
 18 19  2  0  0  0
 18 98  1  0  0  0
 19 20  1  0  0  0
 19 24  1  0  0  0
 20 21  2  0  0  0
 20 99  1  0  0  0
 21 23  1  0  0  0
 22 28  1  0  0  0
 22 32  2  0  0  0
 26 27  1  0  0  0
 28100  1  0  0  0
 28101  1  0  0  0
 29102  1  0  0  0
 29103  1  0  0  0
 33 34  1  0  0  0
 33 66  1  0  0  0
 33 70  2  0  0  0
 34 36  1  0  0  0
 34 59  1  0  0  0
 34104  1  0  0  0
 35 44  2  0  0  0
 35 45  1  0  0  0
 35 68  1  0  0  0
 36 56  1  0  0  0
 36105  1  0  0  0
 37 39  1  0  0  0
 37 47  1  0  0  0
 37 66  1  0  0  0
 37106  1  0  0  0
 38 43  2  0  0  0
 38 46  1  0  0  0
 38 47  1  0  0  0
 39 64  1  0  0  0
 39 67  2  0  0  0
 40 52  1  0  0  0
 40 53  2  0  0  0
 40 58  1  0  0  0
 41107  1  0  0  0
 41108  1  0  0  0
 41109  1  0  0  0
 41 48  1  0  0  0
 42 43  1  0  0  0
 42 66  1  0  0  0
 42110  1  0  0  0
 42111  1  0  0  0
 43 44  1  0  0  0
 44112  1  0  0  0
 45 46  2  0  0  0
 45113  1  0  0  0
 46114  1  0  0  0
 47115  1  0  0  0
 47116  1  0  0  0
 48 56  1  0  0  0
 48 65  1  0  0  0
 48117  1  0  0  0
 49 50  1  0  0  0
 49 53  1  0  0  0
 49 64  1  0  0  0
 49118  1  0  0  0
 50 51  1  0  0  0
 50119  1  0  0  0
 50120  1  0  0  0
 51 52  1  0  0  0
 51121  1  0  0  0
 51122  1  0  0  0
 52123  1  0  0  0
 52124  1  0  0  0
 53 54  1  0  0  0
 54 55  2  0  0  0
 54125  1  0  0  0
 55 57  1  0  0  0
 55126  1  0  0  0
 56 69  2  0  0  0
 57 58  2  0  0  0
 57127  1  0  0  0
 58128  1  0  0  0
 59 60  1  0  0  0
 59 61  1  0  0  0
 59 62  1  0  0  0
 60129  1  0  0  0
 60130  1  0  0  0
 60131  1  0  0  0
 61132  1  0  0  0
 61133  1  0  0  0
 61134  1  0  0  0
 62135  1  0  0  0
 62136  1  0  0  0
 62137  1  0  0  0
 63 65  1  0  0  0
 63138  1  0  0  0
 63139  1  0  0  0
 63140  1  0  0  0
 64141  1  0  0  0
 65142  1  0  0  0
 68 79  1  0  0  0
 71 72  2  0  0  0
 71 73  1  0  0  0
 71143  1  0  0  0
 72 74  1  0  0  0
 72144  1  0  0  0
 73 75  2  0  0  0
 73145  1  0  0  0
 74 76  2  0  0  0
 74 81  1  0  0  0
 75 76  1  0  0  0
 75 82  1  0  0  0
 76 83  1  0  0  0
 77146  1  0  0  0
 77147  1  0  0  0
 77148  1  0  0  0
 77 80  1  0  0  0
 78 83  1  0  0  0
 78149  1  0  0  0
 78150  1  0  0  0
 78151  1  0  0  0
 79 80  1  0  0  0
 79152  1  0  0  0
 79153  1  0  0  0
 80 82  1  0  0  0
 80154  1  0  0  0
 81155  1  0  0  0
 82156  1  0  0  0
M  ISO  4   1 100  68 101  79 101  81 100
M  END
> <chiral flag>
0

> <version>
0

> <s_m_source_file>
/data/baiqing/PycharmProjects/Reinvent-master-3.2/result/LINK_invent/BTK/process_docking_weight1_custom_sum_contain_oxygen_bond_distance_aromatic_linkinvent_7_9_3/rearranged_h_0011.sdf

> <i_m_source_file_index>
3

> <r_mmod_Potential_Energy-OPLS-2005>
610.394775390625

> <r_mmod_Stretch_Energy-OPLS-2005>
324.363861083984

> <r_mmod_Bend_Energy-OPLS-2005>
278.946044921875

> <r_mmod_Torsional_Energy-OPLS-2005>
233.389556884766

> <r_mmod_Improper_Torsional_Energy-OPLS-2005>
4.79606151580811

> <r_mmod_Van_der_Waal_Energy-OPLS-2005>
127.255599975586

> <r_mmod_Electrostatic_Energy-OPLS-2005>
-390.912231445312

> <r_mmod_Solvation_Energy-OPLS-2005>
-213.123001098633

> <b_mmod_Minimization_Converged-OPLS-2005>
0

> <r_mmod_RMS_Derivative-OPLS-2005>
2.88745713233948

$$$$
3
                    3D
 Structure written by MMmdl.
165173  0  0  1  0            999 V2000
  -30.5894  -14.6649   20.4665 C   0  0  0  0  0  0
  -30.4326  -12.4029   19.4522 C   0  0  0  0  0  0
  -29.5049  -12.5249   18.2231 C   0  0  0  0  0  0
  -28.0269  -12.3503   18.6253 C   0  0  0  0  0  0
  -27.6498  -13.2171   19.8559 C   0  0  2  0  0  0
  -28.6940  -13.0768   20.9889 C   0  0  0  0  0  0
  -25.2555  -13.8190   20.5611 C   0  0  0  0  0  0
  -24.1830  -13.0470   20.9199 C   0  0  0  0  0  0
  -24.6411  -11.6942   20.8782 C   0  0  0  0  0  0
  -23.9070  -10.4312   21.0432 C   0  0  0  0  0  0
  -24.3602   -9.4189   21.9173 C   0  0  0  0  0  0
  -23.6280   -8.2220   22.0736 C   0  0  0  0  0  0
  -22.4249   -8.0276   21.3544 C   0  0  0  0  0  0
  -21.9892   -9.0260   20.4635 C   0  0  0  0  0  0
  -22.7244  -10.2145   20.3072 C   0  0  0  0  0  0
  -21.6850   -6.0716   22.5283 C   0  0  0  0  0  0
  -21.3992   -6.5634   23.8213 C   0  0  0  0  0  0
  -21.3659   -5.6788   24.9182 C   0  0  0  0  0  0
  -21.6049   -4.3050   24.7224 C   0  0  0  0  0  0
  -21.8807   -3.8133   23.4342 C   0  0  0  0  0  0
  -21.9187   -4.6944   22.3397 C   0  0  0  0  0  0
  -22.7844  -13.5263   21.1858 C   0  0  0  0  0  0
  -22.1680   -4.2140   21.0980 F   0  0  0  0  0  0
  -21.5638   -3.4542   25.7729 F   0  0  0  0  0  0
  -30.0085  -13.4244   20.4333 N   0  0  0  0  0  0
  -26.2969  -12.9378   20.3243 N   0  0  0  0  0  0
  -25.9323  -11.6533   20.5740 N   0  0  0  0  0  0
  -22.0514  -12.8239   22.0438 N   0  0  0  0  0  0
  -25.4321  -15.1874   20.3904 N   0  0  0  0  0  0
  -31.7502  -14.8349   20.0768 O   0  0  0  0  0  0
  -21.6632   -6.8856   21.4240 O   0  0  0  0  0  0
  -22.3503  -14.5559   20.6718 O   0  0  0  0  0  0
  -24.6254  -31.8660   23.2025 C   0  0  0  0  0  0
  -25.9127  -32.4793   23.8364 C   0  0  1  0  0  0
  -27.2173  -27.3276   20.1063 C   0  0  0  0  0  0
  -25.5965  -33.8592   24.2295 N   0  0  0  0  0  0
  -23.4185  -30.4940   21.5444 C   0  0  2  0  0  0
  -24.8657  -28.9525   20.1065 C   0  0  0  0  0  0
  -22.7440  -29.4727   22.4925 C   0  0  0  0  0  0
  -18.0329  -28.1311   22.8488 C   0  0  0  0  0  0
  -24.1499  -36.7283   23.2624 C   0  0  0  0  0  0
  -25.9642  -30.7902   21.3869 C   0  0  0  0  0  0
  -26.0341  -29.4225   20.7214 C   0  0  0  0  0  0
  -27.2110  -28.6185   20.7179 C   0  0  0  0  0  0
  -26.0301  -26.9206   19.4524 C   0  0  0  0  0  0
  -24.8634  -27.7070   19.4634 C   0  0  0  0  0  0
  -23.6345  -29.8340   20.1595 C   0  0  0  0  0  0
  -25.4116  -36.3067   24.0315 C   0  0  1  0  0  0
  -20.5873  -28.3783   23.1324 C   0  0  2  0  0  0
  -20.6866  -26.9458   22.5639 C   0  0  0  0  0  0
  -19.5902  -26.6203   21.5434 C   0  0  0  0  0  0
  -18.2061  -26.7793   22.1793 C   0  0  0  0  0  0
  -19.1523  -28.8873   23.2846 C   0  0  0  0  0  0
  -18.9407  -30.1485   23.8821 C   0  0  0  0  0  0
  -17.6393  -30.6616   24.0376 C   0  0  0  0  0  0
  -25.9053  -34.9446   23.5098 C   0  0  0  0  0  0
  -16.5317  -29.9031   23.6162 C   0  0  0  0  0  0
  -16.7300  -28.6388   23.0318 C   0  0  0  0  0  0
  -26.4481  -31.6615   25.0775 C   0  0  0  0  0  0
  -25.3664  -31.3879   26.1488 C   0  0  0  0  0  0
  -27.0318  -30.2987   24.6339 C   0  0  0  0  0  0
  -27.6050  -32.4347   25.7509 C   0  0  0  0  0  0
  -27.5581  -37.1788   24.8441 C   0  0  0  0  0  0
  -21.4159  -29.3084   22.3619 N   0  0  0  0  0  0
  -26.4303  -37.3760   23.9390 N   0  0  0  0  0  0
  -24.6865  -31.0675   22.0981 N   0  0  0  0  0  0
  -23.4143  -28.8257   23.3003 O   0  0  0  0  0  0
  -28.3347  -26.4776   20.1359 O   0  0  0  0  0  0
  -26.5615  -34.8894   22.4655 O   0  0  0  0  0  0
  -23.5427  -32.1528   23.7324 O   0  0  0  0  0  0
  -30.4580  -19.1664   19.2819 C   0  0  0  0  0  0
  -30.5682  -17.7713   19.5498 C   0  0  0  0  0  0
  -28.8673  -18.0102   21.2180 C   0  0  0  0  0  0
  -29.5691  -20.0522   19.9728 C   0  0  0  0  0  0
  -29.7720  -17.1467   20.5399 C   0  0  0  0  0  0
  -28.7415  -19.4212   20.9574 C   0  0  0  0  0  0
  -29.5363  -21.5481   19.5344 C   0  0  0  0  0  0
  -25.2735  -20.5518   21.5394 C   0  0  0  0  0  0
  -28.6148  -19.6955   24.0115 C   0  0  0  0  0  0
  -26.4130  -19.5243   21.6052 C   0  0  0  0  0  0
  -28.1798  -20.7199   22.9453 C   0  0  0  0  0  0
  -29.3252  -24.0444   20.1468 C   0  0  0  0  0  0
  -28.0957  -25.0253   20.3235 C   0  0  0  0  0  0
  -29.7674  -15.7058   20.8316 N   0  0  0  0  0  0
  -29.0793  -22.5575   20.3353 N   0  0  0  0  0  0
  -27.7474  -20.1347   21.6695 N   0  0  0  0  0  0
  -30.0265  -21.8412   18.4404 O   0  0  0  0  0  0
  -31.4770  -12.5204   19.1557 H   0  0  0  0  0  0
  -30.3590  -11.4036   19.8848 H   0  0  0  0  0  0
  -29.7713  -11.7930   17.4597 H   0  0  0  0  0  0
  -29.6342  -13.5033   17.7568 H   0  0  0  0  0  0
  -27.8632  -11.2954   18.8412 H   0  0  0  0  0  0
  -27.3896  -12.5949   17.7779 H   0  0  0  0  0  0
  -27.6649  -14.2484   19.5080 H   0  0  0  0  0  0
  -28.7112  -12.0566   21.3753 H   0  0  0  0  0  0
  -28.4352  -13.7069   21.8394 H   0  0  0  0  0  0
  -25.2739   -9.5633   22.4749 H   0  0  0  0  0  0
  -23.9961   -7.4598   22.7450 H   0  0  0  0  0  0
  -21.0797   -8.8811   19.8957 H   0  0  0  0  0  0
  -22.3702  -10.9689   19.6185 H   0  0  0  0  0  0
  -21.2015   -7.6137   23.9721 H   0  0  0  0  0  0
  -21.1485   -6.0517   25.9092 H   0  0  0  0  0  0
  -22.0591   -2.7587   23.2853 H   0  0  0  0  0  0
  -22.4128  -11.9899   22.4782 H   0  0  0  0  0  0
  -21.1152  -13.1244   22.2679 H   0  0  0  0  0  0
  -24.6567  -15.8383   20.4249 H   0  0  0  0  0  0
  -26.2665  -15.5975   19.9883 H   0  0  0  0  0  0
  -26.7209  -32.5443   23.1115 H   0  0  0  0  0  0
  -25.0107  -33.9738   25.0433 H   0  0  0  0  0  0
  -22.7131  -31.3156   21.4013 H   0  0  0  0  0  0
  -23.3750  -35.9628   23.3296 H   0  0  0  0  0  0
  -24.3607  -36.8912   22.2042 H   0  0  0  0  0  0
  -23.7294  -37.6494   23.6660 H   0  0  0  0  0  0
  -26.1239  -31.5647   20.6329 H   0  0  0  0  0  0
  -26.8306  -30.8165   22.0327 H   0  0  0  0  0  0
  -28.1046  -28.9705   21.2141 H   0  0  0  0  0  0
  -25.9769  -25.9916   18.9083 H   0  0  0  0  0  0
  -23.9753  -27.3584   18.9531 H   0  0  0  0  0  0
  -23.7453  -30.6156   19.4077 H   0  0  0  0  0  0
  -22.7542  -29.2690   19.8517 H   0  0  0  0  0  0
  -25.1292  -36.1888   25.0814 H   0  0  0  0  0  0
  -20.9985  -28.3533   24.1436 H   0  0  0  0  0  0
  -20.5849  -26.2493   23.3963 H   0  0  0  0  0  0
  -21.6754  -26.7515   22.1426 H   0  0  0  0  0  0
  -19.7186  -25.6025   21.1688 H   0  0  0  0  0  0
  -19.6906  -27.2846   20.6826 H   0  0  0  0  0  0
  -17.4297  -26.6323   21.4276 H   0  0  0  0  0  0
  -18.0563  -26.0022   22.9333 H   0  0  0  0  0  0
  -19.7834  -30.7341   24.2235 H   0  0  0  0  0  0
  -17.4869  -31.6332   24.4861 H   0  0  0  0  0  0
  -15.5292  -30.2896   23.7399 H   0  0  0  0  0  0
  -15.8728  -28.0608   22.7113 H   0  0  0  0  0  0
  -24.5742  -30.7342   25.7832 H   0  0  0  0  0  0
  -24.8962  -32.3134   26.4818 H   0  0  0  0  0  0
  -25.7896  -30.9088   27.0324 H   0  0  0  0  0  0
  -26.2983  -29.6731   24.1247 H   0  0  0  0  0  0
  -27.3835  -29.7228   25.4911 H   0  0  0  0  0  0
  -27.8913  -30.4189   23.9739 H   0  0  0  0  0  0
  -27.2656  -33.3602   26.2127 H   0  0  0  0  0  0
  -28.3795  -32.6993   25.0315 H   0  0  0  0  0  0
  -28.0798  -31.8496   26.5373 H   0  0  0  0  0  0
  -28.2578  -38.0093   24.7445 H   0  0  0  0  0  0
  -28.1102  -36.2618   24.6282 H   0  0  0  0  0  0
  -27.2318  -37.1441   25.8855 H   0  0  0  0  0  0
  -20.9377  -29.8744   21.6742 H   0  0  0  0  0  0
  -26.0166  -38.2843   24.1356 H   0  0  0  0  0  0
  -31.0777  -19.5534   18.4852 H   0  0  0  0  0  0
  -31.2571  -17.1837   18.9552 H   0  0  0  0  0  0
  -28.2257  -17.5764   21.9661 H   0  0  0  0  0  0
  -24.3138  -20.0455   21.4284 H   0  0  0  0  0  0
  -25.3780  -21.2319   20.6938 H   0  0  0  0  0  0
  -25.2054  -21.1467   22.4489 H   0  0  0  0  0  0
  -28.7514  -20.1894   24.9747 H   0  0  0  0  0  0
  -29.5674  -19.2329   23.7629 H   0  0  0  0  0  0
  -27.8758  -18.9074   24.1569 H   0  0  0  0  0  0
  -26.3359  -18.8822   20.7249 H   0  0  0  0  0  0
  -26.2527  -18.8802   22.4732 H   0  0  0  0  0  0
  -28.9960  -21.4263   22.7812 H   0  0  0  0  0  0
  -27.3573  -21.3141   23.3464 H   0  0  0  0  0  0
  -30.0989  -24.3352   20.8631 H   0  0  0  0  0  0
  -29.7655  -24.2384   19.1645 H   0  0  0  0  0  0
  -27.6935  -24.8962   21.3297 H   0  0  0  0  0  0
  -27.3277  -24.6550   19.6490 H   0  0  0  0  0  0
  -28.9173  -15.3794   21.2696 H   0  0  0  0  0  0
  -28.6125  -22.2591   21.1842 H   0  0  0  0  0  0
  1 25  1  0  0  0
  1 30  2  0  0  0
  1 84  1  0  0  0
  2  3  1  0  0  0
  2 25  1  0  0  0
  2 88  1  0  0  0
  2 89  1  0  0  0
  3  4  1  0  0  0
  3 90  1  0  0  0
  3 91  1  0  0  0
  4  5  1  0  0  0
  4 92  1  0  0  0
  4 93  1  0  0  0
  5  6  1  0  0  0
  5 26  1  0  0  0
  5 94  1  0  0  0
  6 25  1  0  0  0
  6 95  1  0  0  0
  6 96  1  0  0  0
  7  8  2  0  0  0
  7 26  1  0  0  0
  7 29  1  0  0  0
  8  9  1  0  0  0
  8 22  1  0  0  0
  9 10  1  0  0  0
  9 27  2  0  0  0
 10 11  2  0  0  0
 10 15  1  0  0  0
 11 12  1  0  0  0
 11 97  1  0  0  0
 12 13  2  0  0  0
 12 98  1  0  0  0
 13 14  1  0  0  0
 13 31  1  0  0  0
 14 15  2  0  0  0
 14 99  1  0  0  0
 15100  1  0  0  0
 16 17  2  0  0  0
 16 21  1  0  0  0
 16 31  1  0  0  0
 17 18  1  0  0  0
 17101  1  0  0  0
 18 19  2  0  0  0
 18102  1  0  0  0
 19 20  1  0  0  0
 19 24  1  0  0  0
 20 21  2  0  0  0
 20103  1  0  0  0
 21 23  1  0  0  0
 22 28  1  0  0  0
 22 32  2  0  0  0
 26 27  1  0  0  0
 28104  1  0  0  0
 28105  1  0  0  0
 29106  1  0  0  0
 29107  1  0  0  0
 33 34  1  0  0  0
 33 66  1  0  0  0
 33 70  2  0  0  0
 34 36  1  0  0  0
 34 59  1  0  0  0
 34108  1  0  0  0
 35 44  2  0  0  0
 35 45  1  0  0  0
 35 68  1  0  0  0
 36 56  1  0  0  0
 36109  1  0  0  0
 37 39  1  0  0  0
 37 47  1  0  0  0
 37 66  1  0  0  0
 37110  1  0  0  0
 38 43  2  0  0  0
 38 46  1  0  0  0
 38 47  1  0  0  0
 39 64  1  0  0  0
 39 67  2  0  0  0
 40 52  1  0  0  0
 40 53  2  0  0  0
 40 58  1  0  0  0
 41111  1  0  0  0
 41112  1  0  0  0
 41113  1  0  0  0
 41 48  1  0  0  0
 42 43  1  0  0  0
 42 66  1  0  0  0
 42114  1  0  0  0
 42115  1  0  0  0
 43 44  1  0  0  0
 44116  1  0  0  0
 45 46  2  0  0  0
 45117  1  0  0  0
 46118  1  0  0  0
 47119  1  0  0  0
 47120  1  0  0  0
 48 56  1  0  0  0
 48 65  1  0  0  0
 48121  1  0  0  0
 49 50  1  0  0  0
 49 53  1  0  0  0
 49 64  1  0  0  0
 49122  1  0  0  0
 50 51  1  0  0  0
 50123  1  0  0  0
 50124  1  0  0  0
 51 52  1  0  0  0
 51125  1  0  0  0
 51126  1  0  0  0
 52127  1  0  0  0
 52128  1  0  0  0
 53 54  1  0  0  0
 54 55  2  0  0  0
 54129  1  0  0  0
 55 57  1  0  0  0
 55130  1  0  0  0
 56 69  2  0  0  0
 57 58  2  0  0  0
 57131  1  0  0  0
 58132  1  0  0  0
 59 60  1  0  0  0
 59 61  1  0  0  0
 59 62  1  0  0  0
 60133  1  0  0  0
 60134  1  0  0  0
 60135  1  0  0  0
 61136  1  0  0  0
 61137  1  0  0  0
 61138  1  0  0  0
 62139  1  0  0  0
 62140  1  0  0  0
 62141  1  0  0  0
 63 65  1  0  0  0
 63142  1  0  0  0
 63143  1  0  0  0
 63144  1  0  0  0
 64145  1  0  0  0
 65146  1  0  0  0
 68 83  1  0  0  0
 71 72  2  0  0  0
 71 74  1  0  0  0
 71147  1  0  0  0
 72 75  1  0  0  0
 72148  1  0  0  0
 73 75  2  0  0  0
 73 76  1  0  0  0
 73149  1  0  0  0
 74 76  2  0  0  0
 74 77  1  0  0  0
 75 84  1  0  0  0
 76 86  1  0  0  0
 77 85  1  0  0  0
 77 87  2  0  0  0
 78 80  1  0  0  0
 78150  1  0  0  0
 78151  1  0  0  0
 78152  1  0  0  0
 79 81  1  0  0  0
 79153  1  0  0  0
 79154  1  0  0  0
 79155  1  0  0  0
 80 86  1  0  0  0
 80156  1  0  0  0
 80157  1  0  0  0
 81 86  1  0  0  0
 81158  1  0  0  0
 81159  1  0  0  0
 82 83  1  0  0  0
 82 85  1  0  0  0
 82160  1  0  0  0
 82161  1  0  0  0
 83162  1  0  0  0
 83163  1  0  0  0
 84164  1  0  0  0
 85165  1  0  0  0
M  ISO  4   1 100  68 101  83 101  84 100
M  END
> <chiral flag>
0

> <version>
0

> <s_m_source_file>
/data/baiqing/PycharmProjects/Reinvent-master-3.2/result/LINK_invent/BTK/process_docking_weight1_custom_sum_contain_oxygen_bond_distance_aromatic_linkinvent_7_9_3/rearranged_h_0011.sdf

> <i_m_source_file_index>
4

> <r_mmod_Potential_Energy-OPLS-2005>
101.982467651367

> <r_mmod_Stretch_Energy-OPLS-2005>
87.3576126098633

> <r_mmod_Bend_Energy-OPLS-2005>
149.468566894531

> <r_mmod_Torsional_Energy-OPLS-2005>
259.516510009766

> <r_mmod_Improper_Torsional_Energy-OPLS-2005>
8.61704730987549

> <r_mmod_Van_der_Waal_Energy-OPLS-2005>
149.518447875977

> <r_mmod_Electrostatic_Energy-OPLS-2005>
-383.113677978516

> <r_mmod_Solvation_Energy-OPLS-2005>
-223.26904296875

> <b_mmod_Minimization_Converged-OPLS-2005>
0

> <r_mmod_RMS_Derivative-OPLS-2005>
7.03707647323608

$$$$
4
                    3D
 Structure written by MMmdl.
158166  0  0  1  0            999 V2000
  -30.6931  -14.4596   20.4618 C   0  0  0  0  0  0
  -30.4148  -12.2636   19.4160 C   0  0  0  0  0  0
  -29.4845  -12.4614   18.2005 C   0  0  0  0  0  0
  -28.0094  -12.3303   18.6281 C   0  0  0  0  0  0
  -27.6553  -13.1939   19.8665 C   0  0  2  0  0  0
  -28.7129  -13.0240   20.9852 C   0  0  0  0  0  0
  -25.2617  -13.8130   20.5693 C   0  0  0  0  0  0
  -24.1841  -13.0422   20.9158 C   0  0  0  0  0  0
  -24.6368  -11.6889   20.8761 C   0  0  0  0  0  0
  -23.9024  -10.4288   21.0419 C   0  0  0  0  0  0
  -24.3583   -9.4196   21.9178 C   0  0  0  0  0  0
  -23.6267   -8.2232   22.0747 C   0  0  0  0  0  0
  -22.4259   -8.0263   21.3530 C   0  0  0  0  0  0
  -21.9887   -9.0235   20.4639 C   0  0  0  0  0  0
  -22.7212  -10.2120   20.3054 C   0  0  0  0  0  0
  -21.6845   -6.0718   22.5274 C   0  0  0  0  0  0
  -21.4005   -6.5627   23.8199 C   0  0  0  0  0  0
  -21.3660   -5.6783   24.9164 C   0  0  0  0  0  0
  -21.6055   -4.3045   24.7228 C   0  0  0  0  0  0
  -21.8816   -3.8135   23.4347 C   0  0  0  0  0  0
  -21.9184   -4.6943   22.3404 C   0  0  0  0  0  0
  -22.7877  -13.5209   21.1862 C   0  0  0  0  0  0
  -22.1657   -4.2120   21.0987 F   0  0  0  0  0  0
  -21.5634   -3.4547   25.7753 F   0  0  0  0  0  0
  -30.0417  -13.2737   20.4060 N   0  0  0  0  0  0
  -26.3007  -12.9248   20.3396 N   0  0  0  0  0  0
  -25.9290  -11.6421   20.5828 N   0  0  0  0  0  0
  -22.0545  -12.8180   22.0425 N   0  0  0  0  0  0
  -25.4440  -15.1858   20.4136 N   0  0  0  0  0  0
  -31.9010  -14.5916   20.2520 O   0  0  0  0  0  0
  -21.6633   -6.8861   21.4233 O   0  0  0  0  0  0
  -22.3550  -14.5530   20.6751 O   0  0  0  0  0  0
  -24.6108  -31.8700   23.2152 C   0  0  0  0  0  0
  -25.8998  -32.4859   23.8444 C   0  0  1  0  0  0
  -27.2512  -27.4508   20.1003 C   0  0  0  0  0  0
  -25.5877  -33.8666   24.2380 N   0  0  0  0  0  0
  -23.3993  -30.4903   21.5513 C   0  0  2  0  0  0
  -24.8504  -28.9509   20.1238 C   0  0  0  0  0  0
  -22.7396  -29.4674   22.5025 C   0  0  0  0  0  0
  -18.0226  -28.1400   22.8502 C   0  0  0  0  0  0
  -24.1488  -36.7328   23.2632 C   0  0  0  0  0  0
  -25.9256  -30.8371   21.3674 C   0  0  0  0  0  0
  -26.0049  -29.4703   20.7204 C   0  0  0  0  0  0
  -27.2041  -28.7241   20.7077 C   0  0  0  0  0  0
  -26.0759  -26.9362   19.5055 C   0  0  0  0  0  0
  -24.8789  -27.6805   19.5190 C   0  0  0  0  0  0
  -23.6106  -29.8186   20.1678 C   0  0  0  0  0  0
  -25.4119  -36.3170   24.0343 C   0  0  1  0  0  0
  -20.5822  -28.3688   23.1320 C   0  0  2  0  0  0
  -20.6695  -26.9422   22.5410 C   0  0  0  0  0  0
  -19.5653  -26.6364   21.5260 C   0  0  0  0  0  0
  -18.1845  -26.7927   22.1669 C   0  0  0  0  0  0
  -19.1483  -28.8847   23.2902 C   0  0  0  0  0  0
  -18.9403  -30.1463   23.8869 C   0  0  0  0  0  0
  -17.6376  -30.6575   24.0546 C   0  0  0  0  0  0
  -25.9036  -34.9528   23.5164 C   0  0  0  0  0  0
  -16.5269  -29.9090   23.6345 C   0  0  0  0  0  0
  -16.7195  -28.6505   23.0349 C   0  0  0  0  0  0
  -26.4475  -31.6630   25.0755 C   0  0  0  0  0  0
  -25.3778  -31.3670   26.1512 C   0  0  0  0  0  0
  -27.0245  -30.3061   24.6080 C   0  0  0  0  0  0
  -27.6068  -32.4337   25.7506 C   0  0  0  0  0  0
  -27.5588  -37.1839   24.8489 C   0  0  0  0  0  0
  -21.4115  -29.3037   22.3739 N   0  0  0  0  0  0
  -26.4323  -37.3844   23.9399 N   0  0  0  0  0  0
  -24.6629  -31.0802   22.1049 N   0  0  0  0  0  0
  -23.4153  -28.8223   23.3077 O   0  0  0  0  0  0
  -28.4688  -26.8071   20.0427 O   0  0  0  0  0  0
  -26.5619  -34.8954   22.4741 O   0  0  0  0  0  0
  -23.5303  -32.1469   23.7534 O   0  0  0  0  0  0
  -28.2869  -18.7524   20.5139 C   0  0  0  0  0  0
  -29.1820  -18.0487   22.6665 C   0  0  0  0  0  0
  -28.7703  -17.5658   19.9332 C   0  0  0  0  0  0
  -29.6658  -16.8588   22.0843 C   0  0  0  0  0  0
  -28.5007  -19.0173   21.8836 C   0  0  0  0  0  0
  -29.4670  -16.6182   20.7078 C   0  0  0  0  0  0
  -28.3057  -20.8936   23.5343 C   0  0  0  0  0  0
  -28.9126  -25.0291   21.6279 C   0  0  0  0  0  0
  -27.6138  -22.2384   23.7921 C   0  0  0  0  0  0
  -28.5318  -25.3815   20.1831 C   0  0  0  0  0  0
  -28.5176  -23.4560   23.4999 C   0  0  0  0  0  0
  -27.9969  -20.2501   22.3934 N   0  0  0  0  0  0
  -29.9031  -15.4512   20.0398 N   0  0  0  0  0  0
  -28.5005  -23.8417   22.0885 N   0  0  0  0  0  0
  -29.0966  -20.4700   24.3787 O   0  0  0  0  0  0
  -29.5474  -25.8243   22.3310 O   0  0  0  0  0  0
  -31.4599  -12.3423   19.1146 H   0  0  0  0  0  0
  -30.2884  -11.2651   19.8370 H   0  0  0  0  0  0
  -29.7144  -11.7287   17.4259 H   0  0  0  0  0  0
  -29.6499  -13.4395   17.7474 H   0  0  0  0  0  0
  -27.8305  -11.2787   18.8532 H   0  0  0  0  0  0
  -27.3463  -12.5772   17.7969 H   0  0  0  0  0  0
  -27.6699  -14.2283   19.5295 H   0  0  0  0  0  0
  -28.6787  -12.0186   21.4046 H   0  0  0  0  0  0
  -28.5098  -13.7140   21.8057 H   0  0  0  0  0  0
  -25.2719   -9.5679   22.4744 H   0  0  0  0  0  0
  -23.9985   -7.4616   22.7450 H   0  0  0  0  0  0
  -21.0814   -8.8711   19.8948 H   0  0  0  0  0  0
  -22.3627  -10.9636   19.6161 H   0  0  0  0  0  0
  -21.1999   -7.6139   23.9678 H   0  0  0  0  0  0
  -21.1495   -6.0539   25.9057 H   0  0  0  0  0  0
  -22.0604   -2.7602   23.2868 H   0  0  0  0  0  0
  -22.4157  -11.9806   22.4742 H   0  0  0  0  0  0
  -21.1175  -13.1202   22.2677 H   0  0  0  0  0  0
  -24.7066  -15.8664   20.5616 H   0  0  0  0  0  0
  -26.3358  -15.6108   20.1896 H   0  0  0  0  0  0
  -26.7039  -32.5593   23.1188 H   0  0  0  0  0  0
  -25.0059  -33.9911   25.0523 H   0  0  0  0  0  0
  -22.6874  -31.3074   21.4074 H   0  0  0  0  0  0
  -23.3759  -35.9656   23.3382 H   0  0  0  0  0  0
  -24.3508  -36.8840   22.2018 H   0  0  0  0  0  0
  -23.7286  -37.6570   23.6583 H   0  0  0  0  0  0
  -26.0367  -31.6045   20.6007 H   0  0  0  0  0  0
  -26.8100  -30.8914   21.9860 H   0  0  0  0  0  0
  -28.1002  -29.1251   21.1605 H   0  0  0  0  0  0
  -26.0733  -25.9834   18.9960 H   0  0  0  0  0  0
  -23.9924  -27.2772   19.0512 H   0  0  0  0  0  0
  -23.7231  -30.5892   19.4050 H   0  0  0  0  0  0
  -22.7347  -29.2396   19.8716 H   0  0  0  0  0  0
  -25.1305  -36.2053   25.0839 H   0  0  0  0  0  0
  -20.9888  -28.3204   24.1453 H   0  0  0  0  0  0
  -20.5579  -26.2291   23.3572 H   0  0  0  0  0  0
  -21.6547  -26.7437   22.1157 H   0  0  0  0  0  0
  -19.6757  -25.6273   21.1254 H   0  0  0  0  0  0
  -19.6570  -27.3182   20.6808 H   0  0  0  0  0  0
  -17.4135  -26.6618   21.4068 H   0  0  0  0  0  0
  -18.0184  -26.0144   22.9119 H   0  0  0  0  0  0
  -19.7826  -30.7335   24.2195 H   0  0  0  0  0  0
  -17.4897  -31.6254   24.5152 H   0  0  0  0  0  0
  -15.5244  -30.2981   23.7694 H   0  0  0  0  0  0
  -15.8562  -28.0879   22.7020 H   0  0  0  0  0  0
  -24.5960  -30.7015   25.7842 H   0  0  0  0  0  0
  -24.8954  -32.2776   26.5074 H   0  0  0  0  0  0
  -25.8182  -30.8782   27.0218 H   0  0  0  0  0  0
  -26.2730  -29.6872   24.1156 H   0  0  0  0  0  0
  -27.3996  -29.7280   25.4542 H   0  0  0  0  0  0
  -27.8632  -30.4344   23.9228 H   0  0  0  0  0  0
  -27.2697  -33.3599   26.2177 H   0  0  0  0  0  0
  -28.3853  -32.6950   25.0326 H   0  0  0  0  0  0
  -28.0777  -31.8406   26.5348 H   0  0  0  0  0  0
  -28.2700  -38.0051   24.7440 H   0  0  0  0  0  0
  -28.1002  -36.2575   24.6462 H   0  0  0  0  0  0
  -27.2247  -37.1680   25.8882 H   0  0  0  0  0  0
  -20.9288  -29.8753   21.6956 H   0  0  0  0  0  0
  -26.0231  -38.2942   24.1332 H   0  0  0  0  0  0
  -27.7633  -19.4575   19.8838 H   0  0  0  0  0  0
  -29.3491  -18.1946   23.7245 H   0  0  0  0  0  0
  -28.6079  -17.3968   18.8786 H   0  0  0  0  0  0
  -30.1912  -16.1506   22.7111 H   0  0  0  0  0  0
  -27.3567  -22.2560   24.8535 H   0  0  0  0  0  0
  -26.6603  -22.3125   23.2662 H   0  0  0  0  0  0
  -27.6193  -24.8573   19.9072 H   0  0  0  0  0  0
  -29.3115  -25.0073   19.5178 H   0  0  0  0  0  0
  -29.5424  -23.2628   23.8273 H   0  0  0  0  0  0
  -28.1634  -24.2974   24.0972 H   0  0  0  0  0  0
  -27.3673  -20.7488   21.7790 H   0  0  0  0  0  0
  -29.8636  -15.5030   19.0331 H   0  0  0  0  0  0
  -28.0402  -23.2273   21.4304 H   0  0  0  0  0  0
  1 25  1  0  0  0
  1 30  2  0  0  0
  1 83  1  0  0  0
  2  3  1  0  0  0
  2 25  1  0  0  0
  2 87  1  0  0  0
  2 88  1  0  0  0
  3  4  1  0  0  0
  3 89  1  0  0  0
  3 90  1  0  0  0
  4  5  1  0  0  0
  4 91  1  0  0  0
  4 92  1  0  0  0
  5  6  1  0  0  0
  5 26  1  0  0  0
  5 93  1  0  0  0
  6 25  1  0  0  0
  6 94  1  0  0  0
  6 95  1  0  0  0
  7  8  2  0  0  0
  7 26  1  0  0  0
  7 29  1  0  0  0
  8  9  1  0  0  0
  8 22  1  0  0  0
  9 10  1  0  0  0
  9 27  2  0  0  0
 10 11  2  0  0  0
 10 15  1  0  0  0
 11 12  1  0  0  0
 11 96  1  0  0  0
 12 13  2  0  0  0
 12 97  1  0  0  0
 13 14  1  0  0  0
 13 31  1  0  0  0
 14 15  2  0  0  0
 14 98  1  0  0  0
 15 99  1  0  0  0
 16 17  2  0  0  0
 16 21  1  0  0  0
 16 31  1  0  0  0
 17 18  1  0  0  0
 17100  1  0  0  0
 18 19  2  0  0  0
 18101  1  0  0  0
 19 20  1  0  0  0
 19 24  1  0  0  0
 20 21  2  0  0  0
 20102  1  0  0  0
 21 23  1  0  0  0
 22 28  1  0  0  0
 22 32  2  0  0  0
 26 27  1  0  0  0
 28103  1  0  0  0
 28104  1  0  0  0
 29105  1  0  0  0
 29106  1  0  0  0
 33 34  1  0  0  0
 33 66  1  0  0  0
 33 70  2  0  0  0
 34 36  1  0  0  0
 34 59  1  0  0  0
 34107  1  0  0  0
 35 44  2  0  0  0
 35 45  1  0  0  0
 35 68  1  0  0  0
 36 56  1  0  0  0
 36108  1  0  0  0
 37 39  1  0  0  0
 37 47  1  0  0  0
 37 66  1  0  0  0
 37109  1  0  0  0
 38 43  2  0  0  0
 38 46  1  0  0  0
 38 47  1  0  0  0
 39 64  1  0  0  0
 39 67  2  0  0  0
 40 52  1  0  0  0
 40 53  2  0  0  0
 40 58  1  0  0  0
 41110  1  0  0  0
 41111  1  0  0  0
 41112  1  0  0  0
 41 48  1  0  0  0
 42 43  1  0  0  0
 42 66  1  0  0  0
 42113  1  0  0  0
 42114  1  0  0  0
 43 44  1  0  0  0
 44115  1  0  0  0
 45 46  2  0  0  0
 45116  1  0  0  0
 46117  1  0  0  0
 47118  1  0  0  0
 47119  1  0  0  0
 48 56  1  0  0  0
 48 65  1  0  0  0
 48120  1  0  0  0
 49 50  1  0  0  0
 49 53  1  0  0  0
 49 64  1  0  0  0
 49121  1  0  0  0
 50 51  1  0  0  0
 50122  1  0  0  0
 50123  1  0  0  0
 51 52  1  0  0  0
 51124  1  0  0  0
 51125  1  0  0  0
 52126  1  0  0  0
 52127  1  0  0  0
 53 54  1  0  0  0
 54 55  2  0  0  0
 54128  1  0  0  0
 55 57  1  0  0  0
 55129  1  0  0  0
 56 69  2  0  0  0
 57 58  2  0  0  0
 57130  1  0  0  0
 58131  1  0  0  0
 59 60  1  0  0  0
 59 61  1  0  0  0
 59 62  1  0  0  0
 60132  1  0  0  0
 60133  1  0  0  0
 60134  1  0  0  0
 61135  1  0  0  0
 61136  1  0  0  0
 61137  1  0  0  0
 62138  1  0  0  0
 62139  1  0  0  0
 62140  1  0  0  0
 63 65  1  0  0  0
 63141  1  0  0  0
 63142  1  0  0  0
 63143  1  0  0  0
 64144  1  0  0  0
 65145  1  0  0  0
 68 80  1  0  0  0
 71 73  2  0  0  0
 71 75  1  0  0  0
 71146  1  0  0  0
 72 74  1  0  0  0
 72 75  2  0  0  0
 72147  1  0  0  0
 73 76  1  0  0  0
 73148  1  0  0  0
 74 76  2  0  0  0
 74149  1  0  0  0
 75 82  1  0  0  0
 76 83  1  0  0  0
 77 79  1  0  0  0
 77 82  1  0  0  0
 77 85  2  0  0  0
 78 80  1  0  0  0
 78 84  1  0  0  0
 78 86  2  0  0  0
 79 81  1  0  0  0
 79150  1  0  0  0
 79151  1  0  0  0
 80152  1  0  0  0
 80153  1  0  0  0
 81 84  1  0  0  0
 81154  1  0  0  0
 81155  1  0  0  0
 82156  1  0  0  0
 83157  1  0  0  0
 84158  1  0  0  0
M  ISO  4   1 100  68 101  80 101  83 100
M  END
> <chiral flag>
0

> <version>
0

> <s_m_source_file>
/data/baiqing/PycharmProjects/Reinvent-master-3.2/result/LINK_invent/BTK/process_docking_weight1_custom_sum_contain_oxygen_bond_distance_aromatic_linkinvent_7_9_3/rearranged_h_0011.sdf

> <i_m_source_file_index>
5

> <r_mmod_Potential_Energy-OPLS-2005>
-46.1156311035156

> <r_mmod_Stretch_Energy-OPLS-2005>
33.3017692565918

> <r_mmod_Bend_Energy-OPLS-2005>
113.89835357666

> <r_mmod_Torsional_Energy-OPLS-2005>
280.943511962891

> <r_mmod_Improper_Torsional_Energy-OPLS-2005>
27.4052753448486

> <r_mmod_Van_der_Waal_Energy-OPLS-2005>
150.291198730469

> <r_mmod_Electrostatic_Energy-OPLS-2005>
-395.652862548828

> <r_mmod_Solvation_Energy-OPLS-2005>
-277.525787353516

> <b_mmod_Minimization_Converged-OPLS-2005>
0

> <r_mmod_RMS_Derivative-OPLS-2005>
5.25559425354004

$$$$
5
                    3D
 Structure written by MMmdl.
187194  0  0  1  0            999 V2000
  -30.7843  -14.3299   20.7190 C   0  0  0  0  0  0
  -30.4244  -12.2845   19.3841 C   0  0  0  0  0  0
  -29.4819  -12.5106   18.1871 C   0  0  0  0  0  0
  -28.0055  -12.3785   18.6099 C   0  0  0  0  0  0
  -27.6711  -13.1989   19.8811 C   0  0  2  0  0  0
  -28.7095  -12.9242   20.9906 C   0  0  0  0  0  0
  -25.2629  -13.8149   20.5647 C   0  0  0  0  0  0
  -24.1866  -13.0439   20.9170 C   0  0  0  0  0  0
  -24.6419  -11.6908   20.8760 C   0  0  0  0  0  0
  -23.9073  -10.4292   21.0413 C   0  0  0  0  0  0
  -24.3611   -9.4202   21.9193 C   0  0  0  0  0  0
  -23.6286   -8.2230   22.0772 C   0  0  0  0  0  0
  -22.4281   -8.0281   21.3531 C   0  0  0  0  0  0
  -21.9902   -9.0260   20.4653 C   0  0  0  0  0  0
  -22.7241  -10.2137   20.3063 C   0  0  0  0  0  0
  -21.6848   -6.0753   22.5288 C   0  0  0  0  0  0
  -21.4022   -6.5649   23.8226 C   0  0  0  0  0  0
  -21.3641   -5.6782   24.9173 C   0  0  0  0  0  0
  -21.6028   -4.3057   24.7216 C   0  0  0  0  0  0
  -21.8817   -3.8163   23.4338 C   0  0  0  0  0  0
  -21.9201   -4.6977   22.3393 C   0  0  0  0  0  0
  -22.7883  -13.5260   21.1787 C   0  0  0  0  0  0
  -22.1667   -4.2173   21.0976 F   0  0  0  0  0  0
  -21.5610   -3.4528   25.7721 F   0  0  0  0  0  0
  -30.0571  -13.2129   20.4624 N   0  0  0  0  0  0
  -26.3085  -12.9315   20.3403 N   0  0  0  0  0  0
  -25.9349  -11.6479   20.5808 N   0  0  0  0  0  0
  -22.0474  -12.8309   22.0354 N   0  0  0  0  0  0
  -25.4326  -15.1845   20.3993 N   0  0  0  0  0  0
  -31.7516  -14.6887   20.0409 O   0  0  0  0  0  0
  -21.6623   -6.8891   21.4245 O   0  0  0  0  0  0
  -22.3590  -14.5555   20.6619 O   0  0  0  0  0  0
  -24.6101  -31.8711   23.2145 C   0  0  0  0  0  0
  -25.9015  -32.4836   23.8433 C   0  0  1  0  0  0
  -27.2317  -27.4727   20.0788 C   0  0  0  0  0  0
  -25.5882  -33.8645   24.2357 N   0  0  0  0  0  0
  -23.3978  -30.4946   21.5538 C   0  0  2  0  0  0
  -24.8446  -28.9675   20.1157 C   0  0  0  0  0  0
  -22.7391  -29.4664   22.5002 C   0  0  0  0  0  0
  -18.0274  -28.1374   22.8492 C   0  0  0  0  0  0
  -24.1493  -36.7321   23.2637 C   0  0  0  0  0  0
  -25.9232  -30.8452   21.3653 C   0  0  0  0  0  0
  -26.0004  -29.4817   20.7148 C   0  0  0  0  0  0
  -27.1985  -28.7364   20.7034 C   0  0  0  0  0  0
  -26.0670  -26.9761   19.4553 C   0  0  0  0  0  0
  -24.8688  -27.7108   19.4882 C   0  0  0  0  0  0
  -23.6041  -29.8274   20.1688 C   0  0  0  0  0  0
  -25.4111  -36.3130   24.0342 C   0  0  1  0  0  0
  -20.5858  -28.3654   23.1327 C   0  0  2  0  0  0
  -20.6767  -26.9394   22.5422 C   0  0  0  0  0  0
  -19.5744  -26.6382   21.5213 C   0  0  0  0  0  0
  -18.1919  -26.7924   22.1619 C   0  0  0  0  0  0
  -19.1523  -28.8826   23.2909 C   0  0  0  0  0  0
  -18.9452  -30.1439   23.8909 C   0  0  0  0  0  0
  -17.6451  -30.6581   24.0563 C   0  0  0  0  0  0
  -25.9034  -34.9494   23.5151 C   0  0  0  0  0  0
  -16.5342  -29.9085   23.6324 C   0  0  0  0  0  0
  -16.7262  -28.6504   23.0341 C   0  0  0  0  0  0
  -26.4468  -31.6598   25.0737 C   0  0  0  0  0  0
  -25.3741  -31.3680   26.1486 C   0  0  0  0  0  0
  -27.0285  -30.3052   24.6054 C   0  0  0  0  0  0
  -27.6062  -32.4303   25.7474 C   0  0  0  0  0  0
  -27.5584  -37.1816   24.8466 C   0  0  0  0  0  0
  -21.4116  -29.3025   22.3741 N   0  0  0  0  0  0
  -26.4301  -37.3800   23.9409 N   0  0  0  0  0  0
  -24.6615  -31.0835   22.1036 N   0  0  0  0  0  0
  -23.4180  -28.8202   23.3023 O   0  0  0  0  0  0
  -28.3853  -26.7298   20.0753 O   0  0  0  0  0  0
  -26.5592  -34.8917   22.4704 O   0  0  0  0  0  0
  -23.5304  -32.1457   23.7562 O   0  0  0  0  0  0
  -24.6216  -19.0927   26.4803 C   0  0  0  0  0  0
  -29.7080  -17.2271   22.4504 C   0  0  0  0  0  0
  -23.8326  -18.7070   22.7940 C   0  0  0  0  0  0
  -26.1279  -19.2237   26.7317 C   0  0  0  0  0  0
  -30.9023  -16.2936   22.2482 C   0  0  0  0  0  0
  -26.9245  -19.6372   25.4729 C   0  0  0  0  0  0
  -26.1006  -22.7464   21.5291 C   0  0  0  0  0  0
  -27.0924  -23.8122   22.0230 C   0  0  0  0  0  0
  -28.0060  -18.6314   25.0386 C   0  0  0  0  0  0
  -25.3667  -22.0089   22.6586 C   0  0  0  0  0  0
  -27.8466  -24.4645   20.8509 C   0  0  0  0  0  0
  -21.8752  -19.8713   24.8809 C   0  0  0  0  0  0
  -28.8040  -19.1137   23.8110 C   0  0  0  0  0  0
  -22.4720  -20.3467   26.2228 C   0  0  0  0  0  0
  -24.3266  -21.0149   22.1064 C   0  0  0  0  0  0
  -22.4010  -20.5783   23.6072 C   0  0  0  0  0  0
  -28.4778  -25.8317   21.1834 C   0  0  0  0  0  0
  -23.9297  -20.2289   26.3165 N   0  0  0  0  0  0
  -29.8175  -18.1369   23.4222 N   0  0  0  0  0  0
  -30.4289  -14.9781   21.8287 N   0  0  0  0  0  0
  -23.7551  -20.1425   23.1670 N   0  3  1  0  0  0
  -24.0925  -17.9824   26.4300 O   0  0  0  0  0  0
  -28.7095  -17.1249   21.7345 O   0  0  0  0  0  0
  -31.4642  -12.3993   19.0711 H   0  0  0  0  0  0
  -30.3465  -11.2585   19.7454 H   0  0  0  0  0  0
  -29.7054  -11.7926   17.3962 H   0  0  0  0  0  0
  -29.6602  -13.4977   17.7596 H   0  0  0  0  0  0
  -27.8013  -11.3223   18.7897 H   0  0  0  0  0  0
  -27.3546  -12.6750   17.7863 H   0  0  0  0  0  0
  -27.7347  -14.2528   19.6134 H   0  0  0  0  0  0
  -28.6678  -11.8757   21.2878 H   0  0  0  0  0  0
  -28.4517  -13.4886   21.8856 H   0  0  0  0  0  0
  -25.2737   -9.5665   22.4800 H   0  0  0  0  0  0
  -23.9973   -7.4616   22.7492 H   0  0  0  0  0  0
  -21.0838   -8.8793   19.8962 H   0  0  0  0  0  0
  -22.3699  -10.9687   19.6191 H   0  0  0  0  0  0
  -21.2031   -7.6161   23.9741 H   0  0  0  0  0  0
  -21.1450   -6.0509   25.9076 H   0  0  0  0  0  0
  -22.0627   -2.7633   23.2820 H   0  0  0  0  0  0
  -22.4005  -11.9978   22.4830 H   0  0  0  0  0  0
  -21.1093  -13.1405   22.2458 H   0  0  0  0  0  0
  -24.6589  -15.8366   20.4643 H   0  0  0  0  0  0
  -26.2978  -15.6212   20.1005 H   0  0  0  0  0  0
  -26.7068  -32.5563   23.1193 H   0  0  0  0  0  0
  -25.0068  -33.9831   25.0524 H   0  0  0  0  0  0
  -22.6838  -31.3100   21.4165 H   0  0  0  0  0  0
  -23.3758  -35.9650   23.3315 H   0  0  0  0  0  0
  -24.3585  -36.8921   22.2047 H   0  0  0  0  0  0
  -23.7247  -37.6530   23.6639 H   0  0  0  0  0  0
  -26.0319  -31.6084   20.5945 H   0  0  0  0  0  0
  -26.8149  -30.9009   21.9776 H   0  0  0  0  0  0
  -28.0935  -29.1261   21.1681 H   0  0  0  0  0  0
  -26.0763  -26.0318   18.9320 H   0  0  0  0  0  0
  -23.9792  -27.3141   19.0162 H   0  0  0  0  0  0
  -23.7072  -30.6030   19.4094 H   0  0  0  0  0  0
  -22.7294  -29.2435   19.8751 H   0  0  0  0  0  0
  -25.1287  -36.2011   25.0833 H   0  0  0  0  0  0
  -20.9954  -28.3219   24.1448 H   0  0  0  0  0  0
  -20.5671  -26.2253   23.3610 H   0  0  0  0  0  0
  -21.6637  -26.7445   22.1202 H   0  0  0  0  0  0
  -19.6911  -25.6302   21.1225 H   0  0  0  0  0  0
  -19.6691  -27.3208   20.6760 H   0  0  0  0  0  0
  -17.4200  -26.6678   21.4021 H   0  0  0  0  0  0
  -18.0316  -26.0067   22.9010 H   0  0  0  0  0  0
  -19.7926  -30.7254   24.2279 H   0  0  0  0  0  0
  -17.5009  -31.6261   24.5171 H   0  0  0  0  0  0
  -15.5346  -30.2986   23.7645 H   0  0  0  0  0  0
  -15.8661  -28.0828   22.7038 H   0  0  0  0  0  0
  -24.5914  -30.7025   25.7821 H   0  0  0  0  0  0
  -24.8922  -32.2816   26.4964 H   0  0  0  0  0  0
  -25.8096  -30.8829   27.0226 H   0  0  0  0  0  0
  -26.2804  -29.6820   24.1127 H   0  0  0  0  0  0
  -27.4113  -29.7267   25.4472 H   0  0  0  0  0  0
  -27.8614  -30.4402   23.9150 H   0  0  0  0  0  0
  -27.2711  -33.3598   26.2081 H   0  0  0  0  0  0
  -28.3839  -32.6867   25.0272 H   0  0  0  0  0  0
  -28.0756  -31.8405   26.5353 H   0  0  0  0  0  0
  -28.2614  -38.0103   24.7514 H   0  0  0  0  0  0
  -28.1068  -36.2637   24.6296 H   0  0  0  0  0  0
  -27.2294  -37.1469   25.8866 H   0  0  0  0  0  0
  -20.9280  -29.8746   21.6959 H   0  0  0  0  0  0
  -26.0202  -38.2882   24.1398 H   0  0  0  0  0  0
  -24.8472  -18.4481   22.4909 H   0  0  0  0  0  0
  -23.1600  -18.4795   21.9667 H   0  0  0  0  0  0
  -23.5929  -18.0452   23.6225 H   0  0  0  0  0  0
  -26.4964  -18.2760   27.1272 H   0  0  0  0  0  0
  -26.2904  -19.9506   27.5278 H   0  0  0  0  0  0
  -31.4797  -16.1926   23.1688 H   0  0  0  0  0  0
  -31.5624  -16.7500   21.5067 H   0  0  0  0  0  0
  -27.3875  -20.6089   25.6553 H   0  0  0  0  0  0
  -26.2448  -19.7809   24.6381 H   0  0  0  0  0  0
  -26.6315  -22.0220   20.9107 H   0  0  0  0  0  0
  -25.3644  -23.2215   20.8782 H   0  0  0  0  0  0
  -27.8069  -23.3861   22.7289 H   0  0  0  0  0  0
  -26.5312  -24.5685   22.5743 H   0  0  0  0  0  0
  -27.5423  -17.6664   24.8186 H   0  0  0  0  0  0
  -28.6960  -18.4655   25.8670 H   0  0  0  0  0  0
  -24.8800  -22.7255   23.3200 H   0  0  0  0  0  0
  -26.1116  -21.4885   23.2575 H   0  0  0  0  0  0
  -27.1537  -24.5746   20.0214 H   0  0  0  0  0  0
  -28.6158  -23.7874   20.4770 H   0  0  0  0  0  0
  -20.8032  -20.0641   24.9273 H   0  0  0  0  0  0
  -21.9439  -18.7886   24.8005 H   0  0  0  0  0  0
  -29.3191  -20.0492   24.0397 H   0  0  0  0  0  0
  -28.1290  -19.3270   22.9791 H   0  0  0  0  0  0
  -22.0138  -19.7879   27.0423 H   0  0  0  0  0  0
  -22.1977  -21.3916   26.3865 H   0  0  0  0  0  0
  -24.8069  -20.4071   21.3368 H   0  0  0  0  0  0
  -23.5338  -21.5564   21.5872 H   0  0  0  0  0  0
  -22.3976  -21.6568   23.7748 H   0  0  0  0  0  0
  -21.7007  -20.4088   22.7886 H   0  0  0  0  0  0
  -29.5296  -25.6966   21.4369 H   0  0  0  0  0  0
  -28.0144  -26.2743   22.0686 H   0  0  0  0  0  0
  -24.4457  -21.0931   26.4278 H   0  0  0  0  0  0
  -30.6893  -18.1523   23.9377 H   0  0  0  0  0  0
  -29.6546  -14.5962   22.3499 H   0  0  0  0  0  0
  -24.3514  -20.2567   23.9707 H   0  0  0  0  0  0
  1 25  1  0  0  0
  1 30  2  0  0  0
  1 90  1  0  0  0
  2  3  1  0  0  0
  2 25  1  0  0  0
  2 94  1  0  0  0
  2 95  1  0  0  0
  3  4  1  0  0  0
  3 96  1  0  0  0
  3 97  1  0  0  0
  4  5  1  0  0  0
  4 98  1  0  0  0
  4 99  1  0  0  0
  5  6  1  0  0  0
  5 26  1  0  0  0
  5100  1  0  0  0
  6 25  1  0  0  0
  6101  1  0  0  0
  6102  1  0  0  0
  7  8  2  0  0  0
  7 26  1  0  0  0
  7 29  1  0  0  0
  8  9  1  0  0  0
  8 22  1  0  0  0
  9 10  1  0  0  0
  9 27  2  0  0  0
 10 11  2  0  0  0
 10 15  1  0  0  0
 11 12  1  0  0  0
 11103  1  0  0  0
 12 13  2  0  0  0
 12104  1  0  0  0
 13 14  1  0  0  0
 13 31  1  0  0  0
 14 15  2  0  0  0
 14105  1  0  0  0
 15106  1  0  0  0
 16 17  2  0  0  0
 16 21  1  0  0  0
 16 31  1  0  0  0
 17 18  1  0  0  0
 17107  1  0  0  0
 18 19  2  0  0  0
 18108  1  0  0  0
 19 20  1  0  0  0
 19 24  1  0  0  0
 20 21  2  0  0  0
 20109  1  0  0  0
 21 23  1  0  0  0
 22 28  1  0  0  0
 22 32  2  0  0  0
 26 27  1  0  0  0
 28110  1  0  0  0
 28111  1  0  0  0
 29112  1  0  0  0
 29113  1  0  0  0
 33 34  1  0  0  0
 33 66  1  0  0  0
 33 70  2  0  0  0
 34 36  1  0  0  0
 34 59  1  0  0  0
 34114  1  0  0  0
 35 44  2  0  0  0
 35 45  1  0  0  0
 35 68  1  0  0  0
 36 56  1  0  0  0
 36115  1  0  0  0
 37 39  1  0  0  0
 37 47  1  0  0  0
 37 66  1  0  0  0
 37116  1  0  0  0
 38 43  2  0  0  0
 38 46  1  0  0  0
 38 47  1  0  0  0
 39 64  1  0  0  0
 39 67  2  0  0  0
 40 52  1  0  0  0
 40 53  2  0  0  0
 40 58  1  0  0  0
 41117  1  0  0  0
 41118  1  0  0  0
 41119  1  0  0  0
 41 48  1  0  0  0
 42 43  1  0  0  0
 42 66  1  0  0  0
 42120  1  0  0  0
 42121  1  0  0  0
 43 44  1  0  0  0
 44122  1  0  0  0
 45 46  2  0  0  0
 45123  1  0  0  0
 46124  1  0  0  0
 47125  1  0  0  0
 47126  1  0  0  0
 48 56  1  0  0  0
 48 65  1  0  0  0
 48127  1  0  0  0
 49 50  1  0  0  0
 49 53  1  0  0  0
 49 64  1  0  0  0
 49128  1  0  0  0
 50 51  1  0  0  0
 50129  1  0  0  0
 50130  1  0  0  0
 51 52  1  0  0  0
 51131  1  0  0  0
 51132  1  0  0  0
 52133  1  0  0  0
 52134  1  0  0  0
 53 54  1  0  0  0
 54 55  2  0  0  0
 54135  1  0  0  0
 55 57  1  0  0  0
 55136  1  0  0  0
 56 69  2  0  0  0
 57 58  2  0  0  0
 57137  1  0  0  0
 58138  1  0  0  0
 59 60  1  0  0  0
 59 61  1  0  0  0
 59 62  1  0  0  0
 60139  1  0  0  0
 60140  1  0  0  0
 60141  1  0  0  0
 61142  1  0  0  0
 61143  1  0  0  0
 61144  1  0  0  0
 62145  1  0  0  0
 62146  1  0  0  0
 62147  1  0  0  0
 63 65  1  0  0  0
 63148  1  0  0  0
 63149  1  0  0  0
 63150  1  0  0  0
 64151  1  0  0  0
 65152  1  0  0  0
 68 87  1  0  0  0
 71 74  1  0  0  0
 71 88  1  0  0  0
 71 92  2  0  0  0
 72 75  1  0  0  0
 72 89  1  0  0  0
 72 93  2  0  0  0
 73153  1  0  0  0
 73154  1  0  0  0
 73155  1  0  0  0
 73 91  1  0  0  0
 74 76  1  0  0  0
 74156  1  0  0  0
 74157  1  0  0  0
 75 90  1  0  0  0
 75158  1  0  0  0
 75159  1  0  0  0
 76 79  1  0  0  0
 76160  1  0  0  0
 76161  1  0  0  0
 77 78  1  0  0  0
 77 80  1  0  0  0
 77162  1  0  0  0
 77163  1  0  0  0
 78 81  1  0  0  0
 78164  1  0  0  0
 78165  1  0  0  0
 79 83  1  0  0  0
 79166  1  0  0  0
 79167  1  0  0  0
 80 85  1  0  0  0
 80168  1  0  0  0
 80169  1  0  0  0
 81 87  1  0  0  0
 81170  1  0  0  0
 81171  1  0  0  0
 82 84  1  0  0  0
 82 86  1  0  0  0
 82172  1  0  0  0
 82173  1  0  0  0
 83 89  1  0  0  0
 83174  1  0  0  0
 83175  1  0  0  0
 84 88  1  0  0  0
 84176  1  0  0  0
 84177  1  0  0  0
 85 91  1  0  0  0
 85178  1  0  0  0
 85179  1  0  0  0
 86 91  1  0  0  0
 86180  1  0  0  0
 86181  1  0  0  0
 87182  1  0  0  0
 87183  1  0  0  0
 88184  1  0  0  0
 89185  1  0  0  0
 90186  1  0  0  0
 91187  1  0  0  0
M  CHG  1  91   1
M  ISO  4   1 100  68 101  87 101  90 100
M  END
> <chiral flag>
0

> <version>
0

> <s_m_source_file>
/data/baiqing/PycharmProjects/Reinvent-master-3.2/result/LINK_invent/BTK/process_docking_weight1_custom_sum_contain_oxygen_bond_distance_aromatic_linkinvent_7_9_3/rearranged_h_0011.sdf

> <i_m_source_file_index>
6

> <r_mmod_Potential_Energy-OPLS-2005>
-398.474884033203

> <r_mmod_Stretch_Energy-OPLS-2005>
32.9371452331543

> <r_mmod_Bend_Energy-OPLS-2005>
97.0631561279297

> <r_mmod_Torsional_Energy-OPLS-2005>
261.901794433594

> <r_mmod_Improper_Torsional_Energy-OPLS-2005>
2.77106690406799

> <r_mmod_Van_der_Waal_Energy-OPLS-2005>
122.19938659668

> <r_mmod_Electrostatic_Energy-OPLS-2005>
-444.910003662109

> <r_mmod_Solvation_Energy-OPLS-2005>
-478.058776855469

> <b_mmod_Minimization_Converged-OPLS-2005>
0

> <r_mmod_RMS_Derivative-OPLS-2005>
3.31366848945618

$$$$
6
                    3D
 Structure written by MMmdl.
154162  0  0  1  0            999 V2000
  -30.4916  -15.0914   20.3260 C   0  0  0  0  0  0
  -30.4577  -12.6780   19.4978 C   0  0  0  0  0  0
  -29.5333  -12.4505   18.2771 C   0  0  0  0  0  0
  -28.0660  -12.2604   18.7076 C   0  0  0  0  0  0
  -27.6195  -13.2395   19.8244 C   0  0  2  0  0  0
  -28.6691  -13.3627   20.9454 C   0  0  0  0  0  0
  -25.2447  -13.8203   20.5775 C   0  0  0  0  0  0
  -24.1740  -13.0431   20.9273 C   0  0  0  0  0  0
  -24.6350  -11.6924   20.8798 C   0  0  0  0  0  0
  -23.9023  -10.4302   21.0423 C   0  0  0  0  0  0
  -24.3563   -9.4223   21.9199 C   0  0  0  0  0  0
  -23.6249   -8.2249   22.0756 C   0  0  0  0  0  0
  -22.4243   -8.0276   21.3537 C   0  0  0  0  0  0
  -21.9869   -9.0258   20.4650 C   0  0  0  0  0  0
  -22.7188  -10.2151   20.3067 C   0  0  0  0  0  0
  -21.6851   -6.0694   22.5265 C   0  0  0  0  0  0
  -21.4014   -6.5591   23.8199 C   0  0  0  0  0  0
  -21.3675   -5.6750   24.9166 C   0  0  0  0  0  0
  -21.6056   -4.3016   24.7226 C   0  0  0  0  0  0
  -21.8818   -3.8098   23.4348 C   0  0  0  0  0  0
  -21.9195   -4.6915   22.3396 C   0  0  0  0  0  0
  -22.7765  -13.5224   21.1921 C   0  0  0  0  0  0
  -22.1655   -4.2093   21.0974 F   0  0  0  0  0  0
  -21.5658   -3.4509   25.7743 F   0  0  0  0  0  0
  -29.9092  -13.8122   20.2986 N   0  0  0  0  0  0
  -26.2853  -12.9398   20.3293 N   0  0  0  0  0  0
  -25.9286  -11.6547   20.5795 N   0  0  0  0  0  0
  -22.0376  -12.8225   22.0475 N   0  0  0  0  0  0
  -25.4120  -15.1920   20.4216 N   0  0  0  0  0  0
  -31.7277  -15.1012   20.2445 O   0  0  0  0  0  0
  -21.6624   -6.8853   21.4225 O   0  0  0  0  0  0
  -22.3468  -14.5528   20.6770 O   0  0  0  0  0  0
  -24.6469  -31.8416   23.1833 C   0  0  0  0  0  0
  -25.9210  -32.4705   23.8238 C   0  0  1  0  0  0
  -27.2063  -27.0834   20.1433 C   0  0  0  0  0  0
  -25.5926  -33.8520   24.2130 N   0  0  0  0  0  0
  -23.4506  -30.4579   21.5359 C   0  0  2  0  0  0
  -24.8999  -28.8823   20.1052 C   0  0  0  0  0  0
  -22.7573  -29.4520   22.4885 C   0  0  0  0  0  0
  -18.0275  -28.1401   22.8483 C   0  0  0  0  0  0
  -24.1500  -36.7294   23.2644 C   0  0  0  0  0  0
  -26.0123  -30.6962   21.3903 C   0  0  0  0  0  0
  -26.0811  -29.3049   20.7278 C   0  0  0  0  0  0
  -27.2347  -28.4224   20.7270 C   0  0  0  0  0  0
  -25.9980  -26.7810   19.4768 C   0  0  0  0  0  0
  -24.8752  -27.6377   19.4616 C   0  0  0  0  0  0
  -23.6741  -29.7862   20.1560 C   0  0  0  0  0  0
  -25.4135  -36.3055   24.0296 C   0  0  1  0  0  0
  -20.5889  -28.3724   23.1258 C   0  0  2  0  0  0
  -20.6787  -26.9436   22.5415 C   0  0  0  0  0  0
  -19.5767  -26.6381   21.5230 C   0  0  0  0  0  0
  -18.1928  -26.7941   22.1620 C   0  0  0  0  0  0
  -19.1532  -28.8877   23.2849 C   0  0  0  0  0  0
  -18.9461  -30.1473   23.8880 C   0  0  0  0  0  0
  -17.6470  -30.6610   24.0555 C   0  0  0  0  0  0
  -25.9084  -34.9426   23.5031 C   0  0  0  0  0  0
  -16.5353  -29.9107   23.6350 C   0  0  0  0  0  0
  -16.7266  -28.6513   23.0393 C   0  0  0  0  0  0
  -26.4497  -31.6621   25.0727 C   0  0  0  0  0  0
  -25.3593  -31.3843   26.1350 C   0  0  0  0  0  0
  -27.0390  -30.3008   24.6387 C   0  0  0  0  0  0
  -27.6018  -32.4413   25.7502 C   0  0  0  0  0  0
  -27.5588  -37.1783   24.8437 C   0  0  0  0  0  0
  -21.4250  -29.3047   22.3647 N   0  0  0  0  0  0
  -26.4292  -37.3763   23.9397 N   0  0  0  0  0  0
  -24.7238  -31.0198   22.0914 N   0  0  0  0  0  0
  -23.4202  -28.8053   23.3028 O   0  0  0  0  0  0
  -28.2272  -26.0488   20.2227 O   0  0  0  0  0  0
  -26.5705  -34.8923   22.4641 O   0  0  0  0  0  0
  -23.5575  -32.1333   23.7024 O   0  0  0  0  0  0
  -30.3293  -20.5154   21.5329 C   0  0  0  0  0  0
  -30.7447  -18.0649   21.5156 C   0  0  0  0  0  0
  -29.0952  -19.0670   20.0297 C   0  0  0  0  0  0
  -29.3539  -20.4760   20.5122 C   0  0  0  0  0  0
  -29.8240  -17.8004   20.4789 C   0  0  0  0  0  0
  -30.9761  -19.3613   22.0290 C   0  0  0  0  0  0
  -28.8761  -23.2306   20.4098 C   0  0  0  0  0  0
  -27.9320  -18.9478   19.0517 C   0  0  0  0  0  0
  -29.2052  -16.2058   18.6286 C   0  0  0  0  0  0
  -27.9236  -24.5243   19.9151 C   0  0  0  0  0  0
  -28.6776  -21.8299   20.0970 N   0  0  0  0  0  0
  -29.7344  -16.3008   19.9971 N   0  0  0  0  0  0
  -29.8392  -23.5496   21.1091 O   0  0  0  0  0  0
  -32.0985  -19.5448   23.3280 Cl  0  0  0  0  0  0
  -31.4687  -12.8910   19.1484 H   0  0  0  0  0  0
  -30.5414  -11.7806   20.1112 H   0  0  0  0  0  0
  -29.8708  -11.5717   17.7270 H   0  0  0  0  0  0
  -29.6108  -13.2725   17.5713 H   0  0  0  0  0  0
  -27.9791  -11.2366   19.0717 H   0  0  0  0  0  0
  -27.4004  -12.3280   17.8466 H   0  0  0  0  0  0
  -27.5458  -14.2104   19.3429 H   0  0  0  0  0  0
  -28.8063  -12.4153   21.4702 H   0  0  0  0  0  0
  -28.3511  -14.0932   21.6913 H   0  0  0  0  0  0
  -25.2691   -9.5700   22.4786 H   0  0  0  0  0  0
  -23.9945   -7.4639   22.7470 H   0  0  0  0  0  0
  -21.0798   -8.8790   19.8951 H   0  0  0  0  0  0
  -22.3636  -10.9697   19.6186 H   0  0  0  0  0  0
  -21.1990   -7.6095   23.9682 H   0  0  0  0  0  0
  -21.1511   -6.0482   25.9070 H   0  0  0  0  0  0
  -22.0586   -2.7552   23.2862 H   0  0  0  0  0  0
  -22.3921  -11.9866   22.4874 H   0  0  0  0  0  0
  -21.1009  -13.1303   22.2662 H   0  0  0  0  0  0
  -24.6514  -15.8479   20.5649 H   0  0  0  0  0  0
  -26.2670  -15.6385   20.1183 H   0  0  0  0  0  0
  -26.7275  -32.5263   23.0962 H   0  0  0  0  0  0
  -24.9953  -33.9625   25.0193 H   0  0  0  0  0  0
  -22.7541  -31.2847   21.3810 H   0  0  0  0  0  0
  -23.3774  -35.9601   23.3246 H   0  0  0  0  0  0
  -24.3584  -36.9033   22.2070 H   0  0  0  0  0  0
  -23.7241  -37.6461   23.6754 H   0  0  0  0  0  0
  -26.1663  -31.4468   20.6144 H   0  0  0  0  0  0
  -26.8835  -30.7510   22.0316 H   0  0  0  0  0  0
  -28.1341  -28.7401   21.2350 H   0  0  0  0  0  0
  -25.8760  -25.8314   18.9793 H   0  0  0  0  0  0
  -23.9732  -27.3128   18.9610 H   0  0  0  0  0  0
  -23.7956  -30.5601   19.3975 H   0  0  0  0  0  0
  -22.7891  -29.2229   19.8560 H   0  0  0  0  0  0
  -25.1325  -36.1875   25.0783 H   0  0  0  0  0  0
  -20.9942  -28.3315   24.1400 H   0  0  0  0  0  0
  -20.5755  -26.2323   23.3627 H   0  0  0  0  0  0
  -21.6651  -26.7505   22.1178 H   0  0  0  0  0  0
  -19.6954  -25.6278   21.1312 H   0  0  0  0  0  0
  -19.6733  -27.3150   20.6733 H   0  0  0  0  0  0
  -17.4223  -26.6701   21.3992 H   0  0  0  0  0  0
  -18.0290  -26.0060   22.8992 H   0  0  0  0  0  0
  -19.7937  -30.7268   24.2281 H   0  0  0  0  0  0
  -17.5033  -31.6306   24.5138 H   0  0  0  0  0  0
  -15.5367  -30.3035   23.7683 H   0  0  0  0  0  0
  -15.8642  -28.0836   22.7184 H   0  0  0  0  0  0
  -24.5765  -30.7253   25.7582 H   0  0  0  0  0  0
  -24.8763  -32.3036   26.4665 H   0  0  0  0  0  0
  -25.7721  -30.9019   27.0210 H   0  0  0  0  0  0
  -26.3048  -29.6695   24.1369 H   0  0  0  0  0  0
  -27.3951  -29.7358   25.5014 H   0  0  0  0  0  0
  -27.8962  -30.4243   23.9761 H   0  0  0  0  0  0
  -27.2644  -33.3782   26.1934 H   0  0  0  0  0  0
  -28.3868  -32.6880   25.0345 H   0  0  0  0  0  0
  -28.0634  -31.8639   26.5517 H   0  0  0  0  0  0
  -28.2539  -38.0144   24.7581 H   0  0  0  0  0  0
  -28.1168  -36.2684   24.6166 H   0  0  0  0  0  0
  -27.2314  -37.1304   25.8837 H   0  0  0  0  0  0
  -20.9474  -29.8791   21.6841 H   0  0  0  0  0  0
  -26.0172  -38.2833   24.1430 H   0  0  0  0  0  0
  -30.5880  -21.4520   21.9994 H   0  0  0  0  0  0
  -31.3105  -17.2562   21.9514 H   0  0  0  0  0  0
  -27.3204  -19.8487   19.0248 H   0  0  0  0  0  0
  -27.2596  -18.1431   19.3496 H   0  0  0  0  0  0
  -28.2736  -18.7826   18.0315 H   0  0  0  0  0  0
  -28.1198  -16.2770   18.6013 H   0  0  0  0  0  0
  -29.4729  -15.2955   18.1013 H   0  0  0  0  0  0
  -29.6330  -16.9962   18.0116 H   0  0  0  0  0  0
  -26.9331  -24.3093   20.3167 H   0  0  0  0  0  0
  -27.8263  -24.4397   18.8325 H   0  0  0  0  0  0
  -27.9047  -21.7116   19.4558 H   0  0  0  0  0  0
  1 25  1  0  0  0
  1 30  2  0  0  0
  1 82  1  0  0  0
  2  3  1  0  0  0
  2 25  1  0  0  0
  2 85  1  0  0  0
  2 86  1  0  0  0
  3  4  1  0  0  0
  3 87  1  0  0  0
  3 88  1  0  0  0
  4  5  1  0  0  0
  4 89  1  0  0  0
  4 90  1  0  0  0
  5  6  1  0  0  0
  5 26  1  0  0  0
  5 91  1  0  0  0
  6 25  1  0  0  0
  6 92  1  0  0  0
  6 93  1  0  0  0
  7  8  2  0  0  0
  7 26  1  0  0  0
  7 29  1  0  0  0
  8  9  1  0  0  0
  8 22  1  0  0  0
  9 10  1  0  0  0
  9 27  2  0  0  0
 10 11  2  0  0  0
 10 15  1  0  0  0
 11 12  1  0  0  0
 11 94  1  0  0  0
 12 13  2  0  0  0
 12 95  1  0  0  0
 13 14  1  0  0  0
 13 31  1  0  0  0
 14 15  2  0  0  0
 14 96  1  0  0  0
 15 97  1  0  0  0
 16 17  2  0  0  0
 16 21  1  0  0  0
 16 31  1  0  0  0
 17 18  1  0  0  0
 17 98  1  0  0  0
 18 19  2  0  0  0
 18 99  1  0  0  0
 19 20  1  0  0  0
 19 24  1  0  0  0
 20 21  2  0  0  0
 20100  1  0  0  0
 21 23  1  0  0  0
 22 28  1  0  0  0
 22 32  2  0  0  0
 26 27  1  0  0  0
 28101  1  0  0  0
 28102  1  0  0  0
 29103  1  0  0  0
 29104  1  0  0  0
 33 34  1  0  0  0
 33 66  1  0  0  0
 33 70  2  0  0  0
 34 36  1  0  0  0
 34 59  1  0  0  0
 34105  1  0  0  0
 35 44  2  0  0  0
 35 45  1  0  0  0
 35 68  1  0  0  0
 36 56  1  0  0  0
 36106  1  0  0  0
 37 39  1  0  0  0
 37 47  1  0  0  0
 37 66  1  0  0  0
 37107  1  0  0  0
 38 43  2  0  0  0
 38 46  1  0  0  0
 38 47  1  0  0  0
 39 64  1  0  0  0
 39 67  2  0  0  0
 40 52  1  0  0  0
 40 53  2  0  0  0
 40 58  1  0  0  0
 41108  1  0  0  0
 41109  1  0  0  0
 41110  1  0  0  0
 41 48  1  0  0  0
 42 43  1  0  0  0
 42 66  1  0  0  0
 42111  1  0  0  0
 42112  1  0  0  0
 43 44  1  0  0  0
 44113  1  0  0  0
 45 46  2  0  0  0
 45114  1  0  0  0
 46115  1  0  0  0
 47116  1  0  0  0
 47117  1  0  0  0
 48 56  1  0  0  0
 48 65  1  0  0  0
 48118  1  0  0  0
 49 50  1  0  0  0
 49 53  1  0  0  0
 49 64  1  0  0  0
 49119  1  0  0  0
 50 51  1  0  0  0
 50120  1  0  0  0
 50121  1  0  0  0
 51 52  1  0  0  0
 51122  1  0  0  0
 51123  1  0  0  0
 52124  1  0  0  0
 52125  1  0  0  0
 53 54  1  0  0  0
 54 55  2  0  0  0
 54126  1  0  0  0
 55 57  1  0  0  0
 55127  1  0  0  0
 56 69  2  0  0  0
 57 58  2  0  0  0
 57128  1  0  0  0
 58129  1  0  0  0
 59 60  1  0  0  0
 59 61  1  0  0  0
 59 62  1  0  0  0
 60130  1  0  0  0
 60131  1  0  0  0
 60132  1  0  0  0
 61133  1  0  0  0
 61134  1  0  0  0
 61135  1  0  0  0
 62136  1  0  0  0
 62137  1  0  0  0
 62138  1  0  0  0
 63 65  1  0  0  0
 63139  1  0  0  0
 63140  1  0  0  0
 63141  1  0  0  0
 64142  1  0  0  0
 65143  1  0  0  0
 68 80  1  0  0  0
 71 74  2  0  0  0
 71 76  1  0  0  0
 71144  1  0  0  0
 72 75  1  0  0  0
 72 76  2  0  0  0
 72145  1  0  0  0
 73 74  1  0  0  0
 73 75  2  0  0  0
 73 78  1  0  0  0
 74 81  1  0  0  0
 75 82  1  0  0  0
 76 84  1  0  0  0
 77 80  1  0  0  0
 77 81  1  0  0  0
 77 83  2  0  0  0
 78146  1  0  0  0
 78147  1  0  0  0
 78148  1  0  0  0
 79 82  1  0  0  0
 79149  1  0  0  0
 79150  1  0  0  0
 79151  1  0  0  0
 80152  1  0  0  0
 80153  1  0  0  0
 81154  1  0  0  0
M  ISO  4   1 100  68 101  80 101  82 100
M  END
> <chiral flag>
0

> <version>
0

> <s_m_source_file>
/data/baiqing/PycharmProjects/Reinvent-master-3.2/result/LINK_invent/BTK/process_docking_weight1_custom_sum_contain_oxygen_bond_distance_aromatic_linkinvent_7_9_3/rearranged_h_0011.sdf

> <i_m_source_file_index>
7

> <r_mmod_Potential_Energy-OPLS-2005>
845.585205078125

> <r_mmod_Stretch_Energy-OPLS-2005>
353.992279052734

> <r_mmod_Bend_Energy-OPLS-2005>
279.402191162109

> <r_mmod_Torsional_Energy-OPLS-2005>
298.915771484375

> <r_mmod_Improper_Torsional_Energy-OPLS-2005>
15.5230903625488

> <r_mmod_Van_der_Waal_Energy-OPLS-2005>
141.993408203125

> <r_mmod_Electrostatic_Energy-OPLS-2005>
-297.190460205078

> <r_mmod_Solvation_Energy-OPLS-2005>
-235.128860473633

> <b_mmod_Minimization_Converged-OPLS-2005>
0

> <r_mmod_RMS_Derivative-OPLS-2005>
3.25451016426086

$$$$
7
                    3D
 Structure written by MMmdl.
148156  0  0  1  0            999 V2000
  -30.5229  -14.9232   20.4181 C   0  0  0  0  0  0
  -30.4522  -12.5679   19.4857 C   0  0  0  0  0  0
  -29.5227  -12.5332   18.2487 C   0  0  0  0  0  0
  -28.0534  -12.3247   18.6659 C   0  0  0  0  0  0
  -27.6357  -13.2432   19.8441 C   0  0  2  0  0  0
  -28.6845  -13.2333   20.9779 C   0  0  0  0  0  0
  -25.2456  -13.8175   20.5705 C   0  0  0  0  0  0
  -24.1773  -13.0399   20.9199 C   0  0  0  0  0  0
  -24.6405  -11.6897   20.8735 C   0  0  0  0  0  0
  -23.9085  -10.4272   21.0392 C   0  0  0  0  0  0
  -24.3628   -9.4192   21.9179 C   0  0  0  0  0  0
  -23.6291   -8.2235   22.0754 C   0  0  0  0  0  0
  -22.4274   -8.0279   21.3544 C   0  0  0  0  0  0
  -21.9913   -9.0252   20.4647 C   0  0  0  0  0  0
  -22.7251  -10.2121   20.3049 C   0  0  0  0  0  0
  -21.6852   -6.0729   22.5276 C   0  0  0  0  0  0
  -21.4014   -6.5632   23.8209 C   0  0  0  0  0  0
  -21.3661   -5.6786   24.9172 C   0  0  0  0  0  0
  -21.6045   -4.3049   24.7224 C   0  0  0  0  0  0
  -21.8819   -3.8140   23.4346 C   0  0  0  0  0  0
  -21.9192   -4.6956   22.3400 C   0  0  0  0  0  0
  -22.7793  -13.5178   21.1865 C   0  0  0  0  0  0
  -22.1662   -4.2142   21.0978 F   0  0  0  0  0  0
  -21.5629   -3.4535   25.7738 F   0  0  0  0  0  0
  -29.9675  -13.6465   20.3882 N   0  0  0  0  0  0
  -26.2919  -12.9426   20.3274 N   0  0  0  0  0  0
  -25.9344  -11.6552   20.5738 N   0  0  0  0  0  0
  -22.0453  -12.8180   22.0439 N   0  0  0  0  0  0
  -25.3985  -15.1905   20.4184 N   0  0  0  0  0  0
  -31.7200  -15.0470   20.1363 O   0  0  0  0  0  0
  -21.6638   -6.8877   21.4241 O   0  0  0  0  0  0
  -22.3469  -14.5485   20.6719 O   0  0  0  0  0  0
  -24.6439  -31.8448   23.1893 C   0  0  0  0  0  0
  -25.9212  -32.4700   23.8284 C   0  0  1  0  0  0
  -27.2223  -27.1432   20.1398 C   0  0  0  0  0  0
  -25.5958  -33.8506   24.2198 N   0  0  0  0  0  0
  -23.4477  -30.4650   21.5350 C   0  0  2  0  0  0
  -24.8980  -28.8964   20.1096 C   0  0  0  0  0  0
  -22.7575  -29.4549   22.4860 C   0  0  0  0  0  0
  -18.0310  -28.1394   22.8479 C   0  0  0  0  0  0
  -24.1494  -36.7257   23.2643 C   0  0  0  0  0  0
  -26.0046  -30.7195   21.3893 C   0  0  0  0  0  0
  -26.0766  -29.3321   20.7284 C   0  0  0  0  0  0
  -27.2389  -28.4715   20.7288 C   0  0  0  0  0  0
  -26.0152  -26.8130   19.4806 C   0  0  0  0  0  0
  -24.8797  -27.6491   19.4716 C   0  0  0  0  0  0
  -23.6743  -29.7971   20.1537 C   0  0  0  0  0  0
  -25.4126  -36.3034   24.0315 C   0  0  1  0  0  0
  -20.5923  -28.3721   23.1235 C   0  0  2  0  0  0
  -20.6792  -26.9422   22.5404 C   0  0  0  0  0  0
  -19.5763  -26.6377   21.5215 C   0  0  0  0  0  0
  -18.1947  -26.7931   22.1629 C   0  0  0  0  0  0
  -19.1567  -28.8877   23.2848 C   0  0  0  0  0  0
  -18.9481  -30.1472   23.8873 C   0  0  0  0  0  0
  -17.6475  -30.6587   24.0559 C   0  0  0  0  0  0
  -25.9075  -34.9408   23.5066 C   0  0  0  0  0  0
  -16.5367  -29.9078   23.6333 C   0  0  0  0  0  0
  -16.7295  -28.6499   23.0353 C   0  0  0  0  0  0
  -26.4526  -31.6565   25.0726 C   0  0  0  0  0  0
  -25.3704  -31.3764   26.1418 C   0  0  0  0  0  0
  -27.0383  -30.2952   24.6315 C   0  0  0  0  0  0
  -27.6058  -32.4329   25.7509 C   0  0  0  0  0  0
  -27.5573  -37.1795   24.8471 C   0  0  0  0  0  0
  -21.4268  -29.3048   22.3605 N   0  0  0  0  0  0
  -26.4295  -37.3740   23.9396 N   0  0  0  0  0  0
  -24.7183  -31.0306   22.0927 N   0  0  0  0  0  0
  -23.4220  -28.8092   23.3006 O   0  0  0  0  0  0
  -28.2679  -26.1479   20.2098 O   0  0  0  0  0  0
  -26.5660  -34.8903   22.4644 O   0  0  0  0  0  0
  -23.5556  -32.1328   23.7105 O   0  0  0  0  0  0
  -30.2961  -20.0170   20.4256 C   0  0  0  0  0  0
  -30.5838  -18.5770   20.5039 C   0  0  0  0  0  0
  -28.0053  -19.5294   20.1717 C   0  0  0  0  0  0
  -28.9753  -20.5791   20.2571 C   0  0  0  0  0  0
  -29.5783  -17.5427   20.4311 C   0  0  0  0  0  0
  -28.2822  -18.1155   20.2590 C   0  0  0  0  0  0
  -28.9344  -23.3662   20.2880 C   0  0  0  0  0  0
  -27.9293  -24.6471   19.9728 C   0  0  0  0  0  0
  -28.4899  -22.0311   20.1185 N   0  0  0  0  0  0
  -29.6452  -16.0185   20.5765 N   0  0  0  0  0  0
  -30.0846  -23.5963   20.6703 O   0  0  0  0  0  0
  -27.2386  -17.2582   20.1703 F   0  0  0  0  0  0
  -31.4835  -12.7374   19.1725 H   0  0  0  0  0  0
  -30.4493  -11.6058   20.0004 H   0  0  0  0  0  0
  -29.8323  -11.7426   17.5639 H   0  0  0  0  0  0
  -29.6152  -13.4694   17.6962 H   0  0  0  0  0  0
  -27.9392  -11.2796   18.9559 H   0  0  0  0  0  0
  -27.3917  -12.4779   17.8127 H   0  0  0  0  0  0
  -27.6038  -14.2530   19.4341 H   0  0  0  0  0  0
  -28.7633  -12.2428   21.4286 H   0  0  0  0  0  0
  -28.3903  -13.9113   21.7806 H   0  0  0  0  0  0
  -25.2773   -9.5664   22.4755 H   0  0  0  0  0  0
  -23.9994   -7.4627   22.7479 H   0  0  0  0  0  0
  -21.0839   -8.8777   19.8956 H   0  0  0  0  0  0
  -22.3714  -10.9663   19.6160 H   0  0  0  0  0  0
  -21.2007   -7.6141   23.9710 H   0  0  0  0  0  0
  -21.1483   -6.0517   25.9074 H   0  0  0  0  0  0
  -22.0597   -2.7603   23.2849 H   0  0  0  0  0  0
  -22.4080  -11.9853   22.4836 H   0  0  0  0  0  0
  -21.1076  -13.1210   22.2656 H   0  0  0  0  0  0
  -24.6180  -15.8228   20.5520 H   0  0  0  0  0  0
  -26.2437  -15.6829   20.1485 H   0  0  0  0  0  0
  -26.7281  -32.5307   23.1018 H   0  0  0  0  0  0
  -25.0079  -33.9622   25.0327 H   0  0  0  0  0  0
  -22.7503  -31.2911   21.3817 H   0  0  0  0  0  0
  -23.3749  -35.9597   23.3317 H   0  0  0  0  0  0
  -24.3572  -36.8874   22.2054 H   0  0  0  0  0  0
  -23.7264  -37.6465   23.6670 H   0  0  0  0  0  0
  -26.1626  -31.4759   20.6192 H   0  0  0  0  0  0
  -26.8744  -30.7677   22.0330 H   0  0  0  0  0  0
  -28.1348  -28.7996   21.2373 H   0  0  0  0  0  0
  -25.9045  -25.8650   18.9778 H   0  0  0  0  0  0
  -23.9813  -27.3108   18.9740 H   0  0  0  0  0  0
  -23.8102  -30.5729   19.3992 H   0  0  0  0  0  0
  -22.7896  -29.2391   19.8428 H   0  0  0  0  0  0
  -25.1316  -36.1868   25.0809 H   0  0  0  0  0  0
  -21.0022  -28.3313   24.1353 H   0  0  0  0  0  0
  -20.5686  -26.2335   23.3625 H   0  0  0  0  0  0
  -21.6658  -26.7423   22.1202 H   0  0  0  0  0  0
  -19.6920  -25.6283   21.1257 H   0  0  0  0  0  0
  -19.6691  -27.3177   20.6736 H   0  0  0  0  0  0
  -17.4212  -26.6676   21.4036 H   0  0  0  0  0  0
  -18.0343  -26.0079   22.9032 H   0  0  0  0  0  0
  -19.7955  -30.7300   24.2230 H   0  0  0  0  0  0
  -17.5023  -31.6265   24.5165 H   0  0  0  0  0  0
  -15.5365  -30.2969   23.7664 H   0  0  0  0  0  0
  -15.8699  -28.0805   22.7076 H   0  0  0  0  0  0
  -24.5888  -30.7108   25.7740 H   0  0  0  0  0  0
  -24.8889  -32.2949   26.4781 H   0  0  0  0  0  0
  -25.7979  -30.8978   27.0237 H   0  0  0  0  0  0
  -26.3001  -29.6681   24.1303 H   0  0  0  0  0  0
  -27.3961  -29.7250   25.4899 H   0  0  0  0  0  0
  -27.8927  -30.4174   23.9656 H   0  0  0  0  0  0
  -27.2650  -33.3642   26.2044 H   0  0  0  0  0  0
  -28.3889  -32.6872   25.0355 H   0  0  0  0  0  0
  -28.0704  -31.8486   26.5461 H   0  0  0  0  0  0
  -28.2612  -38.0067   24.7470 H   0  0  0  0  0  0
  -28.1046  -36.2597   24.6360 H   0  0  0  0  0  0
  -27.2283  -37.1519   25.8873 H   0  0  0  0  0  0
  -20.9477  -29.8763   21.6786 H   0  0  0  0  0  0
  -26.0164  -38.2818   24.1361 H   0  0  0  0  0  0
  -31.1302  -20.7013   20.4938 H   0  0  0  0  0  0
  -31.6119  -18.2747   20.6419 H   0  0  0  0  0  0
  -26.9705  -19.8057   20.0355 H   0  0  0  0  0  0
  -27.0130  -24.4341   20.5243 H   0  0  0  0  0  0
  -27.6767  -24.5464   18.9172 H   0  0  0  0  0  0
  -27.5204  -22.0610   19.8323 H   0  0  0  0  0  0
  -28.7156  -15.6558   20.7243 H   0  0  0  0  0  0
  1 25  1  0  0  0
  1 30  2  0  0  0
  1 80  1  0  0  0
  2  3  1  0  0  0
  2 25  1  0  0  0
  2 83  1  0  0  0
  2 84  1  0  0  0
  3  4  1  0  0  0
  3 85  1  0  0  0
  3 86  1  0  0  0
  4  5  1  0  0  0
  4 87  1  0  0  0
  4 88  1  0  0  0
  5  6  1  0  0  0
  5 26  1  0  0  0
  5 89  1  0  0  0
  6 25  1  0  0  0
  6 90  1  0  0  0
  6 91  1  0  0  0
  7  8  2  0  0  0
  7 26  1  0  0  0
  7 29  1  0  0  0
  8  9  1  0  0  0
  8 22  1  0  0  0
  9 10  1  0  0  0
  9 27  2  0  0  0
 10 11  2  0  0  0
 10 15  1  0  0  0
 11 12  1  0  0  0
 11 92  1  0  0  0
 12 13  2  0  0  0
 12 93  1  0  0  0
 13 14  1  0  0  0
 13 31  1  0  0  0
 14 15  2  0  0  0
 14 94  1  0  0  0
 15 95  1  0  0  0
 16 17  2  0  0  0
 16 21  1  0  0  0
 16 31  1  0  0  0
 17 18  1  0  0  0
 17 96  1  0  0  0
 18 19  2  0  0  0
 18 97  1  0  0  0
 19 20  1  0  0  0
 19 24  1  0  0  0
 20 21  2  0  0  0
 20 98  1  0  0  0
 21 23  1  0  0  0
 22 28  1  0  0  0
 22 32  2  0  0  0
 26 27  1  0  0  0
 28 99  1  0  0  0
 28100  1  0  0  0
 29101  1  0  0  0
 29102  1  0  0  0
 33 34  1  0  0  0
 33 66  1  0  0  0
 33 70  2  0  0  0
 34 36  1  0  0  0
 34 59  1  0  0  0
 34103  1  0  0  0
 35 44  2  0  0  0
 35 45  1  0  0  0
 35 68  1  0  0  0
 36 56  1  0  0  0
 36104  1  0  0  0
 37 39  1  0  0  0
 37 47  1  0  0  0
 37 66  1  0  0  0
 37105  1  0  0  0
 38 43  2  0  0  0
 38 46  1  0  0  0
 38 47  1  0  0  0
 39 64  1  0  0  0
 39 67  2  0  0  0
 40 52  1  0  0  0
 40 53  2  0  0  0
 40 58  1  0  0  0
 41106  1  0  0  0
 41107  1  0  0  0
 41108  1  0  0  0
 41 48  1  0  0  0
 42 43  1  0  0  0
 42 66  1  0  0  0
 42109  1  0  0  0
 42110  1  0  0  0
 43 44  1  0  0  0
 44111  1  0  0  0
 45 46  2  0  0  0
 45112  1  0  0  0
 46113  1  0  0  0
 47114  1  0  0  0
 47115  1  0  0  0
 48 56  1  0  0  0
 48 65  1  0  0  0
 48116  1  0  0  0
 49 50  1  0  0  0
 49 53  1  0  0  0
 49 64  1  0  0  0
 49117  1  0  0  0
 50 51  1  0  0  0
 50118  1  0  0  0
 50119  1  0  0  0
 51 52  1  0  0  0
 51120  1  0  0  0
 51121  1  0  0  0
 52122  1  0  0  0
 52123  1  0  0  0
 53 54  1  0  0  0
 54 55  2  0  0  0
 54124  1  0  0  0
 55 57  1  0  0  0
 55125  1  0  0  0
 56 69  2  0  0  0
 57 58  2  0  0  0
 57126  1  0  0  0
 58127  1  0  0  0
 59 60  1  0  0  0
 59 61  1  0  0  0
 59 62  1  0  0  0
 60128  1  0  0  0
 60129  1  0  0  0
 60130  1  0  0  0
 61131  1  0  0  0
 61132  1  0  0  0
 61133  1  0  0  0
 62134  1  0  0  0
 62135  1  0  0  0
 62136  1  0  0  0
 63 65  1  0  0  0
 63137  1  0  0  0
 63138  1  0  0  0
 63139  1  0  0  0
 64140  1  0  0  0
 65141  1  0  0  0
 68 78  1  0  0  0
 71 72  2  0  0  0
 71 74  1  0  0  0
 71142  1  0  0  0
 72 75  1  0  0  0
 72143  1  0  0  0
 73 74  2  0  0  0
 73 76  1  0  0  0
 73144  1  0  0  0
 74 79  1  0  0  0
 75 76  2  0  0  0
 75 80  1  0  0  0
 76 82  1  0  0  0
 77 78  1  0  0  0
 77 79  1  0  0  0
 77 81  2  0  0  0
 78145  1  0  0  0
 78146  1  0  0  0
 79147  1  0  0  0
 80148  1  0  0  0
M  ISO  4   1 100  68 101  78 101  80 100
M  END
> <chiral flag>
0

> <version>
0

> <s_m_source_file>
/data/baiqing/PycharmProjects/Reinvent-master-3.2/result/LINK_invent/BTK/process_docking_weight1_custom_sum_contain_oxygen_bond_distance_aromatic_linkinvent_7_9_3/rearranged_h_0011.sdf

> <i_m_source_file_index>
8

> <r_mmod_Potential_Energy-OPLS-2005>
393.216552734375

> <r_mmod_Stretch_Energy-OPLS-2005>
217.871948242188

> <r_mmod_Bend_Energy-OPLS-2005>
284.265167236328

> <r_mmod_Torsional_Energy-OPLS-2005>
220.855941772461

> <r_mmod_Improper_Torsional_Energy-OPLS-2005>
4.66032266616821

> <r_mmod_Van_der_Waal_Energy-OPLS-2005>
131.992782592773

> <r_mmod_Electrostatic_Energy-OPLS-2005>
-408.452697753906

> <r_mmod_Solvation_Energy-OPLS-2005>
-240.841186523438

> <b_mmod_Minimization_Converged-OPLS-2005>
0

> <r_mmod_RMS_Derivative-OPLS-2005>
0.679981827735901

$$$$
8
                    3D
 Structure written by MMmdl.
154162  0  0  1  0            999 V2000
  -30.6476  -14.7129   20.4612 C   0  0  0  0  0  0
  -30.4208  -12.4329   19.4803 C   0  0  0  0  0  0
  -29.5077  -12.5001   18.2382 C   0  0  0  0  0  0
  -28.0335  -12.3280   18.6504 C   0  0  0  0  0  0
  -27.6401  -13.2330   19.8499 C   0  0  2  0  0  0
  -28.6817  -13.1772   20.9884 C   0  0  0  0  0  0
  -25.2506  -13.8212   20.5674 C   0  0  0  0  0  0
  -24.1792  -13.0456   20.9174 C   0  0  0  0  0  0
  -24.6384  -11.6926   20.8744 C   0  0  0  0  0  0
  -23.9066  -10.4303   21.0413 C   0  0  0  0  0  0
  -24.3619   -9.4222   21.9192 C   0  0  0  0  0  0
  -23.6287   -8.2268   22.0769 C   0  0  0  0  0  0
  -22.4277   -8.0311   21.3553 C   0  0  0  0  0  0
  -21.9914   -9.0275   20.4654 C   0  0  0  0  0  0
  -22.7248  -10.2148   20.3056 C   0  0  0  0  0  0
  -21.6862   -6.0754   22.5285 C   0  0  0  0  0  0
  -21.4016   -6.5648   23.8217 C   0  0  0  0  0  0
  -21.3644   -5.6801   24.9175 C   0  0  0  0  0  0
  -21.6045   -4.3066   24.7230 C   0  0  0  0  0  0
  -21.8817   -3.8151   23.4345 C   0  0  0  0  0  0
  -21.9196   -4.6978   22.3403 C   0  0  0  0  0  0
  -22.7821  -13.5248   21.1846 C   0  0  0  0  0  0
  -22.1662   -4.2163   21.0988 F   0  0  0  0  0  0
  -21.5622   -3.4550   25.7729 F   0  0  0  0  0  0
  -29.9884  -13.5056   20.4068 N   0  0  0  0  0  0
  -26.2922  -12.9410   20.3283 N   0  0  0  0  0  0
  -25.9322  -11.6547   20.5763 N   0  0  0  0  0  0
  -22.0465  -12.8239   22.0395 N   0  0  0  0  0  0
  -25.4187  -15.1933   20.4090 N   0  0  0  0  0  0
  -31.8384  -14.7460   20.1493 O   0  0  0  0  0  0
  -21.6651   -6.8901   21.4245 O   0  0  0  0  0  0
  -22.3527  -14.5572   20.6720 O   0  0  0  0  0  0
  -24.6279  -31.8501   23.1982 C   0  0  0  0  0  0
  -25.9101  -32.4737   23.8318 C   0  0  1  0  0  0
  -27.2297  -27.2707   20.1287 C   0  0  0  0  0  0
  -25.5901  -33.8540   24.2231 N   0  0  0  0  0  0
  -23.4289  -30.4717   21.5342 C   0  0  2  0  0  0
  -24.8808  -28.9194   20.1077 C   0  0  0  0  0  0
  -22.7487  -29.4571   22.4872 C   0  0  0  0  0  0
  -18.0285  -28.1411   22.8432 C   0  0  0  0  0  0
  -24.1484  -36.7225   23.2653 C   0  0  0  0  0  0
  -25.9732  -30.7673   21.3805 C   0  0  0  0  0  0
  -26.0476  -29.3921   20.7175 C   0  0  0  0  0  0
  -27.2225  -28.5775   20.7214 C   0  0  0  0  0  0
  -26.0411  -26.8663   19.4826 C   0  0  0  0  0  0
  -24.8786  -27.6631   19.4827 C   0  0  0  0  0  0
  -23.6496  -29.8005   20.1517 C   0  0  0  0  0  0
  -25.4104  -36.3023   24.0332 C   0  0  1  0  0  0
  -20.5896  -28.3669   23.1239 C   0  0  2  0  0  0
  -20.6778  -26.9376   22.5379 C   0  0  0  0  0  0
  -19.5756  -26.6361   21.5188 C   0  0  0  0  0  0
  -18.1943  -26.7953   22.1590 C   0  0  0  0  0  0
  -19.1550  -28.8862   23.2845 C   0  0  0  0  0  0
  -18.9490  -30.1477   23.8843 C   0  0  0  0  0  0
  -17.6488  -30.6603   24.0556 C   0  0  0  0  0  0
  -25.9037  -34.9410   23.5086 C   0  0  0  0  0  0
  -16.5367  -29.9089   23.6372 C   0  0  0  0  0  0
  -16.7266  -28.6532   23.0330 C   0  0  0  0  0  0
  -26.4482  -31.6608   25.0730 C   0  0  0  0  0  0
  -25.3704  -31.3762   26.1444 C   0  0  0  0  0  0
  -27.0400  -30.3052   24.6252 C   0  0  0  0  0  0
  -27.6038  -32.4364   25.7467 C   0  0  0  0  0  0
  -27.5575  -37.1729   24.8451 C   0  0  0  0  0  0
  -21.4206  -29.3037   22.3630 N   0  0  0  0  0  0
  -26.4252  -37.3740   23.9454 N   0  0  0  0  0  0
  -24.6964  -31.0476   22.0957 N   0  0  0  0  0  0
  -23.4211  -28.8117   23.2967 O   0  0  0  0  0  0
  -28.3315  -26.3886   20.2269 O   0  0  0  0  0  0
  -26.5611  -34.8905   22.4659 O   0  0  0  0  0  0
  -23.5434  -32.1287   23.7273 O   0  0  0  0  0  0
  -30.9492  -20.0936   20.0190 C   0  0  0  0  0  0
  -31.5389  -17.7084   20.0161 C   0  0  0  0  0  0
  -31.8822  -19.0594   19.7957 C   0  0  0  0  0  0
  -29.6555  -19.8168   20.5051 C   0  0  0  0  0  0
  -30.2569  -17.3156   20.4764 C   0  0  0  0  0  0
  -29.3282  -18.4079   20.7286 C   0  0  0  0  0  0
  -28.7239  -23.6832   20.6821 C   0  0  0  0  0  0
  -33.2892  -19.3870   19.3289 C   0  0  0  0  0  0
  -28.7264  -21.0549   20.8841 C   0  0  0  0  0  0
  -28.2346  -24.9462   19.8047 C   0  0  0  0  0  0
  -29.9155  -15.8741   20.6758 N   0  0  0  0  0  0
  -28.7585  -22.4010   20.1549 N   0  0  0  0  0  0
  -29.0305  -23.8569   21.8672 O   0  0  0  0  0  0
  -27.7675  -17.9920   21.3475 Cl  0  0  0  0  0  0
  -31.4666  -12.5254   19.1827 H   0  0  0  0  0  0
  -30.3391  -11.4591   19.9663 H   0  0  0  0  0  0
  -29.7877  -11.7261   17.5225 H   0  0  0  0  0  0
  -29.6396  -13.4575   17.7311 H   0  0  0  0  0  0
  -27.8859  -11.2781   18.9074 H   0  0  0  0  0  0
  -27.3778  -12.5239   17.8005 H   0  0  0  0  0  0
  -27.6346  -14.2539   19.4654 H   0  0  0  0  0  0
  -28.7060  -12.1895   21.4521 H   0  0  0  0  0  0
  -28.4195  -13.8793   21.7804 H   0  0  0  0  0  0
  -25.2776   -9.5725   22.4750 H   0  0  0  0  0  0
  -24.0011   -7.4681   22.7495 H   0  0  0  0  0  0
  -21.0859   -8.8792   19.8952 H   0  0  0  0  0  0
  -22.3722  -10.9685   19.6155 H   0  0  0  0  0  0
  -21.2002   -7.6151   23.9727 H   0  0  0  0  0  0
  -21.1456   -6.0524   25.9080 H   0  0  0  0  0  0
  -22.0602   -2.7613   23.2844 H   0  0  0  0  0  0
  -22.4078  -11.9879   22.4738 H   0  0  0  0  0  0
  -21.1093  -13.1273   22.2619 H   0  0  0  0  0  0
  -24.6471  -15.8414   20.5227 H   0  0  0  0  0  0
  -26.2721  -15.6453   20.1069 H   0  0  0  0  0  0
  -26.7138  -32.5358   23.1026 H   0  0  0  0  0  0
  -25.0089  -33.9654   25.0412 H   0  0  0  0  0  0
  -22.7276  -31.2949   21.3762 H   0  0  0  0  0  0
  -23.3785  -35.9523   23.3254 H   0  0  0  0  0  0
  -24.3583  -36.8899   22.2079 H   0  0  0  0  0  0
  -23.7182  -37.6386   23.6713 H   0  0  0  0  0  0
  -26.1218  -31.5339   20.6202 H   0  0  0  0  0  0
  -26.8467  -30.8006   22.0204 H   0  0  0  0  0  0
  -28.1132  -28.9270   21.2213 H   0  0  0  0  0  0
  -25.9813  -25.9045   18.9958 H   0  0  0  0  0  0
  -23.9813  -27.2875   19.0128 H   0  0  0  0  0  0
  -23.7783  -30.5689   19.3891 H   0  0  0  0  0  0
  -22.7735  -29.2238   19.8483 H   0  0  0  0  0  0
  -25.1286  -36.1830   25.0816 H   0  0  0  0  0  0
  -20.9962  -28.3229   24.1363 H   0  0  0  0  0  0
  -20.5662  -26.2266   23.3578 H   0  0  0  0  0  0
  -21.6642  -26.7385   22.1176 H   0  0  0  0  0  0
  -19.6935  -25.6269   21.1226 H   0  0  0  0  0  0
  -19.6764  -27.3165   20.6738 H   0  0  0  0  0  0
  -17.4204  -26.6661   21.4002 H   0  0  0  0  0  0
  -18.0340  -26.0116   22.9007 H   0  0  0  0  0  0
  -19.7989  -30.7305   24.2151 H   0  0  0  0  0  0
  -17.5067  -31.6285   24.5157 H   0  0  0  0  0  0
  -15.5380  -30.2988   23.7791 H   0  0  0  0  0  0
  -15.8649  -28.0884   22.7035 H   0  0  0  0  0  0
  -24.5841  -30.7163   25.7728 H   0  0  0  0  0  0
  -24.8950  -32.2953   26.4884 H   0  0  0  0  0  0
  -25.7975  -30.8870   27.0214 H   0  0  0  0  0  0
  -26.3041  -29.6721   24.1276 H   0  0  0  0  0  0
  -27.4133  -29.7353   25.4781 H   0  0  0  0  0  0
  -27.8866  -30.4381   23.9516 H   0  0  0  0  0  0
  -27.2673  -33.3693   26.2002 H   0  0  0  0  0  0
  -28.3855  -32.6874   25.0282 H   0  0  0  0  0  0
  -28.0724  -31.8533   26.5398 H   0  0  0  0  0  0
  -28.2481  -38.0139   24.7620 H   0  0  0  0  0  0
  -28.1177  -36.2652   24.6106 H   0  0  0  0  0  0
  -27.2304  -37.1157   25.8856 H   0  0  0  0  0  0
  -20.9386  -29.8738   21.6815 H   0  0  0  0  0  0
  -26.0101  -38.2780   24.1603 H   0  0  0  0  0  0
  -31.2422  -21.1201   19.8552 H   0  0  0  0  0  0
  -32.3159  -16.9887   19.8150 H   0  0  0  0  0  0
  -33.5407  -20.4329   19.5116 H   0  0  0  0  0  0
  -33.3998  -19.1842   18.2628 H   0  0  0  0  0  0
  -34.0220  -18.7767   19.8602 H   0  0  0  0  0  0
  -28.9169  -21.2565   21.9381 H   0  0  0  0  0  0
  -27.6879  -20.7237   20.8505 H   0  0  0  0  0  0
  -27.4498  -24.8834   20.5602 H   0  0  0  0  0  0
  -29.3178  -25.0775   19.7944 H   0  0  0  0  0  0
  -28.9557  -15.7105   20.9384 H   0  0  0  0  0  0
  -28.5536  -22.3450   19.1661 H   0  0  0  0  0  0
  1 25  1  0  0  0
  1 30  2  0  0  0
  1 81  1  0  0  0
  2  3  1  0  0  0
  2 25  1  0  0  0
  2 85  1  0  0  0
  2 86  1  0  0  0
  3  4  1  0  0  0
  3 87  1  0  0  0
  3 88  1  0  0  0
  4  5  1  0  0  0
  4 89  1  0  0  0
  4 90  1  0  0  0
  5  6  1  0  0  0
  5 26  1  0  0  0
  5 91  1  0  0  0
  6 25  1  0  0  0
  6 92  1  0  0  0
  6 93  1  0  0  0
  7  8  2  0  0  0
  7 26  1  0  0  0
  7 29  1  0  0  0
  8  9  1  0  0  0
  8 22  1  0  0  0
  9 10  1  0  0  0
  9 27  2  0  0  0
 10 11  2  0  0  0
 10 15  1  0  0  0
 11 12  1  0  0  0
 11 94  1  0  0  0
 12 13  2  0  0  0
 12 95  1  0  0  0
 13 14  1  0  0  0
 13 31  1  0  0  0
 14 15  2  0  0  0
 14 96  1  0  0  0
 15 97  1  0  0  0
 16 17  2  0  0  0
 16 21  1  0  0  0
 16 31  1  0  0  0
 17 18  1  0  0  0
 17 98  1  0  0  0
 18 19  2  0  0  0
 18 99  1  0  0  0
 19 20  1  0  0  0
 19 24  1  0  0  0
 20 21  2  0  0  0
 20100  1  0  0  0
 21 23  1  0  0  0
 22 28  1  0  0  0
 22 32  2  0  0  0
 26 27  1  0  0  0
 28101  1  0  0  0
 28102  1  0  0  0
 29103  1  0  0  0
 29104  1  0  0  0
 33 34  1  0  0  0
 33 66  1  0  0  0
 33 70  2  0  0  0
 34 36  1  0  0  0
 34 59  1  0  0  0
 34105  1  0  0  0
 35 44  2  0  0  0
 35 45  1  0  0  0
 35 68  1  0  0  0
 36 56  1  0  0  0
 36106  1  0  0  0
 37 39  1  0  0  0
 37 47  1  0  0  0
 37 66  1  0  0  0
 37107  1  0  0  0
 38 43  2  0  0  0
 38 46  1  0  0  0
 38 47  1  0  0  0
 39 64  1  0  0  0
 39 67  2  0  0  0
 40 52  1  0  0  0
 40 53  2  0  0  0
 40 58  1  0  0  0
 41108  1  0  0  0
 41109  1  0  0  0
 41110  1  0  0  0
 41 48  1  0  0  0
 42 43  1  0  0  0
 42 66  1  0  0  0
 42111  1  0  0  0
 42112  1  0  0  0
 43 44  1  0  0  0
 44113  1  0  0  0
 45 46  2  0  0  0
 45114  1  0  0  0
 46115  1  0  0  0
 47116  1  0  0  0
 47117  1  0  0  0
 48 56  1  0  0  0
 48 65  1  0  0  0
 48118  1  0  0  0
 49 50  1  0  0  0
 49 53  1  0  0  0
 49 64  1  0  0  0
 49119  1  0  0  0
 50 51  1  0  0  0
 50120  1  0  0  0
 50121  1  0  0  0
 51 52  1  0  0  0
 51122  1  0  0  0
 51123  1  0  0  0
 52124  1  0  0  0
 52125  1  0  0  0
 53 54  1  0  0  0
 54 55  2  0  0  0
 54126  1  0  0  0
 55 57  1  0  0  0
 55127  1  0  0  0
 56 69  2  0  0  0
 57 58  2  0  0  0
 57128  1  0  0  0
 58129  1  0  0  0
 59 60  1  0  0  0
 59 61  1  0  0  0
 59 62  1  0  0  0
 60130  1  0  0  0
 60131  1  0  0  0
 60132  1  0  0  0
 61133  1  0  0  0
 61134  1  0  0  0
 61135  1  0  0  0
 62136  1  0  0  0
 62137  1  0  0  0
 62138  1  0  0  0
 63 65  1  0  0  0
 63139  1  0  0  0
 63140  1  0  0  0
 63141  1  0  0  0
 64142  1  0  0  0
 65143  1  0  0  0
 68 80  1  0  0  0
 71 73  2  0  0  0
 71 74  1  0  0  0
 71144  1  0  0  0
 72 73  1  0  0  0
 72 75  2  0  0  0
 72145  1  0  0  0
 73 78  1  0  0  0
 74 76  2  0  0  0
 74 79  1  0  0  0
 75 76  1  0  0  0
 75 81  1  0  0  0
 76 84  1  0  0  0
 77 80  1  0  0  0
 77 82  1  0  0  0
 77 83  2  0  0  0
 78146  1  0  0  0
 78147  1  0  0  0
 78148  1  0  0  0
 79 82  1  0  0  0
 79149  1  0  0  0
 79150  1  0  0  0
 80151  1  0  0  0
 80152  1  0  0  0
 81153  1  0  0  0
 82154  1  0  0  0
M  ISO  4   1 100  68 101  80 101  81 100
M  END
> <chiral flag>
0

> <version>
0

> <s_m_source_file>
/data/baiqing/PycharmProjects/Reinvent-master-3.2/result/LINK_invent/BTK/process_docking_weight1_custom_sum_contain_oxygen_bond_distance_aromatic_linkinvent_7_9_3/rearranged_h_0011.sdf

> <i_m_source_file_index>
9

> <r_mmod_Potential_Energy-OPLS-2005>
269.389251708984

> <r_mmod_Stretch_Energy-OPLS-2005>
123.952949523926

> <r_mmod_Bend_Energy-OPLS-2005>
366.957061767578

> <r_mmod_Torsional_Energy-OPLS-2005>
209.532150268555

> <r_mmod_Improper_Torsional_Energy-OPLS-2005>
5.37855768203735

> <r_mmod_Van_der_Waal_Energy-OPLS-2005>
149.191925048828

> <r_mmod_Electrostatic_Energy-OPLS-2005>
-429.201843261719

> <r_mmod_Solvation_Energy-OPLS-2005>
-234.897262573242

> <b_mmod_Minimization_Converged-OPLS-2005>
0

> <r_mmod_RMS_Derivative-OPLS-2005>
4.02419424057007

$$$$
9
                    3D
 Structure written by MMmdl.
152160  0  0  1  0            999 V2000
  -30.5316  -14.9123   20.4310 C   0  0  0  0  0  0
  -30.4488  -12.5605   19.5017 C   0  0  0  0  0  0
  -29.5284  -12.5432   18.2586 C   0  0  0  0  0  0
  -28.0556  -12.3417   18.6645 C   0  0  0  0  0  0
  -27.6386  -13.2483   19.8525 C   0  0  2  0  0  0
  -28.6825  -13.2273   20.9905 C   0  0  0  0  0  0
  -25.2465  -13.8220   20.5705 C   0  0  0  0  0  0
  -24.1777  -13.0436   20.9205 C   0  0  0  0  0  0
  -24.6403  -11.6917   20.8742 C   0  0  0  0  0  0
  -23.9088  -10.4289   21.0406 C   0  0  0  0  0  0
  -24.3634   -9.4196   21.9190 C   0  0  0  0  0  0
  -23.6293   -8.2242   22.0757 C   0  0  0  0  0  0
  -22.4281   -8.0293   21.3548 C   0  0  0  0  0  0
  -21.9916   -9.0272   20.4651 C   0  0  0  0  0  0
  -22.7256  -10.2137   20.3061 C   0  0  0  0  0  0
  -21.6860   -6.0742   22.5281 C   0  0  0  0  0  0
  -21.4020   -6.5646   23.8212 C   0  0  0  0  0  0
  -21.3655   -5.6794   24.9174 C   0  0  0  0  0  0
  -21.6042   -4.3060   24.7212 C   0  0  0  0  0  0
  -21.8816   -3.8151   23.4333 C   0  0  0  0  0  0
  -21.9186   -4.6972   22.3389 C   0  0  0  0  0  0
  -22.7793  -13.5214   21.1860 C   0  0  0  0  0  0
  -22.1654   -4.2156   21.0967 F   0  0  0  0  0  0
  -21.5617   -3.4539   25.7727 F   0  0  0  0  0  0
  -29.9699  -13.6382   20.4106 N   0  0  0  0  0  0
  -26.2927  -12.9455   20.3299 N   0  0  0  0  0  0
  -25.9346  -11.6581   20.5755 N   0  0  0  0  0  0
  -22.0419  -12.8236   22.0427 N   0  0  0  0  0  0
  -25.4091  -15.1959   20.4152 N   0  0  0  0  0  0
  -31.7117  -15.0330   20.0843 O   0  0  0  0  0  0
  -21.6641   -6.8897   21.4251 O   0  0  0  0  0  0
  -22.3476  -14.5496   20.6672 O   0  0  0  0  0  0
  -24.6430  -31.8440   23.1885 C   0  0  0  0  0  0
  -25.9196  -32.4700   23.8297 C   0  0  1  0  0  0
  -27.2308  -27.1506   20.1359 C   0  0  0  0  0  0
  -25.5932  -33.8509   24.2209 N   0  0  0  0  0  0
  -23.4478  -30.4620   21.5322 C   0  0  2  0  0  0
  -24.8981  -28.8907   20.1060 C   0  0  0  0  0  0
  -22.7575  -29.4532   22.4842 C   0  0  0  0  0  0
  -18.0304  -28.1389   22.8472 C   0  0  0  0  0  0
  -24.1473  -36.7269   23.2649 C   0  0  0  0  0  0
  -26.0028  -30.7199   21.3854 C   0  0  0  0  0  0
  -26.0727  -29.3326   20.7263 C   0  0  0  0  0  0
  -27.2341  -28.4767   20.7275 C   0  0  0  0  0  0
  -26.0270  -26.8056   19.4787 C   0  0  0  0  0  0
  -24.8872  -27.6405   19.4685 C   0  0  0  0  0  0
  -23.6749  -29.7927   20.1502 C   0  0  0  0  0  0
  -25.4102  -36.3037   24.0325 C   0  0  1  0  0  0
  -20.5917  -28.3714   23.1219 C   0  0  2  0  0  0
  -20.6768  -26.9408   22.5400 C   0  0  0  0  0  0
  -19.5745  -26.6369   21.5204 C   0  0  0  0  0  0
  -18.1933  -26.7928   22.1623 C   0  0  0  0  0  0
  -19.1562  -28.8868   23.2843 C   0  0  0  0  0  0
  -18.9482  -30.1461   23.8877 C   0  0  0  0  0  0
  -17.6474  -30.6578   24.0560 C   0  0  0  0  0  0
  -25.9054  -34.9409   23.5080 C   0  0  0  0  0  0
  -16.5368  -29.9076   23.6324 C   0  0  0  0  0  0
  -16.7288  -28.6495   23.0351 C   0  0  0  0  0  0
  -26.4505  -31.6577   25.0747 C   0  0  0  0  0  0
  -25.3704  -31.3786   26.1461 C   0  0  0  0  0  0
  -27.0371  -30.2974   24.6333 C   0  0  0  0  0  0
  -27.6024  -32.4356   25.7534 C   0  0  0  0  0  0
  -27.5564  -37.1787   24.8464 C   0  0  0  0  0  0
  -21.4264  -29.3045   22.3599 N   0  0  0  0  0  0
  -26.4272  -37.3743   23.9411 N   0  0  0  0  0  0
  -24.7178  -31.0300   22.0908 N   0  0  0  0  0  0
  -23.4210  -28.8076   23.2991 O   0  0  0  0  0  0
  -28.3160  -26.2080   20.2396 O   0  0  0  0  0  0
  -26.5650  -34.8901   22.4662 O   0  0  0  0  0  0
  -23.5545  -32.1316   23.7085 O   0  0  0  0  0  0
  -30.5673  -18.3774   19.7809 C   0  0  0  0  0  0
  -28.4619  -19.7547   20.9836 C   0  0  0  0  0  0
  -29.6879  -17.5405   20.5417 C   0  0  0  0  0  0
  -29.3128  -20.5930   20.1913 C   0  0  0  0  0  0
  -28.6362  -18.3191   21.1386 C   0  0  0  0  0  0
  -30.3798  -19.8117   19.6089 C   0  0  0  0  0  0
  -27.5094  -23.0568   21.5280 C   0  0  0  0  0  0
  -28.3506  -24.7431   19.7230 C   0  0  0  0  0  0
  -28.6837  -23.3355   20.5860 C   0  0  2  0  0  0
  -29.6987  -16.0187   20.7115 N   0  0  0  0  0  0
  -29.1312  -22.0346   19.8506 N   0  0  0  0  0  0
  -27.7246  -17.6485   21.8818 F   0  0  0  0  0  0
  -31.2656  -20.4663   18.8180 F   0  0  0  0  0  0
  -31.4834  -12.7186   19.1944 H   0  0  0  0  0  0
  -30.4331  -11.5964   20.0121 H   0  0  0  0  0  0
  -29.8371  -11.7568   17.5677 H   0  0  0  0  0  0
  -29.6351  -13.4859   17.7199 H   0  0  0  0  0  0
  -27.9295  -11.2941   18.9388 H   0  0  0  0  0  0
  -27.4013  -12.5141   17.8087 H   0  0  0  0  0  0
  -27.6157  -14.2643   19.4578 H   0  0  0  0  0  0
  -28.7543  -12.2322   21.4334 H   0  0  0  0  0  0
  -28.3854  -13.9003   21.7963 H   0  0  0  0  0  0
  -25.2776   -9.5663   22.4783 H   0  0  0  0  0  0
  -23.9981   -7.4638   22.7494 H   0  0  0  0  0  0
  -21.0833   -8.8816   19.8981 H   0  0  0  0  0  0
  -22.3720  -10.9691   19.6186 H   0  0  0  0  0  0
  -21.2032   -7.6157   23.9719 H   0  0  0  0  0  0
  -21.1478   -6.0529   25.9084 H   0  0  0  0  0  0
  -22.0595   -2.7614   23.2836 H   0  0  0  0  0  0
  -22.4036  -11.9930   22.4880 H   0  0  0  0  0  0
  -21.1044  -13.1308   22.2601 H   0  0  0  0  0  0
  -24.6379  -15.8423   20.5434 H   0  0  0  0  0  0
  -26.2558  -15.6524   20.1012 H   0  0  0  0  0  0
  -26.7287  -32.5302   23.1053 H   0  0  0  0  0  0
  -25.0038  -33.9627   25.0328 H   0  0  0  0  0  0
  -22.7507  -31.2878   21.3770 H   0  0  0  0  0  0
  -23.3723  -35.9613   23.3305 H   0  0  0  0  0  0
  -24.3562  -36.8907   22.2067 H   0  0  0  0  0  0
  -23.7237  -37.6470   23.6686 H   0  0  0  0  0  0
  -26.1592  -31.4717   20.6101 H   0  0  0  0  0  0
  -26.8749  -30.7709   22.0265 H   0  0  0  0  0  0
  -28.1291  -28.8110   21.2340 H   0  0  0  0  0  0
  -25.9159  -25.8548   18.9846 H   0  0  0  0  0  0
  -23.9905  -27.2983   18.9699 H   0  0  0  0  0  0
  -23.8146  -30.5711   19.3996 H   0  0  0  0  0  0
  -22.7905  -29.2369   19.8335 H   0  0  0  0  0  0
  -25.1277  -36.1883   25.0818 H   0  0  0  0  0  0
  -21.0013  -28.3309   24.1339 H   0  0  0  0  0  0
  -20.5621  -26.2334   23.3627 H   0  0  0  0  0  0
  -21.6636  -26.7367   22.1220 H   0  0  0  0  0  0
  -19.6890  -25.6273   21.1250 H   0  0  0  0  0  0
  -19.6686  -27.3166   20.6727 H   0  0  0  0  0  0
  -17.4188  -26.6666   21.4045 H   0  0  0  0  0  0
  -18.0344  -26.0083   22.9034 H   0  0  0  0  0  0
  -19.7956  -30.7284   24.2245 H   0  0  0  0  0  0
  -17.5023  -31.6250   24.5172 H   0  0  0  0  0  0
  -15.5367  -30.2974   23.7638 H   0  0  0  0  0  0
  -15.8696  -28.0802   22.7075 H   0  0  0  0  0  0
  -24.5845  -30.7169   25.7805 H   0  0  0  0  0  0
  -24.8944  -32.2984   26.4874 H   0  0  0  0  0  0
  -25.7995  -30.8970   27.0260 H   0  0  0  0  0  0
  -26.2999  -29.6711   24.1301 H   0  0  0  0  0  0
  -27.3938  -29.7259   25.4914 H   0  0  0  0  0  0
  -27.8920  -30.4215   23.9685 H   0  0  0  0  0  0
  -27.2588  -33.3655   26.2084 H   0  0  0  0  0  0
  -28.3846  -32.6938   25.0384 H   0  0  0  0  0  0
  -28.0687  -31.8528   26.5490 H   0  0  0  0  0  0
  -28.2569  -38.0089   24.7474 H   0  0  0  0  0  0
  -28.1062  -36.2614   24.6306 H   0  0  0  0  0  0
  -27.2290  -37.1455   25.8870 H   0  0  0  0  0  0
  -20.9469  -29.8817   21.6835 H   0  0  0  0  0  0
  -26.0141  -38.2815   24.1405 H   0  0  0  0  0  0
  -31.4039  -17.9163   19.2773 H   0  0  0  0  0  0
  -27.5988  -20.1953   21.4552 H   0  0  0  0  0  0
  -27.2340  -23.9618   22.0704 H   0  0  0  0  0  0
  -27.7624  -22.3085   22.2783 H   0  0  0  0  0  0
  -26.6262  -22.7247   20.9812 H   0  0  0  0  0  0
  -27.4638  -24.5322   19.1331 H   0  0  0  0  0  0
  -29.1386  -24.7913   18.9716 H   0  0  0  0  0  0
  -29.5417  -23.5857   21.2111 H   0  0  0  0  0  0
  -28.8219  -15.6960   21.0922 H   0  0  0  0  0  0
  -29.7454  -22.2686   19.0723 H   0  0  0  0  0  0
  1 25  1  0  0  0
  1 30  2  0  0  0
  1 80  1  0  0  0
  2  3  1  0  0  0
  2 25  1  0  0  0
  2 84  1  0  0  0
  2 85  1  0  0  0
  3  4  1  0  0  0
  3 86  1  0  0  0
  3 87  1  0  0  0
  4  5  1  0  0  0
  4 88  1  0  0  0
  4 89  1  0  0  0
  5  6  1  0  0  0
  5 26  1  0  0  0
  5 90  1  0  0  0
  6 25  1  0  0  0
  6 91  1  0  0  0
  6 92  1  0  0  0
  7  8  2  0  0  0
  7 26  1  0  0  0
  7 29  1  0  0  0
  8  9  1  0  0  0
  8 22  1  0  0  0
  9 10  1  0  0  0
  9 27  2  0  0  0
 10 11  2  0  0  0
 10 15  1  0  0  0
 11 12  1  0  0  0
 11 93  1  0  0  0
 12 13  2  0  0  0
 12 94  1  0  0  0
 13 14  1  0  0  0
 13 31  1  0  0  0
 14 15  2  0  0  0
 14 95  1  0  0  0
 15 96  1  0  0  0
 16 17  2  0  0  0
 16 21  1  0  0  0
 16 31  1  0  0  0
 17 18  1  0  0  0
 17 97  1  0  0  0
 18 19  2  0  0  0
 18 98  1  0  0  0
 19 20  1  0  0  0
 19 24  1  0  0  0
 20 21  2  0  0  0
 20 99  1  0  0  0
 21 23  1  0  0  0
 22 28  1  0  0  0
 22 32  2  0  0  0
 26 27  1  0  0  0
 28100  1  0  0  0
 28101  1  0  0  0
 29102  1  0  0  0
 29103  1  0  0  0
 33 34  1  0  0  0
 33 66  1  0  0  0
 33 70  2  0  0  0
 34 36  1  0  0  0
 34 59  1  0  0  0
 34104  1  0  0  0
 35 44  2  0  0  0
 35 45  1  0  0  0
 35 68  1  0  0  0
 36 56  1  0  0  0
 36105  1  0  0  0
 37 39  1  0  0  0
 37 47  1  0  0  0
 37 66  1  0  0  0
 37106  1  0  0  0
 38 43  2  0  0  0
 38 46  1  0  0  0
 38 47  1  0  0  0
 39 64  1  0  0  0
 39 67  2  0  0  0
 40 52  1  0  0  0
 40 53  2  0  0  0
 40 58  1  0  0  0
 41107  1  0  0  0
 41108  1  0  0  0
 41109  1  0  0  0
 41 48  1  0  0  0
 42 43  1  0  0  0
 42 66  1  0  0  0
 42110  1  0  0  0
 42111  1  0  0  0
 43 44  1  0  0  0
 44112  1  0  0  0
 45 46  2  0  0  0
 45113  1  0  0  0
 46114  1  0  0  0
 47115  1  0  0  0
 47116  1  0  0  0
 48 56  1  0  0  0
 48 65  1  0  0  0
 48117  1  0  0  0
 49 50  1  0  0  0
 49 53  1  0  0  0
 49 64  1  0  0  0
 49118  1  0  0  0
 50 51  1  0  0  0
 50119  1  0  0  0
 50120  1  0  0  0
 51 52  1  0  0  0
 51121  1  0  0  0
 51122  1  0  0  0
 52123  1  0  0  0
 52124  1  0  0  0
 53 54  1  0  0  0
 54 55  2  0  0  0
 54125  1  0  0  0
 55 57  1  0  0  0
 55126  1  0  0  0
 56 69  2  0  0  0
 57 58  2  0  0  0
 57127  1  0  0  0
 58128  1  0  0  0
 59 60  1  0  0  0
 59 61  1  0  0  0
 59 62  1  0  0  0
 60129  1  0  0  0
 60130  1  0  0  0
 60131  1  0  0  0
 61132  1  0  0  0
 61133  1  0  0  0
 61134  1  0  0  0
 62135  1  0  0  0
 62136  1  0  0  0
 62137  1  0  0  0
 63 65  1  0  0  0
 63138  1  0  0  0
 63139  1  0  0  0
 63140  1  0  0  0
 64141  1  0  0  0
 65142  1  0  0  0
 68 78  1  0  0  0
 71 73  2  0  0  0
 71 76  1  0  0  0
 71143  1  0  0  0
 72 74  1  0  0  0
 72 75  2  0  0  0
 72144  1  0  0  0
 73 75  1  0  0  0
 73 80  1  0  0  0
 74 76  2  0  0  0
 74 81  1  0  0  0
 75 82  1  0  0  0
 76 83  1  0  0  0
 77145  1  0  0  0
 77146  1  0  0  0
 77147  1  0  0  0
 77 79  1  0  0  0
 78 79  1  0  0  0
 78148  1  0  0  0
 78149  1  0  0  0
 79 81  1  0  0  0
 79150  1  0  0  0
 80151  1  0  0  0
 81152  1  0  0  0
M  ISO  4   1 100  68 101  78 101  80 100
M  END
> <chiral flag>
0

> <version>
0

> <s_m_source_file>
/data/baiqing/PycharmProjects/Reinvent-master-3.2/result/LINK_invent/BTK/process_docking_weight1_custom_sum_contain_oxygen_bond_distance_aromatic_linkinvent_7_9_3/rearranged_h_0011.sdf

> <i_m_source_file_index>
10

> <r_mmod_Potential_Energy-OPLS-2005>
413.297546386719

> <r_mmod_Stretch_Energy-OPLS-2005>
215.085372924805

> <r_mmod_Bend_Energy-OPLS-2005>
287.837951660156

> <r_mmod_Torsional_Energy-OPLS-2005>
210.662551879883

> <r_mmod_Improper_Torsional_Energy-OPLS-2005>
5.33845376968384

> <r_mmod_Van_der_Waal_Energy-OPLS-2005>
128.125839233398

> <r_mmod_Electrostatic_Energy-OPLS-2005>
-398.311798095703

> <r_mmod_Solvation_Energy-OPLS-2005>
-205.795547485352

> <b_mmod_Minimization_Converged-OPLS-2005>
0

> <r_mmod_RMS_Derivative-OPLS-2005>
2.18533611297607

$$$$
10
                    3D
 Structure written by MMmdl.
154162  0  0  1  0            999 V2000
  -30.6186  -14.7380   20.4556 C   0  0  0  0  0  0
  -30.4322  -12.4472   19.4793 C   0  0  0  0  0  0
  -29.5121  -12.5073   18.2398 C   0  0  0  0  0  0
  -28.0379  -12.3326   18.6519 C   0  0  0  0  0  0
  -27.6443  -13.2321   19.8541 C   0  0  2  0  0  0
  -28.6882  -13.1629   20.9909 C   0  0  0  0  0  0
  -25.2521  -13.8197   20.5698 C   0  0  0  0  0  0
  -24.1808  -13.0442   20.9204 C   0  0  0  0  0  0
  -24.6398  -11.6919   20.8744 C   0  0  0  0  0  0
  -23.9073  -10.4294   21.0402 C   0  0  0  0  0  0
  -24.3622   -9.4209   21.9181 C   0  0  0  0  0  0
  -23.6295   -8.2246   22.0754 C   0  0  0  0  0  0
  -22.4277   -8.0282   21.3543 C   0  0  0  0  0  0
  -21.9914   -9.0256   20.4645 C   0  0  0  0  0  0
  -22.7244  -10.2135   20.3053 C   0  0  0  0  0  0
  -21.6855   -6.0735   22.5276 C   0  0  0  0  0  0
  -21.4016   -6.5639   23.8210 C   0  0  0  0  0  0
  -21.3660   -5.6792   24.9171 C   0  0  0  0  0  0
  -21.6046   -4.3055   24.7223 C   0  0  0  0  0  0
  -21.8820   -3.8147   23.4343 C   0  0  0  0  0  0
  -21.9194   -4.6963   22.3399 C   0  0  0  0  0  0
  -22.7828  -13.5222   21.1861 C   0  0  0  0  0  0
  -22.1662   -4.2149   21.0977 F   0  0  0  0  0  0
  -21.5629   -3.4538   25.7736 F   0  0  0  0  0  0
  -29.9936  -13.5104   20.4142 N   0  0  0  0  0  0
  -26.2951  -12.9407   20.3294 N   0  0  0  0  0  0
  -25.9332  -11.6547   20.5756 N   0  0  0  0  0  0
  -22.0477  -12.8211   22.0418 N   0  0  0  0  0  0
  -25.4213  -15.1921   20.4115 N   0  0  0  0  0  0
  -31.8039  -14.8209   20.1230 O   0  0  0  0  0  0
  -21.6642   -6.8879   21.4238 O   0  0  0  0  0  0
  -22.3512  -14.5528   20.6709 O   0  0  0  0  0  0
  -24.6323  -31.8562   23.2001 C   0  0  0  0  0  0
  -25.9147  -32.4760   23.8346 C   0  0  1  0  0  0
  -27.2128  -27.2562   20.1309 C   0  0  0  0  0  0
  -25.5943  -33.8562   24.2265 N   0  0  0  0  0  0
  -23.4295  -30.4808   21.5437 C   0  0  2  0  0  0
  -24.8772  -28.9334   20.1090 C   0  0  0  0  0  0
  -22.7517  -29.4606   22.4911 C   0  0  0  0  0  0
  -18.0298  -28.1386   22.8481 C   0  0  0  0  0  0
  -24.1492  -36.7283   23.2639 C   0  0  0  0  0  0
  -25.9776  -30.7666   21.3840 C   0  0  0  0  0  0
  -26.0500  -29.3899   20.7250 C   0  0  0  0  0  0
  -27.2223  -28.5636   20.7275 C   0  0  0  0  0  0
  -26.0253  -26.8886   19.4579 C   0  0  0  0  0  0
  -24.8710  -27.6909   19.4627 C   0  0  0  0  0  0
  -23.6488  -29.8204   20.1583 C   0  0  0  0  0  0
  -25.4116  -36.3069   24.0327 C   0  0  1  0  0  0
  -20.5903  -28.3700   23.1264 C   0  0  2  0  0  0
  -20.6786  -26.9418   22.5404 C   0  0  0  0  0  0
  -19.5758  -26.6383   21.5212 C   0  0  0  0  0  0
  -18.1939  -26.7926   22.1625 C   0  0  0  0  0  0
  -19.1552  -28.8860   23.2866 C   0  0  0  0  0  0
  -18.9472  -30.1459   23.8886 C   0  0  0  0  0  0
  -17.6469  -30.6584   24.0561 C   0  0  0  0  0  0
  -25.9061  -34.9441   23.5097 C   0  0  0  0  0  0
  -16.5360  -29.9080   23.6330 C   0  0  0  0  0  0
  -16.7284  -28.6499   23.0349 C   0  0  0  0  0  0
  -26.4509  -31.6582   25.0735 C   0  0  0  0  0  0
  -25.3724  -31.3736   26.1448 C   0  0  0  0  0  0
  -27.0361  -30.2997   24.6228 C   0  0  0  0  0  0
  -27.6062  -32.4327   25.7508 C   0  0  0  0  0  0
  -27.5578  -37.1798   24.8465 C   0  0  0  0  0  0
  -21.4223  -29.3045   22.3654 N   0  0  0  0  0  0
  -26.4289  -37.3769   23.9409 N   0  0  0  0  0  0
  -24.6987  -31.0524   22.0985 N   0  0  0  0  0  0
  -23.4214  -28.8141   23.3008 O   0  0  0  0  0  0
  -28.2755  -26.3192   20.1905 O   0  0  0  0  0  0
  -26.5631  -34.8915   22.4664 O   0  0  0  0  0  0
  -23.5471  -32.1390   23.7288 O   0  0  0  0  0  0
  -29.2278  -18.3861   20.9090 C   0  0  0  0  0  0
  -30.4554  -20.1289   19.7374 C   0  0  0  0  0  0
  -31.1115  -17.7504   19.5443 C   0  0  0  0  0  0
  -29.3941  -19.8025   20.6004 C   0  0  0  0  0  0
  -30.0727  -17.3181   20.4066 C   0  0  0  0  0  0
  -31.2961  -19.1172   19.2195 C   0  0  0  0  0  0
  -28.4753  -20.8689   21.2094 C   0  0  0  0  0  0
  -28.2134  -22.2437   21.2578 C   0  0  0  0  0  0
  -27.0861  -22.6249   22.2188 C   0  0  0  0  0  0
  -28.8252  -23.5564   20.5715 C   0  0  0  0  0  0
  -27.8988  -24.9096   20.5807 C   0  0  0  0  0  0
  -29.8522  -15.8708   20.7116 N   0  0  0  0  0  0
  -32.5814  -19.5617   18.1565 Cl  0  0  0  0  0  0
  -31.4746  -12.5624   19.1778 H   0  0  0  0  0  0
  -30.3693  -11.4695   19.9598 H   0  0  0  0  0  0
  -29.7933  -11.7352   17.5224 H   0  0  0  0  0  0
  -29.6416  -13.4627   17.7286 H   0  0  0  0  0  0
  -27.8943  -11.2838   18.9143 H   0  0  0  0  0  0
  -27.3810  -12.5253   17.8029 H   0  0  0  0  0  0
  -27.6407  -14.2545   19.4754 H   0  0  0  0  0  0
  -28.7192  -12.1647   21.4300 H   0  0  0  0  0  0
  -28.4231  -13.8430   21.8018 H   0  0  0  0  0  0
  -25.2767   -9.5686   22.4756 H   0  0  0  0  0  0
  -24.0004   -7.4639   22.7474 H   0  0  0  0  0  0
  -21.0847   -8.8774   19.8950 H   0  0  0  0  0  0
  -22.3700  -10.9673   19.6162 H   0  0  0  0  0  0
  -21.2009   -7.6148   23.9712 H   0  0  0  0  0  0
  -21.1482   -6.0522   25.9074 H   0  0  0  0  0  0
  -22.0599   -2.7609   23.2842 H   0  0  0  0  0  0
  -22.4101  -11.9874   22.4805 H   0  0  0  0  0  0
  -21.1091  -13.1226   22.2621 H   0  0  0  0  0  0
  -24.6514  -15.8438   20.5171 H   0  0  0  0  0  0
  -26.2644  -15.6312   20.0643 H   0  0  0  0  0  0
  -26.7216  -32.5407   23.1091 H   0  0  0  0  0  0
  -25.0093  -33.9709   25.0411 H   0  0  0  0  0  0
  -22.7262  -31.3034   21.3996 H   0  0  0  0  0  0
  -23.3754  -35.9614   23.3298 H   0  0  0  0  0  0
  -24.3584  -36.8910   22.2055 H   0  0  0  0  0  0
  -23.7246  -37.6482   23.6668 H   0  0  0  0  0  0
  -26.1203  -31.5275   20.6153 H   0  0  0  0  0  0
  -26.8540  -30.8138   22.0187 H   0  0  0  0  0  0
  -28.1151  -28.9043   21.2331 H   0  0  0  0  0  0
  -25.9594  -25.9579   18.9157 H   0  0  0  0  0  0
  -23.9798  -27.3440   18.9577 H   0  0  0  0  0  0
  -23.7751  -30.5993   19.4054 H   0  0  0  0  0  0
  -22.7669  -29.2558   19.8503 H   0  0  0  0  0  0
  -25.1298  -36.1916   25.0819 H   0  0  0  0  0  0
  -20.9994  -28.3273   24.1385 H   0  0  0  0  0  0
  -20.5688  -26.2313   23.3612 H   0  0  0  0  0  0
  -21.6653  -26.7442   22.1197 H   0  0  0  0  0  0
  -19.6922  -25.6293   21.1244 H   0  0  0  0  0  0
  -19.6687  -27.3192   20.6740 H   0  0  0  0  0  0
  -17.4210  -26.6677   21.4025 H   0  0  0  0  0  0
  -18.0333  -26.0068   22.9022 H   0  0  0  0  0  0
  -19.7950  -30.7277   24.2249 H   0  0  0  0  0  0
  -17.5025  -31.6263   24.5166 H   0  0  0  0  0  0
  -15.5360  -30.2977   23.7658 H   0  0  0  0  0  0
  -15.8687  -28.0814   22.7064 H   0  0  0  0  0  0
  -24.5912  -30.7072   25.7773 H   0  0  0  0  0  0
  -24.8899  -32.2906   26.4842 H   0  0  0  0  0  0
  -25.8033  -30.8937   27.0244 H   0  0  0  0  0  0
  -26.2950  -29.6740   24.1240 H   0  0  0  0  0  0
  -27.4029  -29.7265   25.4752 H   0  0  0  0  0  0
  -27.8834  -30.4272   23.9487 H   0  0  0  0  0  0
  -27.2673  -33.3641   26.2055 H   0  0  0  0  0  0
  -28.3883  -32.6864   25.0340 H   0  0  0  0  0  0
  -28.0713  -31.8469   26.5447 H   0  0  0  0  0  0
  -28.2591  -38.0099   24.7511 H   0  0  0  0  0  0
  -28.1079  -36.2631   24.6289 H   0  0  0  0  0  0
  -27.2299  -37.1440   25.8869 H   0  0  0  0  0  0
  -20.9414  -29.8776   21.6864 H   0  0  0  0  0  0
  -26.0166  -38.2841   24.1410 H   0  0  0  0  0  0
  -28.4162  -18.1094   21.5675 H   0  0  0  0  0  0
  -30.6343  -21.1604   19.4698 H   0  0  0  0  0  0
  -31.7863  -17.0391   19.0941 H   0  0  0  0  0  0
  -27.7956  -20.3239   21.8472 H   0  0  0  0  0  0
  -26.2543  -23.0860   21.6862 H   0  0  0  0  0  0
  -27.4519  -23.3177   22.9773 H   0  0  0  0  0  0
  -26.6624  -21.7814   22.7642 H   0  0  0  0  0  0
  -29.7516  -23.7823   21.0994 H   0  0  0  0  0  0
  -29.1151  -23.3119   19.5496 H   0  0  0  0  0  0
  -27.0110  -24.6030   20.0364 H   0  0  0  0  0  0
  -27.5631  -25.0639   21.6047 H   0  0  0  0  0  0
  -28.9403  -15.6526   21.0838 H   0  0  0  0  0  0
  1 25  1  0  0  0
  1 30  2  0  0  0
  1 82  1  0  0  0
  2  3  1  0  0  0
  2 25  1  0  0  0
  2 84  1  0  0  0
  2 85  1  0  0  0
  3  4  1  0  0  0
  3 86  1  0  0  0
  3 87  1  0  0  0
  4  5  1  0  0  0
  4 88  1  0  0  0
  4 89  1  0  0  0
  5  6  1  0  0  0
  5 26  1  0  0  0
  5 90  1  0  0  0
  6 25  1  0  0  0
  6 91  1  0  0  0
  6 92  1  0  0  0
  7  8  2  0  0  0
  7 26  1  0  0  0
  7 29  1  0  0  0
  8  9  1  0  0  0
  8 22  1  0  0  0
  9 10  1  0  0  0
  9 27  2  0  0  0
 10 11  2  0  0  0
 10 15  1  0  0  0
 11 12  1  0  0  0
 11 93  1  0  0  0
 12 13  2  0  0  0
 12 94  1  0  0  0
 13 14  1  0  0  0
 13 31  1  0  0  0
 14 15  2  0  0  0
 14 95  1  0  0  0
 15 96  1  0  0  0
 16 17  2  0  0  0
 16 21  1  0  0  0
 16 31  1  0  0  0
 17 18  1  0  0  0
 17 97  1  0  0  0
 18 19  2  0  0  0
 18 98  1  0  0  0
 19 20  1  0  0  0
 19 24  1  0  0  0
 20 21  2  0  0  0
 20 99  1  0  0  0
 21 23  1  0  0  0
 22 28  1  0  0  0
 22 32  2  0  0  0
 26 27  1  0  0  0
 28100  1  0  0  0
 28101  1  0  0  0
 29102  1  0  0  0
 29103  1  0  0  0
 33 34  1  0  0  0
 33 66  1  0  0  0
 33 70  2  0  0  0
 34 36  1  0  0  0
 34 59  1  0  0  0
 34104  1  0  0  0
 35 44  2  0  0  0
 35 45  1  0  0  0
 35 68  1  0  0  0
 36 56  1  0  0  0
 36105  1  0  0  0
 37 39  1  0  0  0
 37 47  1  0  0  0
 37 66  1  0  0  0
 37106  1  0  0  0
 38 43  2  0  0  0
 38 46  1  0  0  0
 38 47  1  0  0  0
 39 64  1  0  0  0
 39 67  2  0  0  0
 40 52  1  0  0  0
 40 53  2  0  0  0
 40 58  1  0  0  0
 41107  1  0  0  0
 41108  1  0  0  0
 41109  1  0  0  0
 41 48  1  0  0  0
 42 43  1  0  0  0
 42 66  1  0  0  0
 42110  1  0  0  0
 42111  1  0  0  0
 43 44  1  0  0  0
 44112  1  0  0  0
 45 46  2  0  0  0
 45113  1  0  0  0
 46114  1  0  0  0
 47115  1  0  0  0
 47116  1  0  0  0
 48 56  1  0  0  0
 48 65  1  0  0  0
 48117  1  0  0  0
 49 50  1  0  0  0
 49 53  1  0  0  0
 49 64  1  0  0  0
 49118  1  0  0  0
 50 51  1  0  0  0
 50119  1  0  0  0
 50120  1  0  0  0
 51 52  1  0  0  0
 51121  1  0  0  0
 51122  1  0  0  0
 52123  1  0  0  0
 52124  1  0  0  0
 53 54  1  0  0  0
 54 55  2  0  0  0
 54125  1  0  0  0
 55 57  1  0  0  0
 55126  1  0  0  0
 56 69  2  0  0  0
 57 58  2  0  0  0
 57127  1  0  0  0
 58128  1  0  0  0
 59 60  1  0  0  0
 59 61  1  0  0  0
 59 62  1  0  0  0
 60129  1  0  0  0
 60130  1  0  0  0
 60131  1  0  0  0
 61132  1  0  0  0
 61133  1  0  0  0
 61134  1  0  0  0
 62135  1  0  0  0
 62136  1  0  0  0
 62137  1  0  0  0
 63 65  1  0  0  0
 63138  1  0  0  0
 63139  1  0  0  0
 63140  1  0  0  0
 64141  1  0  0  0
 65142  1  0  0  0
 68 81  1  0  0  0
 71 74  2  0  0  0
 71 75  1  0  0  0
 71143  1  0  0  0
 72 74  1  0  0  0
 72 76  2  0  0  0
 72144  1  0  0  0
 73 75  2  0  0  0
 73 76  1  0  0  0
 73145  1  0  0  0
 74 77  1  0  0  0
 75 82  1  0  0  0
 76 83  1  0  0  0
 77 78  2  0  0  0
 77146  1  0  0  0
 78 79  1  0  0  0
 78 80  1  0  0  0
 79147  1  0  0  0
 79148  1  0  0  0
 79149  1  0  0  0
 80 81  1  0  0  0
 80150  1  0  0  0
 80151  1  0  0  0
 81152  1  0  0  0
 81153  1  0  0  0
 82154  1  0  0  0
M  ISO  4   1 100  68 101  81 101  82 100
M  END
> <chiral flag>
0

> <version>
0

> <s_m_source_file>
/data/baiqing/PycharmProjects/Reinvent-master-3.2/result/LINK_invent/BTK/process_docking_weight1_custom_sum_contain_oxygen_bond_distance_aromatic_linkinvent_7_9_3/rearranged_h_0011.sdf

> <i_m_source_file_index>
11

> <r_mmod_Potential_Energy-OPLS-2005>
288.152679443359

> <r_mmod_Stretch_Energy-OPLS-2005>
131.489807128906

> <r_mmod_Bend_Energy-OPLS-2005>
219.434585571289

> <r_mmod_Torsional_Energy-OPLS-2005>
235.173812866211

> <r_mmod_Improper_Torsional_Energy-OPLS-2005>
3.96392941474915

> <r_mmod_Van_der_Waal_Energy-OPLS-2005>
153.365310668945

> <r_mmod_Electrostatic_Energy-OPLS-2005>
-338.415679931641

> <r_mmod_Solvation_Energy-OPLS-2005>
-205.31494140625

> <b_mmod_Minimization_Converged-OPLS-2005>
0

> <r_mmod_RMS_Derivative-OPLS-2005>
0.399960666894913

$$$$
11
                    3D
 Structure written by MMmdl.
152160  0  0  1  0            999 V2000
  -30.6018  -14.6280   20.5004 C   0  0  0  0  0  0
  -30.4413  -12.3824   19.4466 C   0  0  0  0  0  0
  -29.5103  -12.5071   18.2194 C   0  0  0  0  0  0
  -28.0294  -12.3483   18.6265 C   0  0  0  0  0  0
  -27.6523  -13.2114   19.8599 C   0  0  2  0  0  0
  -28.6958  -13.0450   20.9869 C   0  0  0  0  0  0
  -25.2550  -13.8146   20.5651 C   0  0  0  0  0  0
  -24.1813  -13.0427   20.9193 C   0  0  0  0  0  0
  -24.6376  -11.6902   20.8746 C   0  0  0  0  0  0
  -23.9044  -10.4293   21.0414 C   0  0  0  0  0  0
  -24.3596   -9.4209   21.9184 C   0  0  0  0  0  0
  -23.6282   -8.2236   22.0763 C   0  0  0  0  0  0
  -22.4257   -8.0276   21.3548 C   0  0  0  0  0  0
  -21.9887   -9.0249   20.4652 C   0  0  0  0  0  0
  -22.7216  -10.2117   20.3069 C   0  0  0  0  0  0
  -21.6841   -6.0732   22.5271 C   0  0  0  0  0  0
  -21.4012   -6.5635   23.8208 C   0  0  0  0  0  0
  -21.3673   -5.6783   24.9169 C   0  0  0  0  0  0
  -21.6042   -4.3049   24.7218 C   0  0  0  0  0  0
  -21.8822   -3.8145   23.4342 C   0  0  0  0  0  0
  -21.9186   -4.6961   22.3397 C   0  0  0  0  0  0
  -22.7840  -13.5229   21.1842 C   0  0  0  0  0  0
  -22.1657   -4.2162   21.0978 F   0  0  0  0  0  0
  -21.5630   -3.4529   25.7731 F   0  0  0  0  0  0
  -30.0123  -13.3949   20.4296 N   0  0  0  0  0  0
  -26.2967  -12.9325   20.3268 N   0  0  0  0  0  0
  -25.9299  -11.6479   20.5703 N   0  0  0  0  0  0
  -22.0467  -12.8270   22.0418 N   0  0  0  0  0  0
  -25.4226  -15.1871   20.4036 N   0  0  0  0  0  0
  -31.7684  -14.8071   20.1360 O   0  0  0  0  0  0
  -21.6636   -6.8859   21.4230 O   0  0  0  0  0  0
  -22.3526  -14.5523   20.6658 O   0  0  0  0  0  0
  -24.6241  -31.8624   23.2048 C   0  0  0  0  0  0
  -25.9103  -32.4792   23.8371 C   0  0  1  0  0  0
  -27.2218  -27.3337   20.1190 C   0  0  0  0  0  0
  -25.5930  -33.8599   24.2288 N   0  0  0  0  0  0
  -23.4163  -30.4870   21.5457 C   0  0  2  0  0  0
  -24.8638  -28.9482   20.1086 C   0  0  0  0  0  0
  -22.7471  -29.4627   22.4933 C   0  0  0  0  0  0
  -18.0287  -28.1373   22.8480 C   0  0  0  0  0  0
  -24.1487  -36.7308   23.2634 C   0  0  0  0  0  0
  -25.9570  -30.7970   21.3748 C   0  0  0  0  0  0
  -26.0319  -29.4269   20.7163 C   0  0  0  0  0  0
  -27.2141  -28.6309   20.7127 C   0  0  0  0  0  0
  -26.0324  -26.9104   19.4805 C   0  0  0  0  0  0
  -24.8660  -27.6952   19.4816 C   0  0  0  0  0  0
  -23.6312  -29.8250   20.1591 C   0  0  0  0  0  0
  -25.4106  -36.3092   24.0324 C   0  0  1  0  0  0
  -20.5889  -28.3677   23.1275 C   0  0  2  0  0  0
  -20.6780  -26.9401   22.5406 C   0  0  0  0  0  0
  -19.5755  -26.6369   21.5204 C   0  0  0  0  0  0
  -18.1935  -26.7913   22.1618 C   0  0  0  0  0  0
  -19.1547  -28.8841   23.2870 C   0  0  0  0  0  0
  -18.9470  -30.1446   23.8891 C   0  0  0  0  0  0
  -17.6472  -30.6571   24.0559 C   0  0  0  0  0  0
  -25.9045  -34.9461   23.5095 C   0  0  0  0  0  0
  -16.5357  -29.9073   23.6327 C   0  0  0  0  0  0
  -16.7276  -28.6490   23.0339 C   0  0  0  0  0  0
  -26.4488  -31.6602   25.0734 C   0  0  0  0  0  0
  -25.3733  -31.3757   26.1474 C   0  0  0  0  0  0
  -27.0329  -30.3027   24.6180 C   0  0  0  0  0  0
  -27.6038  -32.4343   25.7517 C   0  0  0  0  0  0
  -27.5576  -37.1802   24.8451 C   0  0  0  0  0  0
  -21.4188  -29.3035   22.3684 N   0  0  0  0  0  0
  -26.4286  -37.3792   23.9412 N   0  0  0  0  0  0
  -24.6842  -31.0649   22.0980 N   0  0  0  0  0  0
  -23.4206  -28.8155   23.2995 O   0  0  0  0  0  0
  -28.3360  -26.4825   20.1794 O   0  0  0  0  0  0
  -26.5606  -34.8922   22.4654 O   0  0  0  0  0  0
  -23.5407  -32.1409   23.7380 O   0  0  0  0  0  0
  -28.6422  -17.8780   20.8537 C   0  0  0  0  0  0
  -28.6291  -19.3047   20.7973 C   0  0  0  0  0  0
  -31.0202  -17.8562   20.4855 C   0  0  0  0  0  0
  -29.8317  -17.1112   20.7041 C   0  0  0  0  0  0
  -29.8230  -20.0445   20.6105 C   0  0  0  0  0  0
  -31.0122  -19.2821   20.4485 C   0  0  0  0  0  0
  -29.2099  -23.9861   20.4602 C   0  0  0  0  0  0
  -28.8048  -22.4462   20.3950 C   0  0  0  0  0  0
  -28.0723  -25.0304   20.1140 C   0  0  0  0  0  0
  -29.7491  -15.6566   20.8134 N   0  0  0  0  0  0
  -29.9131  -21.4753   20.6050 N   0  0  0  0  0  0
  -32.1817  -19.9392   20.2553 F   0  0  0  0  0  0
  -31.4847  -12.5116   19.1519 H   0  0  0  0  0  0
  -30.3770  -11.3838   19.8824 H   0  0  0  0  0  0
  -29.7748  -11.7620   17.4683 H   0  0  0  0  0  0
  -29.6548  -13.4802   17.7465 H   0  0  0  0  0  0
  -27.8598  -11.2943   18.8508 H   0  0  0  0  0  0
  -27.3795  -12.5876   17.7844 H   0  0  0  0  0  0
  -27.6760  -14.2485   19.5268 H   0  0  0  0  0  0
  -28.7036  -12.0175   21.3524 H   0  0  0  0  0  0
  -28.4474  -13.6578   21.8542 H   0  0  0  0  0  0
  -25.2750   -9.5689   22.4740 H   0  0  0  0  0  0
  -24.0015   -7.4622   22.7477 H   0  0  0  0  0  0
  -21.0818   -8.8760   19.8956 H   0  0  0  0  0  0
  -22.3685  -10.9653   19.6181 H   0  0  0  0  0  0
  -21.2015   -7.6145   23.9726 H   0  0  0  0  0  0
  -21.1488   -6.0502   25.9066 H   0  0  0  0  0  0
  -22.0594   -2.7614   23.2817 H   0  0  0  0  0  0
  -22.4056  -11.9964   22.4877 H   0  0  0  0  0  0
  -21.1076  -13.1313   22.2570 H   0  0  0  0  0  0
  -24.6406  -15.8272   20.4965 H   0  0  0  0  0  0
  -26.2412  -15.6221   20.0000 H   0  0  0  0  0  0
  -26.7161  -32.5475   23.1116 H   0  0  0  0  0  0
  -25.0114  -33.9739   25.0458 H   0  0  0  0  0  0
  -22.7076  -31.3062   21.4061 H   0  0  0  0  0  0
  -23.3743  -35.9643   23.3296 H   0  0  0  0  0  0
  -24.3581  -36.8939   22.2049 H   0  0  0  0  0  0
  -23.7241  -37.6505   23.6670 H   0  0  0  0  0  0
  -26.0879  -31.5582   20.6049 H   0  0  0  0  0  0
  -26.8367  -30.8475   22.0041 H   0  0  0  0  0  0
  -28.1080  -28.9901   21.2034 H   0  0  0  0  0  0
  -25.9677  -25.9564   18.9812 H   0  0  0  0  0  0
  -23.9732  -27.3225   18.9987 H   0  0  0  0  0  0
  -23.7503  -30.6020   19.4030 H   0  0  0  0  0  0
  -22.7525  -29.2526   19.8559 H   0  0  0  0  0  0
  -25.1284  -36.1951   25.0812 H   0  0  0  0  0  0
  -20.9977  -28.3257   24.1394 H   0  0  0  0  0  0
  -20.5683  -26.2284   23.3605 H   0  0  0  0  0  0
  -21.6650  -26.7440   22.1208 H   0  0  0  0  0  0
  -19.6920  -25.6280   21.1230 H   0  0  0  0  0  0
  -19.6686  -27.3176   20.6733 H   0  0  0  0  0  0
  -17.4205  -26.6658   21.4020 H   0  0  0  0  0  0
  -18.0344  -26.0063   22.9024 H   0  0  0  0  0  0
  -19.7943  -30.7267   24.2255 H   0  0  0  0  0  0
  -17.5021  -31.6248   24.5160 H   0  0  0  0  0  0
  -15.5363  -30.2965   23.7655 H   0  0  0  0  0  0
  -15.8672  -28.0806   22.7047 H   0  0  0  0  0  0
  -24.5868  -30.7145   25.7810 H   0  0  0  0  0  0
  -24.8972  -32.2945   26.4915 H   0  0  0  0  0  0
  -25.8055  -30.8916   27.0238 H   0  0  0  0  0  0
  -26.2896  -29.6792   24.1190 H   0  0  0  0  0  0
  -27.4021  -29.7272   25.4675 H   0  0  0  0  0  0
  -27.8774  -30.4320   23.9407 H   0  0  0  0  0  0
  -27.2615  -33.3620   26.2114 H   0  0  0  0  0  0
  -28.3837  -32.6943   25.0351 H   0  0  0  0  0  0
  -28.0721  -31.8475   26.5423 H   0  0  0  0  0  0
  -28.2580  -38.0117   24.7520 H   0  0  0  0  0  0
  -28.1090  -36.2646   24.6249 H   0  0  0  0  0  0
  -27.2306  -37.1422   25.8858 H   0  0  0  0  0  0
  -20.9364  -29.8796   21.6931 H   0  0  0  0  0  0
  -26.0166  -38.2862   24.1421 H   0  0  0  0  0  0
  -27.7023  -17.3732   21.0245 H   0  0  0  0  0  0
  -27.6878  -19.8196   20.9273 H   0  0  0  0  0  0
  -31.9642  -17.3518   20.3579 H   0  0  0  0  0  0
  -30.0426  -24.1605   19.7784 H   0  0  0  0  0  0
  -29.5919  -24.2139   21.4565 H   0  0  0  0  0  0
  -28.3618  -22.2396   19.4191 H   0  0  0  0  0  0
  -28.0251  -22.2487   21.1314 H   0  0  0  0  0  0
  -27.2313  -24.8141   20.7764 H   0  0  0  0  0  0
  -27.7457  -24.7895   19.1030 H   0  0  0  0  0  0
  -28.8349  -15.3146   21.0642 H   0  0  0  0  0  0
  -30.8602  -21.8344   20.5057 H   0  0  0  0  0  0
  1 25  1  0  0  0
  1 30  2  0  0  0
  1 80  1  0  0  0
  2  3  1  0  0  0
  2 25  1  0  0  0
  2 83  1  0  0  0
  2 84  1  0  0  0
  3  4  1  0  0  0
  3 85  1  0  0  0
  3 86  1  0  0  0
  4  5  1  0  0  0
  4 87  1  0  0  0
  4 88  1  0  0  0
  5  6  1  0  0  0
  5 26  1  0  0  0
  5 89  1  0  0  0
  6 25  1  0  0  0
  6 90  1  0  0  0
  6 91  1  0  0  0
  7  8  2  0  0  0
  7 26  1  0  0  0
  7 29  1  0  0  0
  8  9  1  0  0  0
  8 22  1  0  0  0
  9 10  1  0  0  0
  9 27  2  0  0  0
 10 11  2  0  0  0
 10 15  1  0  0  0
 11 12  1  0  0  0
 11 92  1  0  0  0
 12 13  2  0  0  0
 12 93  1  0  0  0
 13 14  1  0  0  0
 13 31  1  0  0  0
 14 15  2  0  0  0
 14 94  1  0  0  0
 15 95  1  0  0  0
 16 17  2  0  0  0
 16 21  1  0  0  0
 16 31  1  0  0  0
 17 18  1  0  0  0
 17 96  1  0  0  0
 18 19  2  0  0  0
 18 97  1  0  0  0
 19 20  1  0  0  0
 19 24  1  0  0  0
 20 21  2  0  0  0
 20 98  1  0  0  0
 21 23  1  0  0  0
 22 28  1  0  0  0
 22 32  2  0  0  0
 26 27  1  0  0  0
 28 99  1  0  0  0
 28100  1  0  0  0
 29101  1  0  0  0
 29102  1  0  0  0
 33 34  1  0  0  0
 33 66  1  0  0  0
 33 70  2  0  0  0
 34 36  1  0  0  0
 34 59  1  0  0  0
 34103  1  0  0  0
 35 44  2  0  0  0
 35 45  1  0  0  0
 35 68  1  0  0  0
 36 56  1  0  0  0
 36104  1  0  0  0
 37 39  1  0  0  0
 37 47  1  0  0  0
 37 66  1  0  0  0
 37105  1  0  0  0
 38 43  2  0  0  0
 38 46  1  0  0  0
 38 47  1  0  0  0
 39 64  1  0  0  0
 39 67  2  0  0  0
 40 52  1  0  0  0
 40 53  2  0  0  0
 40 58  1  0  0  0
 41106  1  0  0  0
 41107  1  0  0  0
 41108  1  0  0  0
 41 48  1  0  0  0
 42 43  1  0  0  0
 42 66  1  0  0  0
 42109  1  0  0  0
 42110  1  0  0  0
 43 44  1  0  0  0
 44111  1  0  0  0
 45 46  2  0  0  0
 45112  1  0  0  0
 46113  1  0  0  0
 47114  1  0  0  0
 47115  1  0  0  0
 48 56  1  0  0  0
 48 65  1  0  0  0
 48116  1  0  0  0
 49 50  1  0  0  0
 49 53  1  0  0  0
 49 64  1  0  0  0
 49117  1  0  0  0
 50 51  1  0  0  0
 50118  1  0  0  0
 50119  1  0  0  0
 51 52  1  0  0  0
 51120  1  0  0  0
 51121  1  0  0  0
 52122  1  0  0  0
 52123  1  0  0  0
 53 54  1  0  0  0
 54 55  2  0  0  0
 54124  1  0  0  0
 55 57  1  0  0  0
 55125  1  0  0  0
 56 69  2  0  0  0
 57 58  2  0  0  0
 57126  1  0  0  0
 58127  1  0  0  0
 59 60  1  0  0  0
 59 61  1  0  0  0
 59 62  1  0  0  0
 60128  1  0  0  0
 60129  1  0  0  0
 60130  1  0  0  0
 61131  1  0  0  0
 61132  1  0  0  0
 61133  1  0  0  0
 62134  1  0  0  0
 62135  1  0  0  0
 62136  1  0  0  0
 63 65  1  0  0  0
 63137  1  0  0  0
 63138  1  0  0  0
 63139  1  0  0  0
 64140  1  0  0  0
 65141  1  0  0  0
 68 79  1  0  0  0
 71 72  2  0  0  0
 71 74  1  0  0  0
 71142  1  0  0  0
 72 75  1  0  0  0
 72143  1  0  0  0
 73 74  2  0  0  0
 73 76  1  0  0  0
 73144  1  0  0  0
 74 80  1  0  0  0
 75 76  2  0  0  0
 75 81  1  0  0  0
 76 82  1  0  0  0
 77 78  1  0  0  0
 77 79  1  0  0  0
 77145  1  0  0  0
 77146  1  0  0  0
 78 81  1  0  0  0
 78147  1  0  0  0
 78148  1  0  0  0
 79149  1  0  0  0
 79150  1  0  0  0
 80151  1  0  0  0
 81152  1  0  0  0
M  ISO  4   1 100  68 101  79 101  80 100
M  END
> <chiral flag>
0

> <version>
0

> <s_m_source_file>
/data/baiqing/PycharmProjects/Reinvent-master-3.2/result/LINK_invent/BTK/process_docking_weight1_custom_sum_contain_oxygen_bond_distance_aromatic_linkinvent_7_9_3/rearranged_h_0011.sdf

> <i_m_source_file_index>
12

> <r_mmod_Potential_Energy-OPLS-2005>
58.7932014465332

> <r_mmod_Stretch_Energy-OPLS-2005>
70.3346176147461

> <r_mmod_Bend_Energy-OPLS-2005>
142.606964111328

> <r_mmod_Torsional_Energy-OPLS-2005>
202.512619018555

> <r_mmod_Improper_Torsional_Energy-OPLS-2005>
5.64249610900879

> <r_mmod_Van_der_Waal_Energy-OPLS-2005>
146.385101318359

> <r_mmod_Electrostatic_Energy-OPLS-2005>
-340.856323242188

> <r_mmod_Solvation_Energy-OPLS-2005>
-213.716110229492

> <b_mmod_Minimization_Converged-OPLS-2005>
0

> <r_mmod_RMS_Derivative-OPLS-2005>
2.849365234375

$$$$
12
                    3D
 Structure written by MMmdl.
151159  0  0  1  0            999 V2000
  -30.5438  -14.9795   20.3489 C   0  0  0  0  0  0
  -30.4456  -12.5935   19.4765 C   0  0  0  0  0  0
  -29.5097  -12.4265   18.2534 C   0  0  0  0  0  0
  -28.0421  -12.2679   18.6876 C   0  0  0  0  0  0
  -27.6239  -13.2400   19.8223 C   0  0  2  0  0  0
  -28.6787  -13.3174   20.9434 C   0  0  0  0  0  0
  -25.2482  -13.8218   20.5744 C   0  0  0  0  0  0
  -24.1780  -13.0453   20.9244 C   0  0  0  0  0  0
  -24.6381  -11.6933   20.8789 C   0  0  0  0  0  0
  -23.9067  -10.4301   21.0427 C   0  0  0  0  0  0
  -24.3619   -9.4209   21.9196 C   0  0  0  0  0  0
  -23.6296   -8.2243   22.0757 C   0  0  0  0  0  0
  -22.4279   -8.0283   21.3545 C   0  0  0  0  0  0
  -21.9917   -9.0259   20.4649 C   0  0  0  0  0  0
  -22.7244  -10.2140   20.3068 C   0  0  0  0  0  0
  -21.6853   -6.0737   22.5278 C   0  0  0  0  0  0
  -21.4014   -6.5641   23.8211 C   0  0  0  0  0  0
  -21.3659   -5.6794   24.9174 C   0  0  0  0  0  0
  -21.6043   -4.3057   24.7225 C   0  0  0  0  0  0
  -21.8819   -3.8149   23.4346 C   0  0  0  0  0  0
  -21.9192   -4.6965   22.3402 C   0  0  0  0  0  0
  -22.7800  -13.5226   21.1883 C   0  0  0  0  0  0
  -22.1662   -4.2150   21.0980 F   0  0  0  0  0  0
  -21.5628   -3.4541   25.7738 F   0  0  0  0  0  0
  -29.9355  -13.7227   20.3023 N   0  0  0  0  0  0
  -26.2885  -12.9428   20.3272 N   0  0  0  0  0  0
  -25.9312  -11.6572   20.5810 N   0  0  0  0  0  0
  -22.0445  -12.8213   22.0434 N   0  0  0  0  0  0
  -25.4197  -15.1942   20.4175 N   0  0  0  0  0  0
  -31.7801  -14.9880   20.3116 O   0  0  0  0  0  0
  -21.6642   -6.8880   21.4240 O   0  0  0  0  0  0
  -22.3486  -14.5528   20.6721 O   0  0  0  0  0  0
  -24.6429  -31.8443   23.1878 C   0  0  0  0  0  0
  -25.9201  -32.4697   23.8270 C   0  0  1  0  0  0
  -27.2173  -27.1403   20.1638 C   0  0  0  0  0  0
  -25.5950  -33.8502   24.2189 N   0  0  0  0  0  0
  -23.4467  -30.4624   21.5334 C   0  0  2  0  0  0
  -24.8970  -28.8851   20.1154 C   0  0  0  0  0  0
  -22.7565  -29.4547   22.4865 C   0  0  0  0  0  0
  -18.0304  -28.1395   22.8477 C   0  0  0  0  0  0
  -24.1491  -36.7257   23.2643 C   0  0  0  0  0  0
  -26.0017  -30.7205   21.3848 C   0  0  0  0  0  0
  -26.0746  -29.3300   20.7312 C   0  0  0  0  0  0
  -27.2397  -28.4753   20.7336 C   0  0  0  0  0  0
  -26.0163  -26.7912   19.5131 C   0  0  0  0  0  0
  -24.8798  -27.6286   19.4900 C   0  0  0  0  0  0
  -23.6738  -29.7882   20.1542 C   0  0  0  0  0  0
  -25.4124  -36.3034   24.0316 C   0  0  1  0  0  0
  -20.5916  -28.3721   23.1238 C   0  0  2  0  0  0
  -20.6788  -26.9425   22.5405 C   0  0  0  0  0  0
  -19.5762  -26.6381   21.5213 C   0  0  0  0  0  0
  -18.1943  -26.7933   22.1624 C   0  0  0  0  0  0
  -19.1560  -28.8876   23.2849 C   0  0  0  0  0  0
  -18.9477  -30.1472   23.8875 C   0  0  0  0  0  0
  -17.6474  -30.6592   24.0559 C   0  0  0  0  0  0
  -25.9073  -34.9408   23.5062 C   0  0  0  0  0  0
  -16.5364  -29.9085   23.6337 C   0  0  0  0  0  0
  -16.7288  -28.6503   23.0358 C   0  0  0  0  0  0
  -26.4525  -31.6564   25.0711 C   0  0  0  0  0  0
  -25.3711  -31.3750   26.1406 C   0  0  0  0  0  0
  -27.0393  -30.2963   24.6287 C   0  0  0  0  0  0
  -27.6053  -32.4332   25.7499 C   0  0  0  0  0  0
  -27.5574  -37.1787   24.8467 C   0  0  0  0  0  0
  -21.4258  -29.3047   22.3612 N   0  0  0  0  0  0
  -26.4288  -37.3745   23.9406 N   0  0  0  0  0  0
  -24.7169  -31.0303   22.0907 N   0  0  0  0  0  0
  -23.4208  -28.8099   23.3018 O   0  0  0  0  0  0
  -28.2699  -26.1593   20.1737 O   0  0  0  0  0  0
  -26.5660  -34.8906   22.4642 O   0  0  0  0  0  0
  -23.5549  -32.1314   23.7102 O   0  0  0  0  0  0
  -28.7441  -19.9138   19.3391 C   0  0  0  0  0  0
  -28.9641  -18.4893   19.1710 C   0  0  0  0  0  0
  -29.7300  -19.7518   21.4645 C   0  0  0  0  0  0
  -29.1158  -20.6467   20.5048 C   0  0  0  0  0  0
  -29.6212  -17.5887   20.1010 C   0  0  0  0  0  0
  -29.9812  -18.3194   21.2843 C   0  0  0  0  0  0
  -28.6134  -23.3267   20.0580 C   0  0  0  0  0  0
  -29.8421  -15.8910   18.2892 C   0  0  0  0  0  0
  -28.0217  -24.7270   20.7281 C   0  0  0  0  0  0
  -28.7951  -22.1242   20.7945 N   0  0  0  0  0  0
  -29.8573  -16.0913   19.7560 N   0  0  0  0  0  0
  -28.8853  -23.3440   18.8546 O   0  0  0  0  0  0
  -30.5845  -17.6417   22.2905 F   0  0  0  0  0  0
  -31.4669  -12.7732   19.1365 H   0  0  0  0  0  0
  -30.4810  -11.6762   20.0662 H   0  0  0  0  0  0
  -29.8148  -11.5526   17.6762 H   0  0  0  0  0  0
  -29.5904  -13.2610   17.5635 H   0  0  0  0  0  0
  -27.9273  -11.2394   19.0316 H   0  0  0  0  0  0
  -27.3772  -12.3739   17.8296 H   0  0  0  0  0  0
  -27.5706  -14.2257   19.3611 H   0  0  0  0  0  0
  -28.7831  -12.3630   21.4613 H   0  0  0  0  0  0
  -28.3854  -14.0553   21.6921 H   0  0  0  0  0  0
  -25.2761   -9.5685   22.4777 H   0  0  0  0  0  0
  -24.0004   -7.4632   22.7474 H   0  0  0  0  0  0
  -21.0849   -8.8781   19.8952 H   0  0  0  0  0  0
  -22.3702  -10.9684   19.6182 H   0  0  0  0  0  0
  -21.2008   -7.6150   23.9715 H   0  0  0  0  0  0
  -21.1480   -6.0525   25.9076 H   0  0  0  0  0  0
  -22.0598   -2.7611   23.2846 H   0  0  0  0  0  0
  -22.4067  -11.9877   22.4825 H   0  0  0  0  0  0
  -21.1060  -13.1230   22.2635 H   0  0  0  0  0  0
  -24.6589  -15.8534   20.5402 H   0  0  0  0  0  0
  -26.2817  -15.6341   20.1204 H   0  0  0  0  0  0
  -26.7268  -32.5309   23.1001 H   0  0  0  0  0  0
  -25.0075  -33.9617   25.0322 H   0  0  0  0  0  0
  -22.7490  -31.2878   21.3771 H   0  0  0  0  0  0
  -23.3756  -35.9587   23.3299 H   0  0  0  0  0  0
  -24.3574  -36.8896   22.2059 H   0  0  0  0  0  0
  -23.7246  -37.6451   23.6685 H   0  0  0  0  0  0
  -26.1543  -31.4730   20.6099 H   0  0  0  0  0  0
  -26.8731  -30.7740   22.0258 H   0  0  0  0  0  0
  -28.1414  -28.8147   21.2239 H   0  0  0  0  0  0
  -25.9438  -25.8270   19.0299 H   0  0  0  0  0  0
  -23.9817  -27.2834   18.9963 H   0  0  0  0  0  0
  -23.8114  -30.5606   19.3967 H   0  0  0  0  0  0
  -22.7888  -29.2297   19.8441 H   0  0  0  0  0  0
  -25.1313  -36.1862   25.0809 H   0  0  0  0  0  0
  -21.0006  -28.3310   24.1360 H   0  0  0  0  0  0
  -20.5683  -26.2334   23.3623 H   0  0  0  0  0  0
  -21.6654  -26.7432   22.1202 H   0  0  0  0  0  0
  -19.6924  -25.6287   21.1257 H   0  0  0  0  0  0
  -19.6699  -27.3180   20.6733 H   0  0  0  0  0  0
  -17.4212  -26.6677   21.4028 H   0  0  0  0  0  0
  -18.0342  -26.0080   22.9026 H   0  0  0  0  0  0
  -19.7952  -30.7293   24.2235 H   0  0  0  0  0  0
  -17.5027  -31.6270   24.5164 H   0  0  0  0  0  0
  -15.5364  -30.2979   23.7673 H   0  0  0  0  0  0
  -15.8688  -28.0813   22.7087 H   0  0  0  0  0  0
  -24.5897  -30.7091   25.7725 H   0  0  0  0  0  0
  -24.8891  -32.2930   26.4779 H   0  0  0  0  0  0
  -25.7994  -30.8958   27.0219 H   0  0  0  0  0  0
  -26.3010  -29.6682   24.1287 H   0  0  0  0  0  0
  -27.4004  -29.7265   25.4858 H   0  0  0  0  0  0
  -27.8916  -30.4203   23.9603 H   0  0  0  0  0  0
  -27.2644  -33.3652   26.2020 H   0  0  0  0  0  0
  -28.3893  -32.6862   25.0349 H   0  0  0  0  0  0
  -28.0688  -31.8495   26.5463 H   0  0  0  0  0  0
  -28.2590  -38.0084   24.7502 H   0  0  0  0  0  0
  -28.1070  -36.2612   24.6310 H   0  0  0  0  0  0
  -27.2288  -37.1453   25.8869 H   0  0  0  0  0  0
  -20.9470  -29.8755   21.6786 H   0  0  0  0  0  0
  -26.0155  -38.2815   24.1402 H   0  0  0  0  0  0
  -28.2349  -20.4432   18.5458 H   0  0  0  0  0  0
  -28.5798  -18.0917   18.2444 H   0  0  0  0  0  0
  -30.0353  -20.1745   22.4102 H   0  0  0  0  0  0
  -28.8366  -15.6614   17.9364 H   0  0  0  0  0  0
  -30.5172  -15.1130   17.9311 H   0  0  0  0  0  0
  -30.2073  -16.7646   17.7501 H   0  0  0  0  0  0
  -28.3830  -24.7444   21.7563 H   0  0  0  0  0  0
  -26.9461  -24.5767   20.8198 H   0  0  0  0  0  0
  -28.6718  -22.3034   21.7825 H   0  0  0  0  0  0
  1 25  1  0  0  0
  1 30  2  0  0  0
  1 81  1  0  0  0
  2  3  1  0  0  0
  2 25  1  0  0  0
  2 84  1  0  0  0
  2 85  1  0  0  0
  3  4  1  0  0  0
  3 86  1  0  0  0
  3 87  1  0  0  0
  4  5  1  0  0  0
  4 88  1  0  0  0
  4 89  1  0  0  0
  5  6  1  0  0  0
  5 26  1  0  0  0
  5 90  1  0  0  0
  6 25  1  0  0  0
  6 91  1  0  0  0
  6 92  1  0  0  0
  7  8  2  0  0  0
  7 26  1  0  0  0
  7 29  1  0  0  0
  8  9  1  0  0  0
  8 22  1  0  0  0
  9 10  1  0  0  0
  9 27  2  0  0  0
 10 11  2  0  0  0
 10 15  1  0  0  0
 11 12  1  0  0  0
 11 93  1  0  0  0
 12 13  2  0  0  0
 12 94  1  0  0  0
 13 14  1  0  0  0
 13 31  1  0  0  0
 14 15  2  0  0  0
 14 95  1  0  0  0
 15 96  1  0  0  0
 16 17  2  0  0  0
 16 21  1  0  0  0
 16 31  1  0  0  0
 17 18  1  0  0  0
 17 97  1  0  0  0
 18 19  2  0  0  0
 18 98  1  0  0  0
 19 20  1  0  0  0
 19 24  1  0  0  0
 20 21  2  0  0  0
 20 99  1  0  0  0
 21 23  1  0  0  0
 22 28  1  0  0  0
 22 32  2  0  0  0
 26 27  1  0  0  0
 28100  1  0  0  0
 28101  1  0  0  0
 29102  1  0  0  0
 29103  1  0  0  0
 33 34  1  0  0  0
 33 66  1  0  0  0
 33 70  2  0  0  0
 34 36  1  0  0  0
 34 59  1  0  0  0
 34104  1  0  0  0
 35 44  2  0  0  0
 35 45  1  0  0  0
 35 68  1  0  0  0
 36 56  1  0  0  0
 36105  1  0  0  0
 37 39  1  0  0  0
 37 47  1  0  0  0
 37 66  1  0  0  0
 37106  1  0  0  0
 38 43  2  0  0  0
 38 46  1  0  0  0
 38 47  1  0  0  0
 39 64  1  0  0  0
 39 67  2  0  0  0
 40 52  1  0  0  0
 40 53  2  0  0  0
 40 58  1  0  0  0
 41107  1  0  0  0
 41108  1  0  0  0
 41109  1  0  0  0
 41 48  1  0  0  0
 42 43  1  0  0  0
 42 66  1  0  0  0
 42110  1  0  0  0
 42111  1  0  0  0
 43 44  1  0  0  0
 44112  1  0  0  0
 45 46  2  0  0  0
 45113  1  0  0  0
 46114  1  0  0  0
 47115  1  0  0  0
 47116  1  0  0  0
 48 56  1  0  0  0
 48 65  1  0  0  0
 48117  1  0  0  0
 49 50  1  0  0  0
 49 53  1  0  0  0
 49 64  1  0  0  0
 49118  1  0  0  0
 50 51  1  0  0  0
 50119  1  0  0  0
 50120  1  0  0  0
 51 52  1  0  0  0
 51121  1  0  0  0
 51122  1  0  0  0
 52123  1  0  0  0
 52124  1  0  0  0
 53 54  1  0  0  0
 54 55  2  0  0  0
 54125  1  0  0  0
 55 57  1  0  0  0
 55126  1  0  0  0
 56 69  2  0  0  0
 57 58  2  0  0  0
 57127  1  0  0  0
 58128  1  0  0  0
 59 60  1  0  0  0
 59 61  1  0  0  0
 59 62  1  0  0  0
 60129  1  0  0  0
 60130  1  0  0  0
 60131  1  0  0  0
 61132  1  0  0  0
 61133  1  0  0  0
 61134  1  0  0  0
 62135  1  0  0  0
 62136  1  0  0  0
 62137  1  0  0  0
 63 65  1  0  0  0
 63138  1  0  0  0
 63139  1  0  0  0
 63140  1  0  0  0
 64141  1  0  0  0
 65142  1  0  0  0
 68 79  1  0  0  0
 71 72  2  0  0  0
 71 74  1  0  0  0
 71143  1  0  0  0
 72 75  1  0  0  0
 72144  1  0  0  0
 73 74  2  0  0  0
 73 76  1  0  0  0
 73145  1  0  0  0
 74 80  1  0  0  0
 75 76  2  0  0  0
 75 81  1  0  0  0
 76 83  1  0  0  0
 77 79  1  0  0  0
 77 80  1  0  0  0
 77 82  2  0  0  0
 78 81  1  0  0  0
 78146  1  0  0  0
 78147  1  0  0  0
 78148  1  0  0  0
 79149  1  0  0  0
 79150  1  0  0  0
 80151  1  0  0  0
M  ISO  4   1 100  68 101  79 101  81 100
M  END
> <chiral flag>
0

> <version>
0

> <s_m_source_file>
/data/baiqing/PycharmProjects/Reinvent-master-3.2/result/LINK_invent/BTK/process_docking_weight1_custom_sum_contain_oxygen_bond_distance_aromatic_linkinvent_7_9_3/rearranged_h_0011.sdf

> <i_m_source_file_index>
13

> <r_mmod_Potential_Energy-OPLS-2005>
671.59375

> <r_mmod_Stretch_Energy-OPLS-2005>
241.047439575195

> <r_mmod_Bend_Energy-OPLS-2005>
272.416259765625

> <r_mmod_Torsional_Energy-OPLS-2005>
327.853332519531

> <r_mmod_Improper_Torsional_Energy-OPLS-2005>
29.0126113891602

> <r_mmod_Van_der_Waal_Energy-OPLS-2005>
141.913818359375

> <r_mmod_Electrostatic_Energy-OPLS-2005>
-323.514099121094

> <r_mmod_Solvation_Energy-OPLS-2005>
-228.926620483398

> <b_mmod_Minimization_Converged-OPLS-2005>
0

> <r_mmod_RMS_Derivative-OPLS-2005>
0.13811382651329

$$$$
13
                    3D
 Structure written by MMmdl.
148156  0  0  1  0            999 V2000
  -30.5122  -14.9218   20.4210 C   0  0  0  0  0  0
  -30.4531  -12.5665   19.4870 C   0  0  0  0  0  0
  -29.5248  -12.5329   18.2489 C   0  0  0  0  0  0
  -28.0554  -12.3215   18.6638 C   0  0  0  0  0  0
  -27.6372  -13.2379   19.8425 C   0  0  2  0  0  0
  -28.6832  -13.2237   20.9788 C   0  0  0  0  0  0
  -25.2494  -13.8187   20.5681 C   0  0  0  0  0  0
  -24.1803  -13.0433   20.9229 C   0  0  0  0  0  0
  -24.6403  -11.6915   20.8752 C   0  0  0  0  0  0
  -23.9077  -10.4290   21.0406 C   0  0  0  0  0  0
  -24.3623   -9.4205   21.9184 C   0  0  0  0  0  0
  -23.6292   -8.2244   22.0754 C   0  0  0  0  0  0
  -22.4273   -8.0285   21.3544 C   0  0  0  0  0  0
  -21.9912   -9.0261   20.4649 C   0  0  0  0  0  0
  -22.7246  -10.2135   20.3058 C   0  0  0  0  0  0
  -21.6854   -6.0731   22.5275 C   0  0  0  0  0  0
  -21.4015   -6.5633   23.8208 C   0  0  0  0  0  0
  -21.3662   -5.6786   24.9171 C   0  0  0  0  0  0
  -21.6044   -4.3049   24.7222 C   0  0  0  0  0  0
  -21.8820   -3.8140   23.4345 C   0  0  0  0  0  0
  -21.9192   -4.6957   22.3399 C   0  0  0  0  0  0
  -22.7822  -13.5216   21.1875 C   0  0  0  0  0  0
  -22.1662   -4.2142   21.0977 F   0  0  0  0  0  0
  -21.5629   -3.4536   25.7739 F   0  0  0  0  0  0
  -29.9663  -13.6413   20.3934 N   0  0  0  0  0  0
  -26.2920  -12.9402   20.3233 N   0  0  0  0  0  0
  -25.9333  -11.6544   20.5726 N   0  0  0  0  0  0
  -22.0461  -12.8217   22.0433 N   0  0  0  0  0  0
  -25.4154  -15.1905   20.4032 N   0  0  0  0  0  0
  -31.7048  -15.0554   20.1240 O   0  0  0  0  0  0
  -21.6639   -6.8880   21.4240 O   0  0  0  0  0  0
  -22.3514  -14.5518   20.6710 O   0  0  0  0  0  0
  -24.6443  -31.8448   23.1896 C   0  0  0  0  0  0
  -25.9216  -32.4698   23.8287 C   0  0  1  0  0  0
  -27.2194  -27.1412   20.1396 C   0  0  0  0  0  0
  -25.5963  -33.8505   24.2200 N   0  0  0  0  0  0
  -23.4478  -30.4658   21.5355 C   0  0  2  0  0  0
  -24.8972  -28.8971   20.1102 C   0  0  0  0  0  0
  -22.7577  -29.4550   22.4860 C   0  0  0  0  0  0
  -18.0311  -28.1393   22.8478 C   0  0  0  0  0  0
  -24.1495  -36.7256   23.2642 C   0  0  0  0  0  0
  -26.0052  -30.7192   21.3896 C   0  0  0  0  0  0
  -26.0767  -29.3319   20.7282 C   0  0  0  0  0  0
  -27.2386  -28.4703   20.7274 C   0  0  0  0  0  0
  -26.0107  -26.8123   19.4826 C   0  0  0  0  0  0
  -24.8768  -27.6494   19.4737 C   0  0  0  0  0  0
  -23.6743  -29.7989   20.1540 C   0  0  0  0  0  0
  -25.4127  -36.3034   24.0315 C   0  0  1  0  0  0
  -20.5925  -28.3720   23.1235 C   0  0  2  0  0  0
  -20.6794  -26.9423   22.5404 C   0  0  0  0  0  0
  -19.5763  -26.6377   21.5215 C   0  0  0  0  0  0
  -18.1947  -26.7930   22.1628 C   0  0  0  0  0  0
  -19.1569  -28.8877   23.2847 C   0  0  0  0  0  0
  -18.9480  -30.1472   23.8872 C   0  0  0  0  0  0
  -17.6474  -30.6587   24.0560 C   0  0  0  0  0  0
  -25.9076  -34.9406   23.5066 C   0  0  0  0  0  0
  -16.5368  -29.9079   23.6333 C   0  0  0  0  0  0
  -16.7296  -28.6499   23.0353 C   0  0  0  0  0  0
  -26.4529  -31.6564   25.0728 C   0  0  0  0  0  0
  -25.3706  -31.3765   26.1420 C   0  0  0  0  0  0
  -27.0385  -30.2951   24.6320 C   0  0  0  0  0  0
  -27.6061  -32.4328   25.7511 C   0  0  0  0  0  0
  -27.5573  -37.1796   24.8471 C   0  0  0  0  0  0
  -21.4268  -29.3048   22.3606 N   0  0  0  0  0  0
  -26.4295  -37.3739   23.9395 N   0  0  0  0  0  0
  -24.7189  -31.0306   22.0930 N   0  0  0  0  0  0
  -23.4222  -28.8090   23.3003 O   0  0  0  0  0  0
  -28.2628  -26.1435   20.2061 O   0  0  0  0  0  0
  -26.5660  -34.8903   22.4643 O   0  0  0  0  0  0
  -23.5560  -32.1329   23.7109 O   0  0  0  0  0  0
  -30.5556  -18.5556   20.3651 C   0  0  0  0  0  0
  -30.2820  -19.9982   20.2907 C   0  0  0  0  0  0
  -28.2396  -18.1427   20.4896 C   0  0  0  0  0  0
  -29.5376  -17.5370   20.4734 C   0  0  0  0  0  0
  -28.9593  -20.5786   20.3041 C   0  0  0  0  0  0
  -27.9644  -19.5572   20.3992 C   0  0  0  0  0  0
  -28.9304  -23.3609   20.2667 C   0  0  0  0  0  0
  -27.9099  -24.6404   20.0006 C   0  0  0  0  0  0
  -28.4680  -22.0258   20.1786 N   0  0  0  0  0  0
  -29.6243  -16.0086   20.6072 N   0  0  0  0  0  0
  -30.1122  -23.5927   20.5350 O   0  0  0  0  0  0
  -26.6671  -19.9507   20.4038 F   0  0  0  0  0  0
  -31.4844  -12.7383   19.1752 H   0  0  0  0  0  0
  -30.4520  -11.6030   19.9989 H   0  0  0  0  0  0
  -29.8366  -11.7451   17.5617 H   0  0  0  0  0  0
  -29.6166  -13.4710   17.6997 H   0  0  0  0  0  0
  -27.9406  -11.2757   18.9515 H   0  0  0  0  0  0
  -27.3953  -12.4769   17.8097 H   0  0  0  0  0  0
  -27.6101  -14.2476   19.4324 H   0  0  0  0  0  0
  -28.7617  -12.2309   21.4245 H   0  0  0  0  0  0
  -28.3859  -13.8962   21.7849 H   0  0  0  0  0  0
  -25.2767   -9.5674   22.4762 H   0  0  0  0  0  0
  -23.9995   -7.4633   22.7476 H   0  0  0  0  0  0
  -21.0839   -8.8784   19.8959 H   0  0  0  0  0  0
  -22.3705  -10.9676   19.6171 H   0  0  0  0  0  0
  -21.2010   -7.6141   23.9709 H   0  0  0  0  0  0
  -21.1483   -6.0517   25.9072 H   0  0  0  0  0  0
  -22.0596   -2.7603   23.2848 H   0  0  0  0  0  0
  -22.4073  -11.9888   22.4838 H   0  0  0  0  0  0
  -21.1080  -13.1251   22.2629 H   0  0  0  0  0  0
  -24.6299  -15.8279   20.4806 H   0  0  0  0  0  0
  -26.2201  -15.6099   19.9582 H   0  0  0  0  0  0
  -26.7284  -32.5304   23.1019 H   0  0  0  0  0  0
  -25.0087  -33.9620   25.0332 H   0  0  0  0  0  0
  -22.7507  -31.2922   21.3828 H   0  0  0  0  0  0
  -23.3749  -35.9597   23.3319 H   0  0  0  0  0  0
  -24.3573  -36.8871   22.2053 H   0  0  0  0  0  0
  -23.7267  -37.6465   23.6669 H   0  0  0  0  0  0
  -26.1638  -31.4760   20.6202 H   0  0  0  0  0  0
  -26.8746  -30.7664   22.0337 H   0  0  0  0  0  0
  -28.1353  -28.7977   21.2346 H   0  0  0  0  0  0
  -25.8960  -25.8642   18.9812 H   0  0  0  0  0  0
  -23.9771  -27.3112   18.9782 H   0  0  0  0  0  0
  -23.8123  -30.5751   19.4004 H   0  0  0  0  0  0
  -22.7889  -29.2427   19.8418 H   0  0  0  0  0  0
  -25.1316  -36.1868   25.0809 H   0  0  0  0  0  0
  -21.0023  -28.3313   24.1353 H   0  0  0  0  0  0
  -20.5685  -26.2336   23.3623 H   0  0  0  0  0  0
  -21.6660  -26.7422   22.1202 H   0  0  0  0  0  0
  -19.6920  -25.6282   21.1257 H   0  0  0  0  0  0
  -19.6691  -27.3176   20.6736 H   0  0  0  0  0  0
  -17.4212  -26.6677   21.4036 H   0  0  0  0  0  0
  -18.0343  -26.0079   22.9031 H   0  0  0  0  0  0
  -19.7955  -30.7300   24.2228 H   0  0  0  0  0  0
  -17.5024  -31.6263   24.5165 H   0  0  0  0  0  0
  -15.5366  -30.2968   23.7664 H   0  0  0  0  0  0
  -15.8700  -28.0805   22.7076 H   0  0  0  0  0  0
  -24.5890  -30.7107   25.7742 H   0  0  0  0  0  0
  -24.8890  -32.2951   26.4780 H   0  0  0  0  0  0
  -25.7980  -30.8981   27.0239 H   0  0  0  0  0  0
  -26.3004  -29.6679   24.1307 H   0  0  0  0  0  0
  -27.3959  -29.7249   25.4905 H   0  0  0  0  0  0
  -27.8931  -30.4168   23.9663 H   0  0  0  0  0  0
  -27.2655  -33.3642   26.2046 H   0  0  0  0  0  0
  -28.3893  -32.6869   25.0356 H   0  0  0  0  0  0
  -28.0707  -31.8484   26.5461 H   0  0  0  0  0  0
  -28.2614  -38.0066   24.7468 H   0  0  0  0  0  0
  -28.1045  -36.2596   24.6362 H   0  0  0  0  0  0
  -27.2283  -37.1523   25.8873 H   0  0  0  0  0  0
  -20.9479  -29.8766   21.6786 H   0  0  0  0  0  0
  -26.0164  -38.2816   24.1359 H   0  0  0  0  0  0
  -31.5893  -18.2394   20.3456 H   0  0  0  0  0  0
  -31.1257  -20.6684   20.2073 H   0  0  0  0  0  0
  -27.3790  -17.4966   20.5727 H   0  0  0  0  0  0
  -27.0217  -24.4352   20.5988 H   0  0  0  0  0  0
  -27.6067  -24.5279   18.9598 H   0  0  0  0  0  0
  -27.4699  -22.0293   20.0105 H   0  0  0  0  0  0
  -28.7206  -15.6158   20.8204 H   0  0  0  0  0  0
  1 25  1  0  0  0
  1 30  2  0  0  0
  1 80  1  0  0  0
  2  3  1  0  0  0
  2 25  1  0  0  0
  2 83  1  0  0  0
  2 84  1  0  0  0
  3  4  1  0  0  0
  3 85  1  0  0  0
  3 86  1  0  0  0
  4  5  1  0  0  0
  4 87  1  0  0  0
  4 88  1  0  0  0
  5  6  1  0  0  0
  5 26  1  0  0  0
  5 89  1  0  0  0
  6 25  1  0  0  0
  6 90  1  0  0  0
  6 91  1  0  0  0
  7  8  2  0  0  0
  7 26  1  0  0  0
  7 29  1  0  0  0
  8  9  1  0  0  0
  8 22  1  0  0  0
  9 10  1  0  0  0
  9 27  2  0  0  0
 10 11  2  0  0  0
 10 15  1  0  0  0
 11 12  1  0  0  0
 11 92  1  0  0  0
 12 13  2  0  0  0
 12 93  1  0  0  0
 13 14  1  0  0  0
 13 31  1  0  0  0
 14 15  2  0  0  0
 14 94  1  0  0  0
 15 95  1  0  0  0
 16 17  2  0  0  0
 16 21  1  0  0  0
 16 31  1  0  0  0
 17 18  1  0  0  0
 17 96  1  0  0  0
 18 19  2  0  0  0
 18 97  1  0  0  0
 19 20  1  0  0  0
 19 24  1  0  0  0
 20 21  2  0  0  0
 20 98  1  0  0  0
 21 23  1  0  0  0
 22 28  1  0  0  0
 22 32  2  0  0  0
 26 27  1  0  0  0
 28 99  1  0  0  0
 28100  1  0  0  0
 29101  1  0  0  0
 29102  1  0  0  0
 33 34  1  0  0  0
 33 66  1  0  0  0
 33 70  2  0  0  0
 34 36  1  0  0  0
 34 59  1  0  0  0
 34103  1  0  0  0
 35 44  2  0  0  0
 35 45  1  0  0  0
 35 68  1  0  0  0
 36 56  1  0  0  0
 36104  1  0  0  0
 37 39  1  0  0  0
 37 47  1  0  0  0
 37 66  1  0  0  0
 37105  1  0  0  0
 38 43  2  0  0  0
 38 46  1  0  0  0
 38 47  1  0  0  0
 39 64  1  0  0  0
 39 67  2  0  0  0
 40 52  1  0  0  0
 40 53  2  0  0  0
 40 58  1  0  0  0
 41106  1  0  0  0
 41107  1  0  0  0
 41108  1  0  0  0
 41 48  1  0  0  0
 42 43  1  0  0  0
 42 66  1  0  0  0
 42109  1  0  0  0
 42110  1  0  0  0
 43 44  1  0  0  0
 44111  1  0  0  0
 45 46  2  0  0  0
 45112  1  0  0  0
 46113  1  0  0  0
 47114  1  0  0  0
 47115  1  0  0  0
 48 56  1  0  0  0
 48 65  1  0  0  0
 48116  1  0  0  0
 49 50  1  0  0  0
 49 53  1  0  0  0
 49 64  1  0  0  0
 49117  1  0  0  0
 50 51  1  0  0  0
 50118  1  0  0  0
 50119  1  0  0  0
 51 52  1  0  0  0
 51120  1  0  0  0
 51121  1  0  0  0
 52122  1  0  0  0
 52123  1  0  0  0
 53 54  1  0  0  0
 54 55  2  0  0  0
 54124  1  0  0  0
 55 57  1  0  0  0
 55125  1  0  0  0
 56 69  2  0  0  0
 57 58  2  0  0  0
 57126  1  0  0  0
 58127  1  0  0  0
 59 60  1  0  0  0
 59 61  1  0  0  0
 59 62  1  0  0  0
 60128  1  0  0  0
 60129  1  0  0  0
 60130  1  0  0  0
 61131  1  0  0  0
 61132  1  0  0  0
 61133  1  0  0  0
 62134  1  0  0  0
 62135  1  0  0  0
 62136  1  0  0  0
 63 65  1  0  0  0
 63137  1  0  0  0
 63138  1  0  0  0
 63139  1  0  0  0
 64140  1  0  0  0
 65141  1  0  0  0
 68 78  1  0  0  0
 71 72  2  0  0  0
 71 74  1  0  0  0
 71142  1  0  0  0
 72 75  1  0  0  0
 72143  1  0  0  0
 73 74  2  0  0  0
 73 76  1  0  0  0
 73144  1  0  0  0
 74 80  1  0  0  0
 75 76  2  0  0  0
 75 79  1  0  0  0
 76 82  1  0  0  0
 77 78  1  0  0  0
 77 79  1  0  0  0
 77 81  2  0  0  0
 78145  1  0  0  0
 78146  1  0  0  0
 79147  1  0  0  0
 80148  1  0  0  0
M  ISO  4   1 100  68 101  78 101  80 100
M  END
> <chiral flag>
0

> <version>
0

> <s_m_source_file>
/data/baiqing/PycharmProjects/Reinvent-master-3.2/result/LINK_invent/BTK/process_docking_weight1_custom_sum_contain_oxygen_bond_distance_aromatic_linkinvent_7_9_3/rearranged_h_0011.sdf

> <i_m_source_file_index>
14

> <r_mmod_Potential_Energy-OPLS-2005>
408.086791992188

> <r_mmod_Stretch_Energy-OPLS-2005>
218.79460144043

> <r_mmod_Bend_Energy-OPLS-2005>
281.798767089844

> <r_mmod_Torsional_Energy-OPLS-2005>
220.497772216797

> <r_mmod_Improper_Torsional_Energy-OPLS-2005>
5.07187652587891

> <r_mmod_Van_der_Waal_Energy-OPLS-2005>
130.193206787109

> <r_mmod_Electrostatic_Energy-OPLS-2005>
-389.395721435547

> <r_mmod_Solvation_Energy-OPLS-2005>
-242.372695922852

> <b_mmod_Minimization_Converged-OPLS-2005>
0

> <r_mmod_RMS_Derivative-OPLS-2005>
0.813941478729248

$$$$
14
                    3D
 Structure written by MMmdl.
171179  0  0  1  0            999 V2000
  -30.5800  -15.0430   20.4001 C   0  0  0  0  0  0
  -30.4338  -12.6798   19.4794 C   0  0  0  0  0  0
  -29.5113  -12.5058   18.2524 C   0  0  0  0  0  0
  -28.0564  -12.2703   18.6957 C   0  0  0  0  0  0
  -27.6224  -13.2348   19.8280 C   0  0  2  0  0  0
  -28.6719  -13.3068   20.9508 C   0  0  0  0  0  0
  -25.2408  -13.8067   20.5634 C   0  0  0  0  0  0
  -24.1737  -13.0361   20.9188 C   0  0  0  0  0  0
  -24.6353  -11.6833   20.8715 C   0  0  0  0  0  0
  -23.9039  -10.4211   21.0371 C   0  0  0  0  0  0
  -24.3586   -9.4142   21.9175 C   0  0  0  0  0  0
  -23.6271   -8.2180   22.0760 C   0  0  0  0  0  0
  -22.4257   -8.0208   21.3540 C   0  0  0  0  0  0
  -21.9869   -9.0165   20.4632 C   0  0  0  0  0  0
  -22.7187  -10.2055   20.3033 C   0  0  0  0  0  0
  -21.6818   -6.0690   22.5266 C   0  0  0  0  0  0
  -21.3995   -6.5599   23.8200 C   0  0  0  0  0  0
  -21.3677   -5.6759   24.9157 C   0  0  0  0  0  0
  -21.6066   -4.3027   24.7208 C   0  0  0  0  0  0
  -21.8839   -3.8111   23.4331 C   0  0  0  0  0  0
  -21.9191   -4.6924   22.3380 C   0  0  0  0  0  0
  -22.7766  -13.5147   21.1894 C   0  0  0  0  0  0
  -22.1672   -4.2124   21.0961 F   0  0  0  0  0  0
  -21.5648   -3.4515   25.7727 F   0  0  0  0  0  0
  -29.9039  -13.8110   20.3166 N   0  0  0  0  0  0
  -26.2854  -12.9320   20.3256 N   0  0  0  0  0  0
  -25.9306  -11.6475   20.5811 N   0  0  0  0  0  0
  -22.0473  -12.8099   22.0459 N   0  0  0  0  0  0
  -25.4108  -15.1728   20.3918 N   0  0  0  0  0  0
  -31.8033  -14.9483   20.2555 O   0  0  0  0  0  0
  -21.6610   -6.8821   21.4233 O   0  0  0  0  0  0
  -22.3412  -14.5469   20.6775 O   0  0  0  0  0  0
  -24.6405  -31.8394   23.1917 C   0  0  0  0  0  0
  -25.9190  -32.4697   23.8286 C   0  0  1  0  0  0
  -27.2122  -27.0919   20.1495 C   0  0  0  0  0  0
  -25.5910  -33.8489   24.2163 N   0  0  0  0  0  0
  -23.4439  -30.4584   21.5444 C   0  0  2  0  0  0
  -24.8937  -28.8841   20.1152 C   0  0  0  0  0  0
  -22.7485  -29.4547   22.4910 C   0  0  0  0  0  0
  -18.0172  -28.1308   22.8506 C   0  0  0  0  0  0
  -24.1478  -36.7265   23.2651 C   0  0  0  0  0  0
  -26.0034  -30.7072   21.3912 C   0  0  0  0  0  0
  -26.0775  -29.3113   20.7280 C   0  0  0  0  0  0
  -27.2352  -28.4353   20.7210 C   0  0  0  0  0  0
  -25.9989  -26.7825   19.4932 C   0  0  0  0  0  0
  -24.8699  -27.6342   19.4775 C   0  0  0  0  0  0
  -23.6706  -29.7940   20.1635 C   0  0  0  0  0  0
  -25.4113  -36.3031   24.0309 C   0  0  1  0  0  0
  -20.5837  -28.3614   23.1120 C   0  0  2  0  0  0
  -20.6764  -26.9545   22.4789 C   0  0  0  0  0  0
  -19.5442  -26.6508   21.4929 C   0  0  0  0  0  0
  -18.1751  -26.7871   22.1641 C   0  0  0  0  0  0
  -19.1468  -28.8753   23.2872 C   0  0  0  0  0  0
  -18.9405  -30.1333   23.8963 C   0  0  0  0  0  0
  -17.6413  -30.6486   24.0676 C   0  0  0  0  0  0
  -25.9044  -34.9422   23.5060 C   0  0  0  0  0  0
  -16.5312  -29.9007   23.6368 C   0  0  0  0  0  0
  -16.7168  -28.6440   23.0363 C   0  0  0  0  0  0
  -26.4506  -31.6565   25.0744 C   0  0  0  0  0  0
  -25.3688  -31.3735   26.1448 C   0  0  0  0  0  0
  -27.0385  -30.2930   24.6384 C   0  0  0  0  0  0
  -27.5974  -32.4382   25.7558 C   0  0  0  0  0  0
  -27.5564  -37.1812   24.8468 C   0  0  0  0  0  0
  -21.4168  -29.3153   22.3729 N   0  0  0  0  0  0
  -26.4275  -37.3755   23.9410 N   0  0  0  0  0  0
  -24.7169  -31.0208   22.0980 N   0  0  0  0  0  0
  -23.4126  -28.8036   23.3021 O   0  0  0  0  0  0
  -28.2595  -26.0784   20.1857 O   0  0  0  0  0  0
  -26.5654  -34.8908   22.4636 O   0  0  0  0  0  0
  -23.5536  -32.1313   23.7135 O   0  0  0  0  0  0
  -28.2679  -16.7084   21.8438 C   0  0  0  0  0  0
  -27.1749  -19.0010   20.7774 C   0  0  0  0  0  0
  -26.9964  -17.1291   22.2852 C   0  0  0  0  0  0
  -29.0084  -17.3559   20.8277 C   0  0  0  0  0  0
  -26.3783  -18.2021   21.6090 C   0  0  0  0  0  0
  -28.5622  -18.8018   20.5389 C   0  0  0  0  0  0
  -26.3191  -16.3328   23.3921 C   0  0  0  0  0  0
  -20.8372  -20.2671   23.7690 C   0  0  0  0  0  0
  -24.2674  -18.3108   20.4582 C   0  0  0  0  0  0
  -21.9730  -19.2416   23.9638 C   0  0  0  0  0  0
  -23.0318  -19.4745   22.8872 C   0  0  0  0  0  0
  -28.9819  -23.1345   20.1313 C   0  0  0  0  0  0
  -24.2819  -18.5740   22.9691 C   0  0  0  0  0  0
  -27.9704  -24.5203   20.2593 C   0  0  0  0  0  0
  -28.4665  -21.4966   20.2350 C   0  0  0  0  0  0
  -30.0662  -16.3958   20.2591 N   0  0  0  0  0  0
  -25.0086  -18.5460   21.6982 N   0  0  0  0  0  0
  -29.1985  -20.0783   20.1261 O   0  0  0  0  0  0
  -31.4499  -12.8596   19.1192 H   0  0  0  0  0  0
  -30.5019  -11.7551   20.0546 H   0  0  0  0  0  0
  -29.8576  -11.6693   17.6435 H   0  0  0  0  0  0
  -29.5625  -13.3947   17.6217 H   0  0  0  0  0  0
  -27.9929  -11.2405   19.0532 H   0  0  0  0  0  0
  -27.3769  -12.3348   17.8466 H   0  0  0  0  0  0
  -27.5738  -14.2258   19.3745 H   0  0  0  0  0  0
  -28.8266  -12.3249   21.3998 H   0  0  0  0  0  0
  -28.3298  -13.9245   21.7701 H   0  0  0  0  0  0
  -25.2753   -9.5620   22.4716 H   0  0  0  0  0  0
  -23.9996   -7.4559   22.7461 H   0  0  0  0  0  0
  -21.0830   -8.8612   19.8917 H   0  0  0  0  0  0
  -22.3627  -10.9558   19.6106 H   0  0  0  0  0  0
  -21.1951   -7.6112   23.9689 H   0  0  0  0  0  0
  -21.1524   -6.0492   25.9081 H   0  0  0  0  0  0
  -22.0616   -2.7585   23.2814 H   0  0  0  0  0  0
  -22.4160  -11.9741   22.4770 H   0  0  0  0  0  0
  -21.1062  -13.0987   22.2716 H   0  0  0  0  0  0
  -24.6954  -15.8259   20.6857 H   0  0  0  0  0  0
  -26.3194  -15.6058   20.2943 H   0  0  0  0  0  0
  -26.7238  -32.5271   23.0992 H   0  0  0  0  0  0
  -25.0065  -33.9609   25.0332 H   0  0  0  0  0  0
  -22.7433  -31.2809   21.4008 H   0  0  0  0  0  0
  -23.3756  -35.9590   23.3304 H   0  0  0  0  0  0
  -24.3572  -36.8895   22.2071 H   0  0  0  0  0  0
  -23.7252  -37.6458   23.6687 H   0  0  0  0  0  0
  -26.1534  -31.4677   20.6198 H   0  0  0  0  0  0
  -26.8742  -30.7574   22.0346 H   0  0  0  0  0  0
  -28.1382  -28.7687   21.2100 H   0  0  0  0  0  0
  -25.8848  -25.8442   18.9771 H   0  0  0  0  0  0
  -23.9700  -27.3065   18.9773 H   0  0  0  0  0  0
  -23.8028  -30.5798   19.4187 H   0  0  0  0  0  0
  -22.7806  -29.2464   19.8462 H   0  0  0  0  0  0
  -25.1322  -36.1857   25.0808 H   0  0  0  0  0  0
  -20.9992  -28.2791   24.1194 H   0  0  0  0  0  0
  -21.6442  -26.7989   22.0006 H   0  0  0  0  0  0
  -20.6366  -26.2125   23.2759 H   0  0  0  0  0  0
  -19.6492  -25.6515   21.0706 H   0  0  0  0  0  0
  -19.6039  -27.3442   20.6518 H   0  0  0  0  0  0
  -17.3880  -26.6680   21.4159 H   0  0  0  0  0  0
  -18.0316  -25.9979   22.9035 H   0  0  0  0  0  0
  -19.7916  -30.7115   24.2310 H   0  0  0  0  0  0
  -17.4905  -31.6124   24.5389 H   0  0  0  0  0  0
  -15.5319  -30.2860   23.7788 H   0  0  0  0  0  0
  -15.8560  -28.0759   22.7078 H   0  0  0  0  0  0
  -24.5854  -30.7096   25.7780 H   0  0  0  0  0  0
  -24.8933  -32.2915   26.4864 H   0  0  0  0  0  0
  -25.8000  -30.8911   27.0233 H   0  0  0  0  0  0
  -26.3036  -29.6643   24.1342 H   0  0  0  0  0  0
  -27.3867  -29.7234   25.5016 H   0  0  0  0  0  0
  -27.8985  -30.4108   23.9795 H   0  0  0  0  0  0
  -27.2463  -33.3662   26.2082 H   0  0  0  0  0  0
  -28.3820  -32.6993   25.0450 H   0  0  0  0  0  0
  -28.0612  -31.8593   26.5544 H   0  0  0  0  0  0
  -28.2590  -38.0103   24.7507 H   0  0  0  0  0  0
  -28.1053  -36.2637   24.6307 H   0  0  0  0  0  0
  -27.2287  -37.1479   25.8875 H   0  0  0  0  0  0
  -20.9358  -29.8893   21.6938 H   0  0  0  0  0  0
  -26.0118  -38.2800   24.1470 H   0  0  0  0  0  0
  -28.6818  -15.8305   22.3043 H   0  0  0  0  0  0
  -26.6706  -19.8625   20.3729 H   0  0  0  0  0  0
  -26.9633  -15.5400   23.7689 H   0  0  0  0  0  0
  -25.4074  -15.8564   23.0322 H   0  0  0  0  0  0
  -26.0851  -16.9708   24.2429 H   0  0  0  0  0  0
  -20.0027  -20.0634   24.4353 H   0  0  0  0  0  0
  -20.4422  -20.2552   22.7501 H   0  0  0  0  0  0
  -21.1673  -21.2935   23.9566 H   0  0  0  0  0  0
  -24.8868  -17.9280   19.6477 H   0  0  0  0  0  0
  -23.8068  -19.2353   20.1030 H   0  0  0  0  0  0
  -23.4705  -17.5836   20.6324 H   0  0  0  0  0  0
  -21.5973  -18.2178   23.8929 H   0  0  0  0  0  0
  -22.4097  -19.3195   24.9573 H   0  0  0  0  0  0
  -23.3316  -20.5230   22.8900 H   0  0  0  0  0  0
  -22.5016  -19.3148   21.9498 H   0  0  0  0  0  0
  -29.7726  -23.2653   20.8737 H   0  0  0  0  0  0
  -29.5147  -23.2266   19.1859 H   0  0  0  0  0  0
  -23.9897  -17.5600   23.2423 H   0  0  0  0  0  0
  -24.9368  -18.9586   23.7550 H   0  0  0  0  0  0
  -27.5003  -24.4093   21.2352 H   0  0  0  0  0  0
  -27.1741  -24.3148   19.5535 H   0  0  0  0  0  0
  -27.7038  -21.4526   19.4553 H   0  0  0  0  0  0
  -27.9267  -21.4535   21.1848 H   0  0  0  0  0  0
  -30.7825  -16.9276   19.7857 H   0  0  0  0  0  0
  1 25  1  0  0  0
  1 30  2  0  0  0
  1 86  1  0  0  0
  2  3  1  0  0  0
  2 25  1  0  0  0
  2 89  1  0  0  0
  2 90  1  0  0  0
  3  4  1  0  0  0
  3 91  1  0  0  0
  3 92  1  0  0  0
  4  5  1  0  0  0
  4 93  1  0  0  0
  4 94  1  0  0  0
  5  6  1  0  0  0
  5 26  1  0  0  0
  5 95  1  0  0  0
  6 25  1  0  0  0
  6 96  1  0  0  0
  6 97  1  0  0  0
  7  8  2  0  0  0
  7 26  1  0  0  0
  7 29  1  0  0  0
  8  9  1  0  0  0
  8 22  1  0  0  0
  9 10  1  0  0  0
  9 27  2  0  0  0
 10 11  2  0  0  0
 10 15  1  0  0  0
 11 12  1  0  0  0
 11 98  1  0  0  0
 12 13  2  0  0  0
 12 99  1  0  0  0
 13 14  1  0  0  0
 13 31  1  0  0  0
 14 15  2  0  0  0
 14100  1  0  0  0
 15101  1  0  0  0
 16 17  2  0  0  0
 16 21  1  0  0  0
 16 31  1  0  0  0
 17 18  1  0  0  0
 17102  1  0  0  0
 18 19  2  0  0  0
 18103  1  0  0  0
 19 20  1  0  0  0
 19 24  1  0  0  0
 20 21  2  0  0  0
 20104  1  0  0  0
 21 23  1  0  0  0
 22 28  1  0  0  0
 22 32  2  0  0  0
 26 27  1  0  0  0
 28105  1  0  0  0
 28106  1  0  0  0
 29107  1  0  0  0
 29108  1  0  0  0
 33 34  1  0  0  0
 33 66  1  0  0  0
 33 70  2  0  0  0
 34 36  1  0  0  0
 34 59  1  0  0  0
 34109  1  0  0  0
 35 44  2  0  0  0
 35 45  1  0  0  0
 35 68  1  0  0  0
 36 56  1  0  0  0
 36110  1  0  0  0
 37 39  1  0  0  0
 37 47  1  0  0  0
 37 66  1  0  0  0
 37111  1  0  0  0
 38 43  2  0  0  0
 38 46  1  0  0  0
 38 47  1  0  0  0
 39 64  1  0  0  0
 39 67  2  0  0  0
 40 52  1  0  0  0
 40 53  2  0  0  0
 40 58  1  0  0  0
 41112  1  0  0  0
 41113  1  0  0  0
 41114  1  0  0  0
 41 48  1  0  0  0
 42 43  1  0  0  0
 42 66  1  0  0  0
 42115  1  0  0  0
 42116  1  0  0  0
 43 44  1  0  0  0
 44117  1  0  0  0
 45 46  2  0  0  0
 45118  1  0  0  0
 46119  1  0  0  0
 47120  1  0  0  0
 47121  1  0  0  0
 48 56  1  0  0  0
 48 65  1  0  0  0
 48122  1  0  0  0
 49 50  1  0  0  0
 49 53  1  0  0  0
 49 64  1  0  0  0
 49123  1  0  0  0
 50 51  1  0  0  0
 50124  1  0  0  0
 50125  1  0  0  0
 51 52  1  0  0  0
 51126  1  0  0  0
 51127  1  0  0  0
 52128  1  0  0  0
 52129  1  0  0  0
 53 54  1  0  0  0
 54 55  2  0  0  0
 54130  1  0  0  0
 55 57  1  0  0  0
 55131  1  0  0  0
 56 69  2  0  0  0
 57 58  2  0  0  0
 57132  1  0  0  0
 58133  1  0  0  0
 59 60  1  0  0  0
 59 61  1  0  0  0
 59 62  1  0  0  0
 60134  1  0  0  0
 60135  1  0  0  0
 60136  1  0  0  0
 61137  1  0  0  0
 61138  1  0  0  0
 61139  1  0  0  0
 62140  1  0  0  0
 62141  1  0  0  0
 62142  1  0  0  0
 63 65  1  0  0  0
 63143  1  0  0  0
 63144  1  0  0  0
 63145  1  0  0  0
 64146  1  0  0  0
 65147  1  0  0  0
 68 84  1  0  0  0
 71 73  2  0  0  0
 71 74  1  0  0  0
 71148  1  0  0  0
 72 75  2  0  0  0
 72 76  1  0  0  0
 72149  1  0  0  0
 73 75  1  0  0  0
 73 77  1  0  0  0
 74 76  2  0  0  0
 74 86  1  0  0  0
 75 87  1  0  0  0
 76 88  1  0  0  0
 77150  1  0  0  0
 77151  1  0  0  0
 77152  1  0  0  0
 78 80  1  0  0  0
 78153  1  0  0  0
 78154  1  0  0  0
 78155  1  0  0  0
 79 87  1  0  0  0
 79156  1  0  0  0
 79157  1  0  0  0
 79158  1  0  0  0
 80 81  1  0  0  0
 80159  1  0  0  0
 80160  1  0  0  0
 81 83  1  0  0  0
 81161  1  0  0  0
 81162  1  0  0  0
 82 84  1  0  0  0
 82 85  1  0  0  0
 82163  1  0  0  0
 82164  1  0  0  0
 83 87  1  0  0  0
 83165  1  0  0  0
 83166  1  0  0  0
 84167  1  0  0  0
 84168  1  0  0  0
 85 88  1  0  0  0
 85169  1  0  0  0
 85170  1  0  0  0
 86171  1  0  0  0
M  ISO  4   1 100  68 101  84 101  86 100
M  END
> <chiral flag>
0

> <version>
0

> <s_m_source_file>
/data/baiqing/PycharmProjects/Reinvent-master-3.2/result/LINK_invent/BTK/process_docking_weight1_custom_sum_contain_oxygen_bond_distance_aromatic_linkinvent_7_9_3/rearranged_h_0011.sdf

> <i_m_source_file_index>
15

> <r_mmod_Potential_Energy-OPLS-2005>
938.77197265625

> <r_mmod_Stretch_Energy-OPLS-2005>
374.551116943359

> <r_mmod_Bend_Energy-OPLS-2005>
446.027130126953

> <r_mmod_Torsional_Energy-OPLS-2005>
338.683685302734

> <r_mmod_Improper_Torsional_Energy-OPLS-2005>
14.4988784790039

> <r_mmod_Van_der_Waal_Energy-OPLS-2005>
152.818725585938

> <r_mmod_Electrostatic_Energy-OPLS-2005>
-432.937652587891

> <r_mmod_Solvation_Energy-OPLS-2005>
-200.278137207031

> <b_mmod_Minimization_Converged-OPLS-2005>
0

> <r_mmod_RMS_Derivative-OPLS-2005>
8.81020545959473

$$$$
15
                    3D
 Structure written by MMmdl.
157165  0  0  1  0            999 V2000
  -30.5167  -15.0513   20.4420 C   0  0  0  0  0  0
  -30.4439  -12.6578   19.4836 C   0  0  0  0  0  0
  -29.5286  -12.5475   18.2418 C   0  0  0  0  0  0
  -28.0593  -12.3214   18.6589 C   0  0  0  0  0  0
  -27.6293  -13.2538   19.8260 C   0  0  2  0  0  0
  -28.6816  -13.3263   20.9513 C   0  0  0  0  0  0
  -25.2509  -13.8196   20.5734 C   0  0  0  0  0  0
  -24.1820  -13.0406   20.9195 C   0  0  0  0  0  0
  -24.6436  -11.6903   20.8731 C   0  0  0  0  0  0
  -23.9099  -10.4282   21.0341 C   0  0  0  0  0  0
  -24.3648   -9.4212   21.9142 C   0  0  0  0  0  0
  -23.6323   -8.2257   22.0737 C   0  0  0  0  0  0
  -22.4291   -8.0298   21.3553 C   0  0  0  0  0  0
  -21.9930   -9.0243   20.4637 C   0  0  0  0  0  0
  -22.7265  -10.2119   20.3014 C   0  0  0  0  0  0
  -21.6858   -6.0726   22.5268 C   0  0  0  0  0  0
  -21.4018   -6.5621   23.8208 C   0  0  0  0  0  0
  -21.3676   -5.6785   24.9166 C   0  0  0  0  0  0
  -21.6056   -4.3052   24.7226 C   0  0  0  0  0  0
  -21.8826   -3.8135   23.4335 C   0  0  0  0  0  0
  -21.9200   -4.6943   22.3401 C   0  0  0  0  0  0
  -22.7846  -13.5181   21.1833 C   0  0  0  0  0  0
  -22.1673   -4.2129   21.0969 F   0  0  0  0  0  0
  -21.5641   -3.4540   25.7729 F   0  0  0  0  0  0
  -29.9281  -13.7814   20.3264 N   0  0  0  0  0  0
  -26.2928  -12.9433   20.3232 N   0  0  0  0  0  0
  -25.9374  -11.6557   20.5721 N   0  0  0  0  0  0
  -22.0499  -12.8184   22.0406 N   0  0  0  0  0  0
  -25.4104  -15.1927   20.4176 N   0  0  0  0  0  0
  -31.7426  -15.0866   20.2821 O   0  0  0  0  0  0
  -21.6685   -6.8872   21.4240 O   0  0  0  0  0  0
  -22.3552  -14.5479   20.6660 O   0  0  0  0  0  0
  -24.6508  -31.8402   23.1794 C   0  0  0  0  0  0
  -25.9260  -32.4663   23.8204 C   0  0  1  0  0  0
  -27.2223  -27.0660   20.2094 C   0  0  0  0  0  0
  -25.5985  -33.8464   24.2145 N   0  0  0  0  0  0
  -23.4565  -30.4647   21.5156 C   0  0  2  0  0  0
  -24.9164  -28.8736   20.1038 C   0  0  0  0  0  0
  -22.7558  -29.4628   22.4676 C   0  0  0  0  0  0
  -18.0337  -28.1421   22.8425 C   0  0  0  0  0  0
  -24.1511  -36.7242   23.2639 C   0  0  0  0  0  0
  -26.0167  -30.7027   21.3849 C   0  0  0  0  0  0
  -26.0905  -29.3035   20.7360 C   0  0  0  0  0  0
  -27.2413  -28.4154   20.7735 C   0  0  0  0  0  0
  -26.0254  -26.7586   19.5261 C   0  0  0  0  0  0
  -24.9026  -27.6162   19.4811 C   0  0  0  0  0  0
  -23.6894  -29.7787   20.1398 C   0  0  0  0  0  0
  -25.4145  -36.3006   24.0307 C   0  0  1  0  0  0
  -20.5949  -28.3836   23.1064 C   0  0  2  0  0  0
  -20.6814  -26.9497   22.5341 C   0  0  0  0  0  0
  -19.5798  -26.6391   21.5145 C   0  0  0  0  0  0
  -18.1984  -26.7953   22.1574 C   0  0  0  0  0  0
  -19.1587  -28.8922   23.2762 C   0  0  0  0  0  0
  -18.9527  -30.1485   23.8848 C   0  0  0  0  0  0
  -17.6524  -30.6595   24.0566 C   0  0  0  0  0  0
  -25.9106  -34.9385   23.5045 C   0  0  0  0  0  0
  -16.5413  -29.9110   23.6315 C   0  0  0  0  0  0
  -16.7320  -28.6519   23.0341 C   0  0  0  0  0  0
  -26.4573  -31.6520   25.0651 C   0  0  0  0  0  0
  -25.3715  -31.3739   26.1298 C   0  0  0  0  0  0
  -27.0464  -30.2888   24.6332 C   0  0  0  0  0  0
  -27.6104  -32.4266   25.7465 C   0  0  0  0  0  0
  -27.5585  -37.1777   24.8453 C   0  0  0  0  0  0
  -21.4249  -29.3156   22.3395 N   0  0  0  0  0  0
  -26.4304  -37.3720   23.9391 N   0  0  0  0  0  0
  -24.7267  -31.0251   22.0814 N   0  0  0  0  0  0
  -23.4171  -28.8179   23.2847 O   0  0  0  0  0  0
  -28.2428  -26.0251   20.3261 O   0  0  0  0  0  0
  -26.5688  -34.8912   22.4617 O   0  0  0  0  0  0
  -23.5609  -32.1285   23.6986 O   0  0  0  0  0  0
  -30.2956  -17.8979   22.2158 C   0  0  0  0  0  0
  -29.3081  -19.0328   20.3288 C   0  0  0  0  0  0
  -30.1963  -19.1183   22.9290 C   0  0  0  0  0  0
  -29.6733  -20.3246   22.3538 C   0  0  0  0  0  0
  -29.8172  -17.7346   20.9047 C   0  0  0  0  0  0
  -29.2607  -20.3989   20.9820 C   0  0  0  0  0  0
  -28.9242  -23.1761   20.6067 C   0  0  0  0  0  0
  -30.6000  -19.0677   24.4034 C   0  0  0  0  0  0
  -29.4886  -21.5042   23.3056 C   0  0  0  0  0  0
  -27.6298  -21.5048   19.3826 C   0  0  0  0  0  0
  -27.9136  -24.4727   20.1819 C   0  0  0  0  0  0
  -29.7294  -16.2649   20.3787 N   0  0  0  0  0  0
  -28.6627  -21.7495   20.3913 N   0  0  0  0  0  0
  -29.9873  -23.5136   21.1392 O   0  0  0  0  0  0
  -31.4794  -12.8211   19.1861 H   0  0  0  0  0  0
  -30.4454  -11.7145   20.0335 H   0  0  0  0  0  0
  -29.8610  -11.7433   17.5835 H   0  0  0  0  0  0
  -29.6099  -13.4678   17.6602 H   0  0  0  0  0  0
  -27.9546  -11.2779   18.9603 H   0  0  0  0  0  0
  -27.3960  -12.4585   17.8020 H   0  0  0  0  0  0
  -27.5730  -14.2473   19.3831 H   0  0  0  0  0  0
  -28.8146  -12.3632   21.4473 H   0  0  0  0  0  0
  -28.3809  -14.0349   21.7225 H   0  0  0  0  0  0
  -25.2771   -9.5718   22.4746 H   0  0  0  0  0  0
  -24.0027   -7.4656   22.7486 H   0  0  0  0  0  0
  -21.0845   -8.8716   19.8995 H   0  0  0  0  0  0
  -22.3647  -10.9633   19.6138 H   0  0  0  0  0  0
  -21.2008   -7.6133   23.9688 H   0  0  0  0  0  0
  -21.1508   -6.0523   25.9074 H   0  0  0  0  0  0
  -22.0596   -2.7592   23.2827 H   0  0  0  0  0  0
  -22.4128  -11.9855   22.4794 H   0  0  0  0  0  0
  -21.1114  -13.1218   22.2554 H   0  0  0  0  0  0
  -24.6366  -15.8366   20.5451 H   0  0  0  0  0  0
  -26.2582  -15.6533   20.1130 H   0  0  0  0  0  0
  -26.7354  -32.5316   23.0957 H   0  0  0  0  0  0
  -25.0073  -33.9558   25.0258 H   0  0  0  0  0  0
  -22.7661  -31.2953   21.3462 H   0  0  0  0  0  0
  -23.3776  -35.9568   23.3281 H   0  0  0  0  0  0
  -24.3590  -36.8898   22.2054 H   0  0  0  0  0  0
  -23.7281  -37.6439   23.6700 H   0  0  0  0  0  0
  -26.1751  -31.4538   20.6081 H   0  0  0  0  0  0
  -26.8829  -30.7629   22.0323 H   0  0  0  0  0  0
  -28.1191  -28.7402   21.3148 H   0  0  0  0  0  0
  -25.9150  -25.7927   19.0571 H   0  0  0  0  0  0
  -24.0073  -27.2727   18.9806 H   0  0  0  0  0  0
  -23.8136  -30.5415   19.3691 H   0  0  0  0  0  0
  -22.8072  -29.2087   19.8426 H   0  0  0  0  0  0
  -25.1346  -36.1813   25.0798 H   0  0  0  0  0  0
  -21.0127  -28.3547   24.1142 H   0  0  0  0  0  0
  -20.5609  -26.2526   23.3645 H   0  0  0  0  0  0
  -21.6699  -26.7425   22.1215 H   0  0  0  0  0  0
  -19.6989  -25.6276   21.1246 H   0  0  0  0  0  0
  -19.6728  -27.3127   20.6616 H   0  0  0  0  0  0
  -17.4245  -26.6639   21.3997 H   0  0  0  0  0  0
  -18.0449  -26.0101   22.8982 H   0  0  0  0  0  0
  -19.8027  -30.7277   24.2213 H   0  0  0  0  0  0
  -17.5119  -31.6269   24.5202 H   0  0  0  0  0  0
  -15.5427  -30.3039   23.7642 H   0  0  0  0  0  0
  -15.8720  -28.0834   22.7098 H   0  0  0  0  0  0
  -24.5905  -30.7118   25.7557 H   0  0  0  0  0  0
  -24.8914  -32.2940   26.4630 H   0  0  0  0  0  0
  -25.7920  -30.8919   27.0126 H   0  0  0  0  0  0
  -26.3126  -29.6529   24.1379 H   0  0  0  0  0  0
  -27.4052  -29.7281   25.4977 H   0  0  0  0  0  0
  -27.9038  -30.4046   23.9698 H   0  0  0  0  0  0
  -27.2728  -33.3597   26.1985 H   0  0  0  0  0  0
  -28.3981  -32.6750   25.0337 H   0  0  0  0  0  0
  -28.0715  -31.8402   26.5427 H   0  0  0  0  0  0
  -28.2581  -38.0094   24.7497 H   0  0  0  0  0  0
  -28.1103  -36.2614   24.6286 H   0  0  0  0  0  0
  -27.2286  -37.1426   25.8852 H   0  0  0  0  0  0
  -20.9457  -29.8894   21.6589 H   0  0  0  0  0  0
  -26.0159  -38.2793   24.1359 H   0  0  0  0  0  0
  -30.6611  -17.0306   22.7487 H   0  0  0  0  0  0
  -28.9065  -18.9608   19.3292 H   0  0  0  0  0  0
  -31.0947  -18.1286   24.6686 H   0  0  0  0  0  0
  -29.7229  -19.1449   25.0468 H   0  0  0  0  0  0
  -31.2635  -19.8930   24.6710 H   0  0  0  0  0  0
  -29.2243  -21.1949   24.3150 H   0  0  0  0  0  0
  -28.6731  -22.1646   23.0268 H   0  0  0  0  0  0
  -30.4092  -22.0838   23.3556 H   0  0  0  0  0  0
  -26.7952  -22.2042   19.4225 H   0  0  0  0  0  0
  -27.1816  -20.5225   19.5218 H   0  0  0  0  0  0
  -28.0580  -21.5413   18.3793 H   0  0  0  0  0  0
  -26.9996  -24.3019   20.7524 H   0  0  0  0  0  0
  -27.6493  -24.3025   19.1395 H   0  0  0  0  0  0
  -28.8263  -16.0731   19.9710 H   0  0  0  0  0  0
  1 25  1  0  0  0
  1 30  2  0  0  0
  1 82  1  0  0  0
  2  3  1  0  0  0
  2 25  1  0  0  0
  2 85  1  0  0  0
  2 86  1  0  0  0
  3  4  1  0  0  0
  3 87  1  0  0  0
  3 88  1  0  0  0
  4  5  1  0  0  0
  4 89  1  0  0  0
  4 90  1  0  0  0
  5  6  1  0  0  0
  5 26  1  0  0  0
  5 91  1  0  0  0
  6 25  1  0  0  0
  6 92  1  0  0  0
  6 93  1  0  0  0
  7  8  2  0  0  0
  7 26  1  0  0  0
  7 29  1  0  0  0
  8  9  1  0  0  0
  8 22  1  0  0  0
  9 10  1  0  0  0
  9 27  2  0  0  0
 10 11  2  0  0  0
 10 15  1  0  0  0
 11 12  1  0  0  0
 11 94  1  0  0  0
 12 13  2  0  0  0
 12 95  1  0  0  0
 13 14  1  0  0  0
 13 31  1  0  0  0
 14 15  2  0  0  0
 14 96  1  0  0  0
 15 97  1  0  0  0
 16 17  2  0  0  0
 16 21  1  0  0  0
 16 31  1  0  0  0
 17 18  1  0  0  0
 17 98  1  0  0  0
 18 19  2  0  0  0
 18 99  1  0  0  0
 19 20  1  0  0  0
 19 24  1  0  0  0
 20 21  2  0  0  0
 20100  1  0  0  0
 21 23  1  0  0  0
 22 28  1  0  0  0
 22 32  2  0  0  0
 26 27  1  0  0  0
 28101  1  0  0  0
 28102  1  0  0  0
 29103  1  0  0  0
 29104  1  0  0  0
 33 34  1  0  0  0
 33 66  1  0  0  0
 33 70  2  0  0  0
 34 36  1  0  0  0
 34 59  1  0  0  0
 34105  1  0  0  0
 35 44  2  0  0  0
 35 45  1  0  0  0
 35 68  1  0  0  0
 36 56  1  0  0  0
 36106  1  0  0  0
 37 39  1  0  0  0
 37 47  1  0  0  0
 37 66  1  0  0  0
 37107  1  0  0  0
 38 43  2  0  0  0
 38 46  1  0  0  0
 38 47  1  0  0  0
 39 64  1  0  0  0
 39 67  2  0  0  0
 40 52  1  0  0  0
 40 53  2  0  0  0
 40 58  1  0  0  0
 41108  1  0  0  0
 41109  1  0  0  0
 41110  1  0  0  0
 41 48  1  0  0  0
 42 43  1  0  0  0
 42 66  1  0  0  0
 42111  1  0  0  0
 42112  1  0  0  0
 43 44  1  0  0  0
 44113  1  0  0  0
 45 46  2  0  0  0
 45114  1  0  0  0
 46115  1  0  0  0
 47116  1  0  0  0
 47117  1  0  0  0
 48 56  1  0  0  0
 48 65  1  0  0  0
 48118  1  0  0  0
 49 50  1  0  0  0
 49 53  1  0  0  0
 49 64  1  0  0  0
 49119  1  0  0  0
 50 51  1  0  0  0
 50120  1  0  0  0
 50121  1  0  0  0
 51 52  1  0  0  0
 51122  1  0  0  0
 51123  1  0  0  0
 52124  1  0  0  0
 52125  1  0  0  0
 53 54  1  0  0  0
 54 55  2  0  0  0
 54126  1  0  0  0
 55 57  1  0  0  0
 55127  1  0  0  0
 56 69  2  0  0  0
 57 58  2  0  0  0
 57128  1  0  0  0
 58129  1  0  0  0
 59 60  1  0  0  0
 59 61  1  0  0  0
 59 62  1  0  0  0
 60130  1  0  0  0
 60131  1  0  0  0
 60132  1  0  0  0
 61133  1  0  0  0
 61134  1  0  0  0
 61135  1  0  0  0
 62136  1  0  0  0
 62137  1  0  0  0
 62138  1  0  0  0
 63 65  1  0  0  0
 63139  1  0  0  0
 63140  1  0  0  0
 63141  1  0  0  0
 64142  1  0  0  0
 65143  1  0  0  0
 68 81  1  0  0  0
 71 73  2  0  0  0
 71 75  1  0  0  0
 71144  1  0  0  0
 72 75  2  0  0  0
 72 76  1  0  0  0
 72145  1  0  0  0
 73 74  1  0  0  0
 73 78  1  0  0  0
 74 76  2  0  0  0
 74 79  1  0  0  0
 75 82  1  0  0  0
 76 83  1  0  0  0
 77 81  1  0  0  0
 77 83  1  0  0  0
 77 84  2  0  0  0
 78146  1  0  0  0
 78147  1  0  0  0
 78148  1  0  0  0
 79149  1  0  0  0
 79150  1  0  0  0
 79151  1  0  0  0
 80 83  1  0  0  0
 80152  1  0  0  0
 80153  1  0  0  0
 80154  1  0  0  0
 81155  1  0  0  0
 81156  1  0  0  0
 82157  1  0  0  0
M  ISO  4   1 100  68 101  81 101  82 100
M  END
> <chiral flag>
0

> <version>
0

> <s_m_source_file>
/data/baiqing/PycharmProjects/Reinvent-master-3.2/result/LINK_invent/BTK/process_docking_weight1_custom_sum_contain_oxygen_bond_distance_aromatic_linkinvent_7_9_3/rearranged_h_0011.sdf

> <i_m_source_file_index>
16

> <r_mmod_Potential_Energy-OPLS-2005>
819.349304199219

> <r_mmod_Stretch_Energy-OPLS-2005>
371.141418457031

> <r_mmod_Bend_Energy-OPLS-2005>
288.231475830078

> <r_mmod_Torsional_Energy-OPLS-2005>
287.446655273438

> <r_mmod_Improper_Torsional_Energy-OPLS-2005>
11.5818214416504

> <r_mmod_Van_der_Waal_Energy-OPLS-2005>
145.457595825195

> <r_mmod_Electrostatic_Energy-OPLS-2005>
-321.933898925781

> <r_mmod_Solvation_Energy-OPLS-2005>
-236.618148803711

> <b_mmod_Minimization_Converged-OPLS-2005>
0

> <r_mmod_RMS_Derivative-OPLS-2005>
5.43145370483398

$$$$
16
                    3D
 Structure written by MMmdl.
159167  0  0  1  0            999 V2000
  -30.5835  -14.6749   20.5176 C   0  0  0  0  0  0
  -30.4513  -12.4203   19.4521 C   0  0  0  0  0  0
  -29.5113  -12.5277   18.2279 C   0  0  0  0  0  0
  -28.0348  -12.3532   18.6402 C   0  0  0  0  0  0
  -27.6558  -13.2155   19.8732 C   0  0  2  0  0  0
  -28.7028  -13.0503   20.9986 C   0  0  0  0  0  0
  -25.2509  -13.8119   20.5599 C   0  0  0  0  0  0
  -24.1794  -13.0392   20.9137 C   0  0  0  0  0  0
  -24.6394  -11.6878   20.8740 C   0  0  0  0  0  0
  -23.9068  -10.4267   21.0407 C   0  0  0  0  0  0
  -24.3619   -9.4187   21.9187 C   0  0  0  0  0  0
  -23.6288   -8.2227   22.0758 C   0  0  0  0  0  0
  -22.4273   -8.0272   21.3545 C   0  0  0  0  0  0
  -21.9911   -9.0243   20.4643 C   0  0  0  0  0  0
  -22.7243  -10.2119   20.3054 C   0  0  0  0  0  0
  -21.6846   -6.0732   22.5281 C   0  0  0  0  0  0
  -21.4011   -6.5636   23.8213 C   0  0  0  0  0  0
  -21.3661   -5.6789   24.9174 C   0  0  0  0  0  0
  -21.6047   -4.3051   24.7226 C   0  0  0  0  0  0
  -21.8821   -3.8144   23.4347 C   0  0  0  0  0  0
  -21.9190   -4.6962   22.3403 C   0  0  0  0  0  0
  -22.7823  -13.5196   21.1822 C   0  0  0  0  0  0
  -22.1659   -4.2149   21.0980 F   0  0  0  0  0  0
  -21.5632   -3.4536   25.7739 F   0  0  0  0  0  0
  -30.0164  -13.4252   20.4439 N   0  0  0  0  0  0
  -26.2999  -12.9333   20.3379 N   0  0  0  0  0  0
  -25.9340  -11.6487   20.5813 N   0  0  0  0  0  0
  -22.0482  -12.8194   22.0401 N   0  0  0  0  0  0
  -25.4104  -15.1814   20.3906 N   0  0  0  0  0  0
  -31.7242  -14.8904   20.0946 O   0  0  0  0  0  0
  -21.6630   -6.8878   21.4245 O   0  0  0  0  0  0
  -22.3503  -14.5513   20.6697 O   0  0  0  0  0  0
  -24.6259  -31.8581   23.1993 C   0  0  0  0  0  0
  -25.9101  -32.4770   23.8333 C   0  0  1  0  0  0
  -27.2357  -27.3164   20.1295 C   0  0  0  0  0  0
  -25.5914  -33.8570   24.2263 N   0  0  0  0  0  0
  -23.4208  -30.4769   21.5424 C   0  0  2  0  0  0
  -24.8696  -28.9194   20.1190 C   0  0  0  0  0  0
  -22.7470  -29.4611   22.4948 C   0  0  0  0  0  0
  -18.0284  -28.1384   22.8486 C   0  0  0  0  0  0
  -24.1490  -36.7294   23.2640 C   0  0  0  0  0  0
  -25.9595  -30.7884   21.3678 C   0  0  0  0  0  0
  -26.0370  -29.4118   20.7168 C   0  0  0  0  0  0
  -27.2254  -28.6242   20.7042 C   0  0  0  0  0  0
  -26.0464  -26.8622   19.5245 C   0  0  0  0  0  0
  -24.8755  -27.6496   19.5144 C   0  0  0  0  0  0
  -23.6365  -29.8009   20.1616 C   0  0  0  0  0  0
  -25.4116  -36.3081   24.0329 C   0  0  1  0  0  0
  -20.5881  -28.3686   23.1289 C   0  0  2  0  0  0
  -20.6775  -26.9409   22.5413 C   0  0  0  0  0  0
  -19.5752  -26.6383   21.5214 C   0  0  0  0  0  0
  -18.1930  -26.7930   22.1620 C   0  0  0  0  0  0
  -19.1534  -28.8853   23.2882 C   0  0  0  0  0  0
  -18.9459  -30.1459   23.8894 C   0  0  0  0  0  0
  -17.6459  -30.6589   24.0560 C   0  0  0  0  0  0
  -25.9051  -34.9449   23.5100 C   0  0  0  0  0  0
  -16.5350  -29.9084   23.6330 C   0  0  0  0  0  0
  -16.7271  -28.6500   23.0354 C   0  0  0  0  0  0
  -26.4486  -31.6584   25.0705 C   0  0  0  0  0  0
  -25.3723  -31.3718   26.1433 C   0  0  0  0  0  0
  -27.0337  -30.3015   24.6155 C   0  0  0  0  0  0
  -27.6042  -32.4324   25.7480 C   0  0  0  0  0  0
  -27.5584  -37.1797   24.8460 C   0  0  0  0  0  0
  -21.4184  -29.3039   22.3686 N   0  0  0  0  0  0
  -26.4292  -37.3777   23.9410 N   0  0  0  0  0  0
  -24.6876  -31.0582   22.0943 N   0  0  0  0  0  0
  -23.4187  -28.8167   23.3046 O   0  0  0  0  0  0
  -28.3769  -26.5058   20.1046 O   0  0  0  0  0  0
  -26.5625  -34.8920   22.4670 O   0  0  0  0  0  0
  -23.5420  -32.1376   23.7321 O   0  0  0  0  0  0
  -30.5041  -18.0676   20.3243 C   0  0  0  0  0  0
  -30.1988  -19.4743   20.2954 C   0  0  0  0  0  0
  -29.5946  -17.1140   20.8626 C   0  0  0  0  0  0
  -28.9683  -20.0167   20.7810 C   0  0  0  0  0  0
  -28.3698  -17.6330   21.3561 C   0  0  0  0  0  0
  -28.0524  -19.0325   21.2772 C   0  0  0  0  0  0
  -27.8843  -21.8712   21.9958 C   0  0  0  0  0  0
  -26.5744  -17.0721   22.8761 C   0  0  0  0  0  0
  -28.5931  -23.8768   19.6796 C   0  0  0  0  0  0
  -29.3847  -22.5510   20.1526 C   0  0  0  0  0  0
  -28.3243  -25.1237   20.6423 C   0  0  0  0  0  0
  -29.7477  -15.6553   20.9879 N   0  0  0  0  0  0
  -28.6317  -21.4389   20.8128 N   0  0  0  0  0  0
  -27.5197  -16.6797   21.8881 O   0  0  0  0  0  0
  -26.8148  -19.4385   21.6578 F   0  0  0  0  0  0
  -31.4880  -12.5723   19.1470 H   0  0  0  0  0  0
  -30.4110  -11.4195   19.8847 H   0  0  0  0  0  0
  -29.7805  -11.7840   17.4767 H   0  0  0  0  0  0
  -29.6416  -13.5017   17.7528 H   0  0  0  0  0  0
  -27.8761  -11.2980   18.8658 H   0  0  0  0  0  0
  -27.3786  -12.5859   17.8004 H   0  0  0  0  0  0
  -27.6758  -14.2549   19.5448 H   0  0  0  0  0  0
  -28.7254  -12.0168   21.3475 H   0  0  0  0  0  0
  -28.4371  -13.6448   21.8739 H   0  0  0  0  0  0
  -25.2767   -9.5659   22.4757 H   0  0  0  0  0  0
  -23.9992   -7.4620   22.7481 H   0  0  0  0  0  0
  -21.0844   -8.8766   19.8945 H   0  0  0  0  0  0
  -22.3709  -10.9659   19.6162 H   0  0  0  0  0  0
  -21.2002   -7.6145   23.9719 H   0  0  0  0  0  0
  -21.1483   -6.0516   25.9077 H   0  0  0  0  0  0
  -22.0602   -2.7608   23.2844 H   0  0  0  0  0  0
  -22.4096  -11.9847   22.4772 H   0  0  0  0  0  0
  -21.1109  -13.1231   22.2631 H   0  0  0  0  0  0
  -24.6435  -15.8305   20.5236 H   0  0  0  0  0  0
  -26.2954  -15.6431   20.2241 H   0  0  0  0  0  0
  -26.7169  -32.5443   23.1083 H   0  0  0  0  0  0
  -25.0052  -33.9712   25.0401 H   0  0  0  0  0  0
  -22.7151  -31.2968   21.3940 H   0  0  0  0  0  0
  -23.3758  -35.9619   23.3287 H   0  0  0  0  0  0
  -24.3583  -36.8933   22.2058 H   0  0  0  0  0  0
  -23.7234  -37.6486   23.6676 H   0  0  0  0  0  0
  -26.0869  -31.5480   20.5950 H   0  0  0  0  0  0
  -26.8414  -30.8430   21.9949 H   0  0  0  0  0  0
  -28.1282  -29.0049   21.1610 H   0  0  0  0  0  0
  -26.0242  -25.8876   19.0573 H   0  0  0  0  0  0
  -23.9797  -27.2649   19.0463 H   0  0  0  0  0  0
  -23.7554  -30.5717   19.3994 H   0  0  0  0  0  0
  -22.7571  -29.2273   19.8638 H   0  0  0  0  0  0
  -25.1296  -36.1932   25.0820 H   0  0  0  0  0  0
  -20.9971  -28.3263   24.1411 H   0  0  0  0  0  0
  -20.5681  -26.2294   23.3611 H   0  0  0  0  0  0
  -21.6645  -26.7445   22.1205 H   0  0  0  0  0  0
  -19.6916  -25.6294   21.1245 H   0  0  0  0  0  0
  -19.6697  -27.3190   20.6742 H   0  0  0  0  0  0
  -17.4205  -26.6683   21.4018 H   0  0  0  0  0  0
  -18.0324  -26.0070   22.9010 H   0  0  0  0  0  0
  -19.7935  -30.7276   24.2261 H   0  0  0  0  0  0
  -17.5012  -31.6271   24.5158 H   0  0  0  0  0  0
  -15.5350  -30.2986   23.7657 H   0  0  0  0  0  0
  -15.8670  -28.0819   22.7073 H   0  0  0  0  0  0
  -24.5896  -30.7072   25.7758 H   0  0  0  0  0  0
  -24.8916  -32.2882   26.4867 H   0  0  0  0  0  0
  -25.8047  -30.8886   27.0203 H   0  0  0  0  0  0
  -26.2910  -29.6759   24.1191 H   0  0  0  0  0  0
  -27.4056  -29.7277   25.4654 H   0  0  0  0  0  0
  -27.8765  -30.4312   23.9362 H   0  0  0  0  0  0
  -27.2649  -33.3624   26.2056 H   0  0  0  0  0  0
  -28.3853  -32.6886   25.0310 H   0  0  0  0  0  0
  -28.0711  -31.8451   26.5398 H   0  0  0  0  0  0
  -28.2584  -38.0112   24.7536 H   0  0  0  0  0  0
  -28.1101  -36.2644   24.6254 H   0  0  0  0  0  0
  -27.2305  -37.1403   25.8862 H   0  0  0  0  0  0
  -20.9368  -29.8744   21.6876 H   0  0  0  0  0  0
  -26.0175  -38.2849   24.1423 H   0  0  0  0  0  0
  -31.4573  -17.7319   19.9406 H   0  0  0  0  0  0
  -30.9464  -20.1444   19.8977 H   0  0  0  0  0  0
  -26.8149  -21.9043   21.7829 H   0  0  0  0  0  0
  -28.1844  -22.8684   22.3193 H   0  0  0  0  0  0
  -28.0446  -21.2129   22.8514 H   0  0  0  0  0  0
  -25.6794  -17.4987   22.4224 H   0  0  0  0  0  0
  -26.9944  -17.7787   23.5932 H   0  0  0  0  0  0
  -26.2572  -16.1916   23.4348 H   0  0  0  0  0  0
  -27.6608  -23.5918   19.1915 H   0  0  0  0  0  0
  -29.2020  -24.2851   18.8723 H   0  0  0  0  0  0
  -30.2195  -22.8413   20.7925 H   0  0  0  0  0  0
  -29.8446  -22.1236   19.2603 H   0  0  0  0  0  0
  -29.0913  -25.0983   21.4164 H   0  0  0  0  0  0
  -27.3867  -24.9661   21.1773 H   0  0  0  0  0  0
  -28.9160  -15.2445   21.3869 H   0  0  0  0  0  0
  1 25  1  0  0  0
  1 30  2  0  0  0
  1 82  1  0  0  0
  2  3  1  0  0  0
  2 25  1  0  0  0
  2 86  1  0  0  0
  2 87  1  0  0  0
  3  4  1  0  0  0
  3 88  1  0  0  0
  3 89  1  0  0  0
  4  5  1  0  0  0
  4 90  1  0  0  0
  4 91  1  0  0  0
  5  6  1  0  0  0
  5 26  1  0  0  0
  5 92  1  0  0  0
  6 25  1  0  0  0
  6 93  1  0  0  0
  6 94  1  0  0  0
  7  8  2  0  0  0
  7 26  1  0  0  0
  7 29  1  0  0  0
  8  9  1  0  0  0
  8 22  1  0  0  0
  9 10  1  0  0  0
  9 27  2  0  0  0
 10 11  2  0  0  0
 10 15  1  0  0  0
 11 12  1  0  0  0
 11 95  1  0  0  0
 12 13  2  0  0  0
 12 96  1  0  0  0
 13 14  1  0  0  0
 13 31  1  0  0  0
 14 15  2  0  0  0
 14 97  1  0  0  0
 15 98  1  0  0  0
 16 17  2  0  0  0
 16 21  1  0  0  0
 16 31  1  0  0  0
 17 18  1  0  0  0
 17 99  1  0  0  0
 18 19  2  0  0  0
 18100  1  0  0  0
 19 20  1  0  0  0
 19 24  1  0  0  0
 20 21  2  0  0  0
 20101  1  0  0  0
 21 23  1  0  0  0
 22 28  1  0  0  0
 22 32  2  0  0  0
 26 27  1  0  0  0
 28102  1  0  0  0
 28103  1  0  0  0
 29104  1  0  0  0
 29105  1  0  0  0
 33 34  1  0  0  0
 33 66  1  0  0  0
 33 70  2  0  0  0
 34 36  1  0  0  0
 34 59  1  0  0  0
 34106  1  0  0  0
 35 44  2  0  0  0
 35 45  1  0  0  0
 35 68  1  0  0  0
 36 56  1  0  0  0
 36107  1  0  0  0
 37 39  1  0  0  0
 37 47  1  0  0  0
 37 66  1  0  0  0
 37108  1  0  0  0
 38 43  2  0  0  0
 38 46  1  0  0  0
 38 47  1  0  0  0
 39 64  1  0  0  0
 39 67  2  0  0  0
 40 52  1  0  0  0
 40 53  2  0  0  0
 40 58  1  0  0  0
 41109  1  0  0  0
 41110  1  0  0  0
 41111  1  0  0  0
 41 48  1  0  0  0
 42 43  1  0  0  0
 42 66  1  0  0  0
 42112  1  0  0  0
 42113  1  0  0  0
 43 44  1  0  0  0
 44114  1  0  0  0
 45 46  2  0  0  0
 45115  1  0  0  0
 46116  1  0  0  0
 47117  1  0  0  0
 47118  1  0  0  0
 48 56  1  0  0  0
 48 65  1  0  0  0
 48119  1  0  0  0
 49 50  1  0  0  0
 49 53  1  0  0  0
 49 64  1  0  0  0
 49120  1  0  0  0
 50 51  1  0  0  0
 50121  1  0  0  0
 50122  1  0  0  0
 51 52  1  0  0  0
 51123  1  0  0  0
 51124  1  0  0  0
 52125  1  0  0  0
 52126  1  0  0  0
 53 54  1  0  0  0
 54 55  2  0  0  0
 54127  1  0  0  0
 55 57  1  0  0  0
 55128  1  0  0  0
 56 69  2  0  0  0
 57 58  2  0  0  0
 57129  1  0  0  0
 58130  1  0  0  0
 59 60  1  0  0  0
 59 61  1  0  0  0
 59 62  1  0  0  0
 60131  1  0  0  0
 60132  1  0  0  0
 60133  1  0  0  0
 61134  1  0  0  0
 61135  1  0  0  0
 61136  1  0  0  0
 62137  1  0  0  0
 62138  1  0  0  0
 62139  1  0  0  0
 63 65  1  0  0  0
 63140  1  0  0  0
 63141  1  0  0  0
 63142  1  0  0  0
 64143  1  0  0  0
 65144  1  0  0  0
 68 81  1  0  0  0
 71 72  2  0  0  0
 71 73  1  0  0  0
 71145  1  0  0  0
 72 74  1  0  0  0
 72146  1  0  0  0
 73 75  2  0  0  0
 73 82  1  0  0  0
 74 76  2  0  0  0
 74 83  1  0  0  0
 75 76  1  0  0  0
 75 84  1  0  0  0
 76 85  1  0  0  0
 77 83  1  0  0  0
 77147  1  0  0  0
 77148  1  0  0  0
 77149  1  0  0  0
 78 84  1  0  0  0
 78150  1  0  0  0
 78151  1  0  0  0
 78152  1  0  0  0
 79 80  1  0  0  0
 79 81  1  0  0  0
 79153  1  0  0  0
 79154  1  0  0  0
 80 83  1  0  0  0
 80155  1  0  0  0
 80156  1  0  0  0
 81157  1  0  0  0
 81158  1  0  0  0
 82159  1  0  0  0
M  ISO  4   1 100  68 101  81 101  82 100
M  END
> <chiral flag>
0

> <version>
0

> <s_m_source_file>
/data/baiqing/PycharmProjects/Reinvent-master-3.2/result/LINK_invent/BTK/process_docking_weight1_custom_sum_contain_oxygen_bond_distance_aromatic_linkinvent_7_9_3/rearranged_h_0011.sdf

> <i_m_source_file_index>
17

> <r_mmod_Potential_Energy-OPLS-2005>
192.139602661133

> <r_mmod_Stretch_Energy-OPLS-2005>
94.4855728149414

> <r_mmod_Bend_Energy-OPLS-2005>
195.813751220703

> <r_mmod_Torsional_Energy-OPLS-2005>
244.673751831055

> <r_mmod_Improper_Torsional_Energy-OPLS-2005>
5.23680448532104

> <r_mmod_Van_der_Waal_Energy-OPLS-2005>
150.075897216797

> <r_mmod_Electrostatic_Energy-OPLS-2005>
-339.143646240234

> <r_mmod_Solvation_Energy-OPLS-2005>
-211.64631652832

> <b_mmod_Minimization_Converged-OPLS-2005>
0

> <r_mmod_RMS_Derivative-OPLS-2005>
0.63679301738739

$$$$
17
                    3D
 Structure written by MMmdl.
152160  0  0  1  0            999 V2000
  -30.5201  -14.9120   20.4351 C   0  0  0  0  0  0
  -30.4498  -12.5619   19.4904 C   0  0  0  0  0  0
  -29.5241  -12.5406   18.2501 C   0  0  0  0  0  0
  -28.0527  -12.3332   18.6625 C   0  0  0  0  0  0
  -27.6383  -13.2419   19.8490 C   0  0  2  0  0  0
  -28.6834  -13.2181   20.9858 C   0  0  0  0  0  0
  -25.2488  -13.8204   20.5696 C   0  0  0  0  0  0
  -24.1787  -13.0437   20.9210 C   0  0  0  0  0  0
  -24.6392  -11.6919   20.8736 C   0  0  0  0  0  0
  -23.9062  -10.4298   21.0395 C   0  0  0  0  0  0
  -24.3606   -9.4216   21.9174 C   0  0  0  0  0  0
  -23.6290   -8.2247   22.0754 C   0  0  0  0  0  0
  -22.4280   -8.0278   21.3541 C   0  0  0  0  0  0
  -21.9906   -9.0250   20.4644 C   0  0  0  0  0  0
  -22.7226  -10.2135   20.3049 C   0  0  0  0  0  0
  -21.6856   -6.0738   22.5279 C   0  0  0  0  0  0
  -21.4017   -6.5641   23.8209 C   0  0  0  0  0  0
  -21.3659   -5.6791   24.9168 C   0  0  0  0  0  0
  -21.6044   -4.3055   24.7212 C   0  0  0  0  0  0
  -21.8817   -3.8147   23.4330 C   0  0  0  0  0  0
  -21.9189   -4.6965   22.3394 C   0  0  0  0  0  0
  -22.7805  -13.5213   21.1868 C   0  0  0  0  0  0
  -22.1653   -4.2150   21.0967 F   0  0  0  0  0  0
  -21.5630   -3.4535   25.7727 F   0  0  0  0  0  0
  -29.9685  -13.6343   20.4030 N   0  0  0  0  0  0
  -26.2921  -12.9425   20.3265 N   0  0  0  0  0  0
  -25.9327  -11.6558   20.5724 N   0  0  0  0  0  0
  -22.0446  -12.8217   22.0432 N   0  0  0  0  0  0
  -25.4157  -15.1938   20.4107 N   0  0  0  0  0  0
  -31.7057  -15.0350   20.1125 O   0  0  0  0  0  0
  -21.6640   -6.8883   21.4245 O   0  0  0  0  0  0
  -22.3493  -14.5514   20.6707 O   0  0  0  0  0  0
  -24.6426  -31.8460   23.1898 C   0  0  0  0  0  0
  -25.9203  -32.4705   23.8289 C   0  0  1  0  0  0
  -27.2236  -27.1523   20.1467 C   0  0  0  0  0  0
  -25.5959  -33.8511   24.2210 N   0  0  0  0  0  0
  -23.4467  -30.4654   21.5357 C   0  0  2  0  0  0
  -24.8976  -28.8980   20.1139 C   0  0  0  0  0  0
  -22.7572  -29.4550   22.4863 C   0  0  0  0  0  0
  -18.0308  -28.1397   22.8483 C   0  0  0  0  0  0
  -24.1498  -36.7258   23.2643 C   0  0  0  0  0  0
  -26.0021  -30.7261   21.3873 C   0  0  0  0  0  0
  -26.0759  -29.3390   20.7279 C   0  0  0  0  0  0
  -27.2402  -28.4835   20.7262 C   0  0  0  0  0  0
  -26.0150  -26.8121   19.4953 C   0  0  0  0  0  0
  -24.8787  -27.6468   19.4839 C   0  0  0  0  0  0
  -23.6731  -29.7964   20.1557 C   0  0  0  0  0  0
  -25.4124  -36.3033   24.0319 C   0  0  1  0  0  0
  -20.5924  -28.3720   23.1241 C   0  0  2  0  0  0
  -20.6795  -26.9423   22.5408 C   0  0  0  0  0  0
  -19.5765  -26.6377   21.5224 C   0  0  0  0  0  0
  -18.1946  -26.7935   22.1632 C   0  0  0  0  0  0
  -19.1563  -28.8872   23.2858 C   0  0  0  0  0  0
  -18.9475  -30.1476   23.8874 C   0  0  0  0  0  0
  -17.6467  -30.6593   24.0557 C   0  0  0  0  0  0
  -25.9070  -34.9404   23.5065 C   0  0  0  0  0  0
  -16.5364  -29.9081   23.6337 C   0  0  0  0  0  0
  -16.7292  -28.6500   23.0362 C   0  0  0  0  0  0
  -26.4526  -31.6570   25.0727 C   0  0  0  0  0  0
  -25.3710  -31.3759   26.1422 C   0  0  0  0  0  0
  -27.0393  -30.2962   24.6309 C   0  0  0  0  0  0
  -27.6048  -32.4345   25.7516 C   0  0  0  0  0  0
  -27.5577  -37.1783   24.8458 C   0  0  0  0  0  0
  -21.4258  -29.3053   22.3612 N   0  0  0  0  0  0
  -26.4288  -37.3740   23.9400 N   0  0  0  0  0  0
  -24.7169  -31.0329   22.0931 N   0  0  0  0  0  0
  -23.4219  -28.8091   23.3007 O   0  0  0  0  0  0
  -28.2873  -26.1791   20.2005 O   0  0  0  0  0  0
  -26.5648  -34.8886   22.4642 O   0  0  0  0  0  0
  -23.5543  -32.1327   23.7117 O   0  0  0  0  0  0
  -28.5360  -18.1755   21.3664 C   0  0  0  0  0  0
  -30.0344  -19.9548   19.8697 C   0  0  0  0  0  0
  -29.5853  -17.5342   20.6367 C   0  0  0  0  0  0
  -28.2292  -19.5853   21.3452 C   0  0  0  0  0  0
  -28.9508  -20.5711   20.5947 C   0  0  0  0  0  0
  -30.3338  -18.5149   19.8758 C   0  0  0  0  0  0
  -25.9762  -20.2197   21.3852 C   0  0  0  0  0  0
  -27.9832  -24.6533   20.2285 C   0  0  0  0  0  0
  -29.0087  -23.3175   20.2487 C   0  0  0  0  0  0
  -29.6588  -16.0009   20.7059 N   0  0  0  0  0  0
  -27.1752  -20.0013   22.1169 O   0  0  0  0  0  0
  -28.4500  -21.9488   20.6415 O   0  0  0  0  0  0
  -31.6219  -17.9812   18.8581 Cl  0  0  0  0  0  0
  -31.4830  -12.7290   19.1805 H   0  0  0  0  0  0
  -30.4411  -11.5951   19.9967 H   0  0  0  0  0  0
  -29.8338  -11.7551   17.5588 H   0  0  0  0  0  0
  -29.6250  -13.4809   17.7068 H   0  0  0  0  0  0
  -27.9349  -11.2860   18.9416 H   0  0  0  0  0  0
  -27.3902  -12.4958   17.8116 H   0  0  0  0  0  0
  -27.6150  -14.2557   19.4482 H   0  0  0  0  0  0
  -28.7603  -12.2248   21.4298 H   0  0  0  0  0  0
  -28.3888  -13.8877   21.7951 H   0  0  0  0  0  0
  -25.2742   -9.5697   22.4751 H   0  0  0  0  0  0
  -23.9996   -7.4644   22.7481 H   0  0  0  0  0  0
  -21.0831   -8.8756   19.8957 H   0  0  0  0  0  0
  -22.3670  -10.9663   19.6155 H   0  0  0  0  0  0
  -21.2019   -7.6153   23.9712 H   0  0  0  0  0  0
  -21.1486   -6.0519   25.9070 H   0  0  0  0  0  0
  -22.0601   -2.7610   23.2822 H   0  0  0  0  0  0
  -22.4052  -11.9876   22.4831 H   0  0  0  0  0  0
  -21.1062  -13.1258   22.2627 H   0  0  0  0  0  0
  -24.6403  -15.8386   20.5176 H   0  0  0  0  0  0
  -26.2427  -15.6335   20.0288 H   0  0  0  0  0  0
  -26.7274  -32.5315   23.1028 H   0  0  0  0  0  0
  -25.0088  -33.9633   25.0342 H   0  0  0  0  0  0
  -22.7486  -31.2906   21.3811 H   0  0  0  0  0  0
  -23.3757  -35.9593   23.3285 H   0  0  0  0  0  0
  -24.3579  -36.8907   22.2059 H   0  0  0  0  0  0
  -23.7258  -37.6448   23.6691 H   0  0  0  0  0  0
  -26.1561  -31.4837   20.6180 H   0  0  0  0  0  0
  -26.8716  -30.7744   22.0315 H   0  0  0  0  0  0
  -28.1387  -28.8191   21.2252 H   0  0  0  0  0  0
  -25.9021  -25.8668   18.9918 H   0  0  0  0  0  0
  -23.9790  -27.3036   18.9931 H   0  0  0  0  0  0
  -23.8091  -30.5702   19.3991 H   0  0  0  0  0  0
  -22.7885  -29.2367   19.8460 H   0  0  0  0  0  0
  -25.1314  -36.1854   25.0813 H   0  0  0  0  0  0
  -21.0027  -28.3306   24.1361 H   0  0  0  0  0  0
  -20.5700  -26.2332   23.3627 H   0  0  0  0  0  0
  -21.6654  -26.7438   22.1192 H   0  0  0  0  0  0
  -19.6916  -25.6280   21.1271 H   0  0  0  0  0  0
  -19.6693  -27.3173   20.6742 H   0  0  0  0  0  0
  -17.4218  -26.6701   21.4034 H   0  0  0  0  0  0
  -18.0325  -26.0079   22.9027 H   0  0  0  0  0  0
  -19.7946  -30.7316   24.2223 H   0  0  0  0  0  0
  -17.5012  -31.6264   24.5176 H   0  0  0  0  0  0
  -15.5360  -30.2972   23.7660 H   0  0  0  0  0  0
  -15.8704  -28.0808   22.7090 H   0  0  0  0  0  0
  -24.5880  -30.7132   25.7722 H   0  0  0  0  0  0
  -24.8922  -32.2951   26.4805 H   0  0  0  0  0  0
  -25.7982  -30.8937   27.0227 H   0  0  0  0  0  0
  -26.3017  -29.6680   24.1305 H   0  0  0  0  0  0
  -27.3986  -29.7260   25.4886 H   0  0  0  0  0  0
  -27.8930  -30.4180   23.9642 H   0  0  0  0  0  0
  -27.2627  -33.3652   26.2053 H   0  0  0  0  0  0
  -28.3880  -32.6908   25.0372 H   0  0  0  0  0  0
  -28.0707  -31.8518   26.5471 H   0  0  0  0  0  0
  -28.2573  -38.0098   24.7501 H   0  0  0  0  0  0
  -28.1096  -36.2619   24.6291 H   0  0  0  0  0  0
  -27.2288  -37.1433   25.8861 H   0  0  0  0  0  0
  -20.9466  -29.8774   21.6797 H   0  0  0  0  0  0
  -26.0151  -38.2805   24.1403 H   0  0  0  0  0  0
  -27.8963  -17.5521   21.9746 H   0  0  0  0  0  0
  -30.6463  -20.5903   19.2473 H   0  0  0  0  0  0
  -26.1276  -20.8459   20.5043 H   0  0  0  0  0  0
  -25.2459  -20.7193   22.0224 H   0  0  0  0  0  0
  -25.5470  -19.2700   21.0636 H   0  0  0  0  0  0
  -27.3479  -24.5334   21.1064 H   0  0  0  0  0  0
  -27.3360  -24.4411   19.3819 H   0  0  0  0  0  0
  -29.8152  -23.5262   20.9514 H   0  0  0  0  0  0
  -29.4846  -23.2236   19.2727 H   0  0  0  0  0  0
  -28.7878  -15.6209   21.0422 H   0  0  0  0  0  0
  1 25  1  0  0  0
  1 30  2  0  0  0
  1 80  1  0  0  0
  2  3  1  0  0  0
  2 25  1  0  0  0
  2 84  1  0  0  0
  2 85  1  0  0  0
  3  4  1  0  0  0
  3 86  1  0  0  0
  3 87  1  0  0  0
  4  5  1  0  0  0
  4 88  1  0  0  0
  4 89  1  0  0  0
  5  6  1  0  0  0
  5 26  1  0  0  0
  5 90  1  0  0  0
  6 25  1  0  0  0
  6 91  1  0  0  0
  6 92  1  0  0  0
  7  8  2  0  0  0
  7 26  1  0  0  0
  7 29  1  0  0  0
  8  9  1  0  0  0
  8 22  1  0  0  0
  9 10  1  0  0  0
  9 27  2  0  0  0
 10 11  2  0  0  0
 10 15  1  0  0  0
 11 12  1  0  0  0
 11 93  1  0  0  0
 12 13  2  0  0  0
 12 94  1  0  0  0
 13 14  1  0  0  0
 13 31  1  0  0  0
 14 15  2  0  0  0
 14 95  1  0  0  0
 15 96  1  0  0  0
 16 17  2  0  0  0
 16 21  1  0  0  0
 16 31  1  0  0  0
 17 18  1  0  0  0
 17 97  1  0  0  0
 18 19  2  0  0  0
 18 98  1  0  0  0
 19 20  1  0  0  0
 19 24  1  0  0  0
 20 21  2  0  0  0
 20 99  1  0  0  0
 21 23  1  0  0  0
 22 28  1  0  0  0
 22 32  2  0  0  0
 26 27  1  0  0  0
 28100  1  0  0  0
 28101  1  0  0  0
 29102  1  0  0  0
 29103  1  0  0  0
 33 34  1  0  0  0
 33 66  1  0  0  0
 33 70  2  0  0  0
 34 36  1  0  0  0
 34 59  1  0  0  0
 34104  1  0  0  0
 35 44  2  0  0  0
 35 45  1  0  0  0
 35 68  1  0  0  0
 36 56  1  0  0  0
 36105  1  0  0  0
 37 39  1  0  0  0
 37 47  1  0  0  0
 37 66  1  0  0  0
 37106  1  0  0  0
 38 43  2  0  0  0
 38 46  1  0  0  0
 38 47  1  0  0  0
 39 64  1  0  0  0
 39 67  2  0  0  0
 40 52  1  0  0  0
 40 53  2  0  0  0
 40 58  1  0  0  0
 41107  1  0  0  0
 41108  1  0  0  0
 41109  1  0  0  0
 41 48  1  0  0  0
 42 43  1  0  0  0
 42 66  1  0  0  0
 42110  1  0  0  0
 42111  1  0  0  0
 43 44  1  0  0  0
 44112  1  0  0  0
 45 46  2  0  0  0
 45113  1  0  0  0
 46114  1  0  0  0
 47115  1  0  0  0
 47116  1  0  0  0
 48 56  1  0  0  0
 48 65  1  0  0  0
 48117  1  0  0  0
 49 50  1  0  0  0
 49 53  1  0  0  0
 49 64  1  0  0  0
 49118  1  0  0  0
 50 51  1  0  0  0
 50119  1  0  0  0
 50120  1  0  0  0
 51 52  1  0  0  0
 51121  1  0  0  0
 51122  1  0  0  0
 52123  1  0  0  0
 52124  1  0  0  0
 53 54  1  0  0  0
 54 55  2  0  0  0
 54125  1  0  0  0
 55 57  1  0  0  0
 55126  1  0  0  0
 56 69  2  0  0  0
 57 58  2  0  0  0
 57127  1  0  0  0
 58128  1  0  0  0
 59 60  1  0  0  0
 59 61  1  0  0  0
 59 62  1  0  0  0
 60129  1  0  0  0
 60130  1  0  0  0
 60131  1  0  0  0
 61132  1  0  0  0
 61133  1  0  0  0
 61134  1  0  0  0
 62135  1  0  0  0
 62136  1  0  0  0
 62137  1  0  0  0
 63 65  1  0  0  0
 63138  1  0  0  0
 63139  1  0  0  0
 63140  1  0  0  0
 64141  1  0  0  0
 65142  1  0  0  0
 68 78  1  0  0  0
 71 73  2  0  0  0
 71 74  1  0  0  0
 71143  1  0  0  0
 72 75  1  0  0  0
 72 76  2  0  0  0
 72144  1  0  0  0
 73 76  1  0  0  0
 73 80  1  0  0  0
 74 75  2  0  0  0
 74 81  1  0  0  0
 75 82  1  0  0  0
 76 83  1  0  0  0
 77 81  1  0  0  0
 77145  1  0  0  0
 77146  1  0  0  0
 77147  1  0  0  0
 78 79  1  0  0  0
 78148  1  0  0  0
 78149  1  0  0  0
 79 82  1  0  0  0
 79150  1  0  0  0
 79151  1  0  0  0
 80152  1  0  0  0
M  ISO  4   1 100  68 101  78 101  80 100
M  END
> <chiral flag>
0

> <version>
0

> <s_m_source_file>
/data/baiqing/PycharmProjects/Reinvent-master-3.2/result/LINK_invent/BTK/process_docking_weight1_custom_sum_contain_oxygen_bond_distance_aromatic_linkinvent_7_9_3/rearranged_h_0011.sdf

> <i_m_source_file_index>
18

> <r_mmod_Potential_Energy-OPLS-2005>
475.144989013672

> <r_mmod_Stretch_Energy-OPLS-2005>
220.042373657227

> <r_mmod_Bend_Energy-OPLS-2005>
307.146881103516

> <r_mmod_Torsional_Energy-OPLS-2005>
250.655303955078

> <r_mmod_Improper_Torsional_Energy-OPLS-2005>
3.65875196456909

> <r_mmod_Van_der_Waal_Energy-OPLS-2005>
130.065979003906

> <r_mmod_Electrostatic_Energy-OPLS-2005>
-382.168090820312

> <r_mmod_Solvation_Energy-OPLS-2005>
-225.036514282227

> <b_mmod_Minimization_Converged-OPLS-2005>
0

> <r_mmod_RMS_Derivative-OPLS-2005>
1.69326972961426

$$$$
18
                    3D
 Structure written by MMmdl.
151159  0  0  1  0            999 V2000
  -30.5093  -15.0345   20.3857 C   0  0  0  0  0  0
  -30.4321  -12.6407   19.5192 C   0  0  0  0  0  0
  -29.5251  -12.5474   18.2702 C   0  0  0  0  0  0
  -28.0614  -12.3123   18.6849 C   0  0  0  0  0  0
  -27.6207  -13.2584   19.8322 C   0  0  2  0  0  0
  -28.6561  -13.3301   20.9734 C   0  0  0  0  0  0
  -25.2413  -13.8234   20.5706 C   0  0  0  0  0  0
  -24.1744  -13.0440   20.9228 C   0  0  0  0  0  0
  -24.6374  -11.6934   20.8738 C   0  0  0  0  0  0
  -23.9071  -10.4296   21.0390 C   0  0  0  0  0  0
  -24.3625   -9.4214   21.9172 C   0  0  0  0  0  0
  -23.6301   -8.2245   22.0744 C   0  0  0  0  0  0
  -22.4278   -8.0278   21.3540 C   0  0  0  0  0  0
  -21.9915   -9.0248   20.4639 C   0  0  0  0  0  0
  -22.7237  -10.2132   20.3047 C   0  0  0  0  0  0
  -21.6863   -6.0734   22.5278 C   0  0  0  0  0  0
  -21.4018   -6.5633   23.8211 C   0  0  0  0  0  0
  -21.3666   -5.6783   24.9172 C   0  0  0  0  0  0
  -21.6048   -4.3047   24.7225 C   0  0  0  0  0  0
  -21.8815   -3.8142   23.4346 C   0  0  0  0  0  0
  -21.9193   -4.6961   22.3403 C   0  0  0  0  0  0
  -22.7764  -13.5202   21.1886 C   0  0  0  0  0  0
  -22.1657   -4.2145   21.0981 F   0  0  0  0  0  0
  -21.5638   -3.4531   25.7738 F   0  0  0  0  0  0
  -29.9240  -13.7608   20.3725 N   0  0  0  0  0  0
  -26.2831  -12.9480   20.3207 N   0  0  0  0  0  0
  -25.9305  -11.6605   20.5720 N   0  0  0  0  0  0
  -22.0421  -12.8196   22.0458 N   0  0  0  0  0  0
  -25.4079  -15.1960   20.4113 N   0  0  0  0  0  0
  -31.7249  -15.0513   20.1605 O   0  0  0  0  0  0
  -21.6646   -6.8872   21.4236 O   0  0  0  0  0  0
  -22.3447  -14.5504   20.6725 O   0  0  0  0  0  0
  -24.6501  -31.8367   23.1832 C   0  0  0  0  0  0
  -25.9241  -32.4658   23.8239 C   0  0  1  0  0  0
  -27.2067  -27.0535   20.1679 C   0  0  0  0  0  0
  -25.5963  -33.8467   24.2147 N   0  0  0  0  0  0
  -23.4572  -30.4561   21.5293 C   0  0  2  0  0  0
  -24.9076  -28.8692   20.1128 C   0  0  0  0  0  0
  -22.7593  -29.4515   22.4817 C   0  0  0  0  0  0
  -18.0307  -28.1404   22.8469 C   0  0  0  0  0  0
  -24.1500  -36.7239   23.2642 C   0  0  0  0  0  0
  -26.0207  -30.6838   21.3962 C   0  0  0  0  0  0
  -26.0889  -29.2874   20.7391 C   0  0  0  0  0  0
  -27.2397  -28.3981   20.7450 C   0  0  0  0  0  0
  -26.0008  -26.7615   19.4939 C   0  0  0  0  0  0
  -24.8817  -27.6228   19.4717 C   0  0  0  0  0  0
  -23.6891  -29.7826   20.1513 C   0  0  0  0  0  0
  -25.4138  -36.3007   24.0303 C   0  0  1  0  0  0
  -20.5928  -28.3735   23.1212 C   0  0  2  0  0  0
  -20.6795  -26.9426   22.5405 C   0  0  0  0  0  0
  -19.5774  -26.6382   21.5210 C   0  0  0  0  0  0
  -18.1951  -26.7940   22.1617 C   0  0  0  0  0  0
  -19.1568  -28.8888   23.2835 C   0  0  0  0  0  0
  -18.9480  -30.1479   23.8868 C   0  0  0  0  0  0
  -17.6475  -30.6598   24.0552 C   0  0  0  0  0  0
  -25.9088  -34.9386   23.5040 C   0  0  0  0  0  0
  -16.5364  -29.9087   23.6340 C   0  0  0  0  0  0
  -16.7290  -28.6509   23.0358 C   0  0  0  0  0  0
  -26.4537  -31.6558   25.0715 C   0  0  0  0  0  0
  -25.3690  -31.3777   26.1385 C   0  0  0  0  0  0
  -27.0392  -30.2932   24.6368 C   0  0  0  0  0  0
  -27.6058  -32.4336   25.7500 C   0  0  0  0  0  0
  -27.5579  -37.1777   24.8459 C   0  0  0  0  0  0
  -21.4279  -29.3048   22.3566 N   0  0  0  0  0  0
  -26.4293  -37.3729   23.9396 N   0  0  0  0  0  0
  -24.7298  -31.0154   22.0905 N   0  0  0  0  0  0
  -23.4203  -28.8055   23.2986 O   0  0  0  0  0  0
  -28.2324  -26.0143   20.2079 O   0  0  0  0  0  0
  -26.5681  -34.8890   22.4621 O   0  0  0  0  0  0
  -23.5600  -32.1265   23.7009 O   0  0  0  0  0  0
  -30.7223  -19.2989   18.2512 C   0  0  0  0  0  0
  -30.1625  -20.4545   18.8308 C   0  0  0  0  0  0
  -29.2547  -19.0077   20.5419 C   0  0  0  0  0  0
  -30.5632  -17.9885   18.7637 C   0  0  0  0  0  0
  -29.3647  -20.4150   19.9905 C   0  0  0  0  0  0
  -29.8739  -17.7384   19.9904 C   0  0  0  0  0  0
  -28.9120  -23.1694   20.0879 C   0  0  0  0  0  0
  -31.1001  -16.8801   17.8686 C   0  0  0  0  0  0
  -27.8881  -24.4710   20.4205 C   0  0  0  0  0  0
  -28.7002  -21.7701   20.4184 N   0  0  0  0  0  0
  -29.7364  -16.2552   20.4926 N   0  0  0  0  0  0
  -29.9577  -23.4786   19.5118 O   0  0  0  0  0  0
  -31.4667  -12.7973   19.2114 H   0  0  0  0  0  0
  -30.4294  -11.7004   20.0730 H   0  0  0  0  0  0
  -29.8629  -11.7483   17.6095 H   0  0  0  0  0  0
  -29.5994  -13.4729   17.6971 H   0  0  0  0  0  0
  -27.9737  -11.2749   19.0103 H   0  0  0  0  0  0
  -27.3997  -12.4187   17.8241 H   0  0  0  0  0  0
  -27.5697  -14.2511   19.3832 H   0  0  0  0  0  0
  -28.7584  -12.3672   21.4757 H   0  0  0  0  0  0
  -28.3371  -14.0455   21.7331 H   0  0  0  0  0  0
  -25.2763   -9.5697   22.4754 H   0  0  0  0  0  0
  -24.0013   -7.4638   22.7460 H   0  0  0  0  0  0
  -21.0845   -8.8754   19.8948 H   0  0  0  0  0  0
  -22.3670  -10.9670   19.6165 H   0  0  0  0  0  0
  -21.2003   -7.6135   23.9711 H   0  0  0  0  0  0
  -21.1499   -6.0515   25.9075 H   0  0  0  0  0  0
  -22.0591   -2.7605   23.2846 H   0  0  0  0  0  0
  -22.4054  -11.9878   22.4872 H   0  0  0  0  0  0
  -21.1033  -13.1207   22.2656 H   0  0  0  0  0  0
  -24.6348  -15.8463   20.5030 H   0  0  0  0  0  0
  -26.2498  -15.6321   20.0581 H   0  0  0  0  0  0
  -26.7300  -32.5230   23.0948 H   0  0  0  0  0  0
  -25.0054  -33.9576   25.0258 H   0  0  0  0  0  0
  -22.7634  -31.2844   21.3699 H   0  0  0  0  0  0
  -23.3769  -35.9565   23.3293 H   0  0  0  0  0  0
  -24.3577  -36.8888   22.2059 H   0  0  0  0  0  0
  -23.7257  -37.6428   23.6695 H   0  0  0  0  0  0
  -26.1877  -31.4335   20.6215 H   0  0  0  0  0  0
  -26.8874  -30.7345   22.0441 H   0  0  0  0  0  0
  -28.1389  -28.7128   21.2554 H   0  0  0  0  0  0
  -25.8887  -25.8201   18.9780 H   0  0  0  0  0  0
  -23.9845  -27.3016   18.9604 H   0  0  0  0  0  0
  -23.8294  -30.5544   19.3937 H   0  0  0  0  0  0
  -22.8022  -29.2289   19.8399 H   0  0  0  0  0  0
  -25.1338  -36.1817   25.0797 H   0  0  0  0  0  0
  -21.0025  -28.3340   24.1331 H   0  0  0  0  0  0
  -20.5675  -26.2345   23.3631 H   0  0  0  0  0  0
  -21.6660  -26.7416   22.1206 H   0  0  0  0  0  0
  -19.6932  -25.6283   21.1266 H   0  0  0  0  0  0
  -19.6729  -27.3170   20.6724 H   0  0  0  0  0  0
  -17.4217  -26.6673   21.4022 H   0  0  0  0  0  0
  -18.0355  -26.0093   22.9028 H   0  0  0  0  0  0
  -19.7952  -30.7305   24.2232 H   0  0  0  0  0  0
  -17.5023  -31.6276   24.5155 H   0  0  0  0  0  0
  -15.5364  -30.2975   23.7694 H   0  0  0  0  0  0
  -15.8685  -28.0818   22.7096 H   0  0  0  0  0  0
  -24.5893  -30.7100   25.7698 H   0  0  0  0  0  0
  -24.8847  -32.2964   26.4703 H   0  0  0  0  0  0
  -25.7944  -30.9017   27.0226 H   0  0  0  0  0  0
  -26.3015  -29.6648   24.1361 H   0  0  0  0  0  0
  -27.3928  -29.7255   25.4986 H   0  0  0  0  0  0
  -27.8967  -30.4125   23.9744 H   0  0  0  0  0  0
  -27.2650  -33.3663   26.2005 H   0  0  0  0  0  0
  -28.3907  -32.6852   25.0356 H   0  0  0  0  0  0
  -28.0677  -31.8500   26.5472 H   0  0  0  0  0  0
  -28.2585  -38.0085   24.7499 H   0  0  0  0  0  0
  -28.1090  -36.2609   24.6300 H   0  0  0  0  0  0
  -27.2285  -37.1432   25.8859 H   0  0  0  0  0  0
  -20.9489  -29.8743   21.6729 H   0  0  0  0  0  0
  -26.0151  -38.2790   24.1411 H   0  0  0  0  0  0
  -31.2699  -19.4331   17.3288 H   0  0  0  0  0  0
  -30.3224  -21.3860   18.3097 H   0  0  0  0  0  0
  -28.6547  -18.8929   21.4333 H   0  0  0  0  0  0
  -31.2052  -17.2220   16.8384 H   0  0  0  0  0  0
  -30.4260  -16.0251   17.8308 H   0  0  0  0  0  0
  -32.0869  -16.5562   18.1952 H   0  0  0  0  0  0
  -27.6126  -24.3687   21.4700 H   0  0  0  0  0  0
  -26.9792  -24.2362   19.8708 H   0  0  0  0  0  0
  -27.8995  -21.6466   21.0246 H   0  0  0  0  0  0
  -28.8307  -16.0694   20.8981 H   0  0  0  0  0  0
  1 25  1  0  0  0
  1 30  2  0  0  0
  1 81  1  0  0  0
  2  3  1  0  0  0
  2 25  1  0  0  0
  2 83  1  0  0  0
  2 84  1  0  0  0
  3  4  1  0  0  0
  3 85  1  0  0  0
  3 86  1  0  0  0
  4  5  1  0  0  0
  4 87  1  0  0  0
  4 88  1  0  0  0
  5  6  1  0  0  0
  5 26  1  0  0  0
  5 89  1  0  0  0
  6 25  1  0  0  0
  6 90  1  0  0  0
  6 91  1  0  0  0
  7  8  2  0  0  0
  7 26  1  0  0  0
  7 29  1  0  0  0
  8  9  1  0  0  0
  8 22  1  0  0  0
  9 10  1  0  0  0
  9 27  2  0  0  0
 10 11  2  0  0  0
 10 15  1  0  0  0
 11 12  1  0  0  0
 11 92  1  0  0  0
 12 13  2  0  0  0
 12 93  1  0  0  0
 13 14  1  0  0  0
 13 31  1  0  0  0
 14 15  2  0  0  0
 14 94  1  0  0  0
 15 95  1  0  0  0
 16 17  2  0  0  0
 16 21  1  0  0  0
 16 31  1  0  0  0
 17 18  1  0  0  0
 17 96  1  0  0  0
 18 19  2  0  0  0
 18 97  1  0  0  0
 19 20  1  0  0  0
 19 24  1  0  0  0
 20 21  2  0  0  0
 20 98  1  0  0  0
 21 23  1  0  0  0
 22 28  1  0  0  0
 22 32  2  0  0  0
 26 27  1  0  0  0
 28 99  1  0  0  0
 28100  1  0  0  0
 29101  1  0  0  0
 29102  1  0  0  0
 33 34  1  0  0  0
 33 66  1  0  0  0
 33 70  2  0  0  0
 34 36  1  0  0  0
 34 59  1  0  0  0
 34103  1  0  0  0
 35 44  2  0  0  0
 35 45  1  0  0  0
 35 68  1  0  0  0
 36 56  1  0  0  0
 36104  1  0  0  0
 37 39  1  0  0  0
 37 47  1  0  0  0
 37 66  1  0  0  0
 37105  1  0  0  0
 38 43  2  0  0  0
 38 46  1  0  0  0
 38 47  1  0  0  0
 39 64  1  0  0  0
 39 67  2  0  0  0
 40 52  1  0  0  0
 40 53  2  0  0  0
 40 58  1  0  0  0
 41106  1  0  0  0
 41107  1  0  0  0
 41108  1  0  0  0
 41 48  1  0  0  0
 42 43  1  0  0  0
 42 66  1  0  0  0
 42109  1  0  0  0
 42110  1  0  0  0
 43 44  1  0  0  0
 44111  1  0  0  0
 45 46  2  0  0  0
 45112  1  0  0  0
 46113  1  0  0  0
 47114  1  0  0  0
 47115  1  0  0  0
 48 56  1  0  0  0
 48 65  1  0  0  0
 48116  1  0  0  0
 49 50  1  0  0  0
 49 53  1  0  0  0
 49 64  1  0  0  0
 49117  1  0  0  0
 50 51  1  0  0  0
 50118  1  0  0  0
 50119  1  0  0  0
 51 52  1  0  0  0
 51120  1  0  0  0
 51121  1  0  0  0
 52122  1  0  0  0
 52123  1  0  0  0
 53 54  1  0  0  0
 54 55  2  0  0  0
 54124  1  0  0  0
 55 57  1  0  0  0
 55125  1  0  0  0
 56 69  2  0  0  0
 57 58  2  0  0  0
 57126  1  0  0  0
 58127  1  0  0  0
 59 60  1  0  0  0
 59 61  1  0  0  0
 59 62  1  0  0  0
 60128  1  0  0  0
 60129  1  0  0  0
 60130  1  0  0  0
 61131  1  0  0  0
 61132  1  0  0  0
 61133  1  0  0  0
 62134  1  0  0  0
 62135  1  0  0  0
 62136  1  0  0  0
 63 65  1  0  0  0
 63137  1  0  0  0
 63138  1  0  0  0
 63139  1  0  0  0
 64140  1  0  0  0
 65141  1  0  0  0
 68 79  1  0  0  0
 71 72  2  0  0  0
 71 74  1  0  0  0
 71142  1  0  0  0
 72 75  1  0  0  0
 72143  1  0  0  0
 73 75  2  0  0  0
 73 76  1  0  0  0
 73144  1  0  0  0
 74 76  2  0  0  0
 74 78  1  0  0  0
 75 80  1  0  0  0
 76 81  1  0  0  0
 77 79  1  0  0  0
 77 80  1  0  0  0
 77 82  2  0  0  0
 78145  1  0  0  0
 78146  1  0  0  0
 78147  1  0  0  0
 79148  1  0  0  0
 79149  1  0  0  0
 80150  1  0  0  0
 81151  1  0  0  0
M  ISO  4   1 100  68 101  79 101  81 100
M  END
> <chiral flag>
0

> <version>
0

> <s_m_source_file>
/data/baiqing/PycharmProjects/Reinvent-master-3.2/result/LINK_invent/BTK/process_docking_weight1_custom_sum_contain_oxygen_bond_distance_aromatic_linkinvent_7_9_3/rearranged_h_0011.sdf

> <i_m_source_file_index>
19

> <r_mmod_Potential_Energy-OPLS-2005>
673.522644042969

> <r_mmod_Stretch_Energy-OPLS-2005>
352.658050537109

> <r_mmod_Bend_Energy-OPLS-2005>
280.105407714844

> <r_mmod_Torsional_Energy-OPLS-2005>
251.6455078125

> <r_mmod_Improper_Torsional_Energy-OPLS-2005>
4.40817928314209

> <r_mmod_Van_der_Waal_Energy-OPLS-2005>
139.313140869141

> <r_mmod_Electrostatic_Energy-OPLS-2005>
-373.104370117188

> <r_mmod_Solvation_Energy-OPLS-2005>
-246.392364501953

> <b_mmod_Minimization_Converged-OPLS-2005>
0

> <r_mmod_RMS_Derivative-OPLS-2005>
1.38969492912292

$$$$
19
                    3D
 Structure written by MMmdl.
148156  0  0  1  0            999 V2000
  -30.5122  -14.9218   20.4210 C   0  0  0  0  0  0
  -30.4531  -12.5665   19.4870 C   0  0  0  0  0  0
  -29.5248  -12.5329   18.2489 C   0  0  0  0  0  0
  -28.0554  -12.3215   18.6638 C   0  0  0  0  0  0
  -27.6372  -13.2379   19.8425 C   0  0  2  0  0  0
  -28.6832  -13.2237   20.9788 C   0  0  0  0  0  0
  -25.2494  -13.8187   20.5681 C   0  0  0  0  0  0
  -24.1803  -13.0433   20.9229 C   0  0  0  0  0  0
  -24.6403  -11.6915   20.8752 C   0  0  0  0  0  0
  -23.9077  -10.4290   21.0406 C   0  0  0  0  0  0
  -24.3623   -9.4205   21.9184 C   0  0  0  0  0  0
  -23.6292   -8.2244   22.0754 C   0  0  0  0  0  0
  -22.4273   -8.0285   21.3544 C   0  0  0  0  0  0
  -21.9912   -9.0261   20.4649 C   0  0  0  0  0  0
  -22.7246  -10.2135   20.3058 C   0  0  0  0  0  0
  -21.6854   -6.0731   22.5275 C   0  0  0  0  0  0
  -21.4015   -6.5633   23.8208 C   0  0  0  0  0  0
  -21.3662   -5.6786   24.9171 C   0  0  0  0  0  0
  -21.6044   -4.3049   24.7222 C   0  0  0  0  0  0
  -21.8820   -3.8140   23.4345 C   0  0  0  0  0  0
  -21.9192   -4.6957   22.3399 C   0  0  0  0  0  0
  -22.7822  -13.5216   21.1875 C   0  0  0  0  0  0
  -22.1662   -4.2142   21.0977 F   0  0  0  0  0  0
  -21.5629   -3.4536   25.7739 F   0  0  0  0  0  0
  -29.9663  -13.6413   20.3934 N   0  0  0  0  0  0
  -26.2920  -12.9402   20.3233 N   0  0  0  0  0  0
  -25.9333  -11.6544   20.5726 N   0  0  0  0  0  0
  -22.0461  -12.8217   22.0433 N   0  0  0  0  0  0
  -25.4154  -15.1905   20.4032 N   0  0  0  0  0  0
  -31.7048  -15.0554   20.1240 O   0  0  0  0  0  0
  -21.6639   -6.8880   21.4240 O   0  0  0  0  0  0
  -22.3514  -14.5518   20.6710 O   0  0  0  0  0  0
  -24.6443  -31.8448   23.1896 C   0  0  0  0  0  0
  -25.9216  -32.4698   23.8287 C   0  0  1  0  0  0
  -27.2194  -27.1412   20.1396 C   0  0  0  0  0  0
  -25.5963  -33.8505   24.2200 N   0  0  0  0  0  0
  -23.4478  -30.4658   21.5355 C   0  0  2  0  0  0
  -24.8972  -28.8971   20.1102 C   0  0  0  0  0  0
  -22.7577  -29.4550   22.4860 C   0  0  0  0  0  0
  -18.0311  -28.1393   22.8478 C   0  0  0  0  0  0
  -24.1495  -36.7256   23.2642 C   0  0  0  0  0  0
  -26.0052  -30.7192   21.3896 C   0  0  0  0  0  0
  -26.0767  -29.3319   20.7282 C   0  0  0  0  0  0
  -27.2386  -28.4703   20.7274 C   0  0  0  0  0  0
  -26.0107  -26.8123   19.4826 C   0  0  0  0  0  0
  -24.8768  -27.6494   19.4737 C   0  0  0  0  0  0
  -23.6743  -29.7989   20.1540 C   0  0  0  0  0  0
  -25.4127  -36.3034   24.0315 C   0  0  1  0  0  0
  -20.5925  -28.3720   23.1235 C   0  0  2  0  0  0
  -20.6794  -26.9423   22.5404 C   0  0  0  0  0  0
  -19.5763  -26.6377   21.5215 C   0  0  0  0  0  0
  -18.1947  -26.7930   22.1628 C   0  0  0  0  0  0
  -19.1569  -28.8877   23.2847 C   0  0  0  0  0  0
  -18.9480  -30.1472   23.8872 C   0  0  0  0  0  0
  -17.6474  -30.6587   24.0560 C   0  0  0  0  0  0
  -25.9076  -34.9406   23.5066 C   0  0  0  0  0  0
  -16.5368  -29.9079   23.6333 C   0  0  0  0  0  0
  -16.7296  -28.6499   23.0353 C   0  0  0  0  0  0
  -26.4529  -31.6564   25.0728 C   0  0  0  0  0  0
  -25.3706  -31.3765   26.1420 C   0  0  0  0  0  0
  -27.0385  -30.2951   24.6320 C   0  0  0  0  0  0
  -27.6061  -32.4328   25.7511 C   0  0  0  0  0  0
  -27.5573  -37.1796   24.8471 C   0  0  0  0  0  0
  -21.4268  -29.3048   22.3606 N   0  0  0  0  0  0
  -26.4295  -37.3739   23.9395 N   0  0  0  0  0  0
  -24.7189  -31.0306   22.0930 N   0  0  0  0  0  0
  -23.4222  -28.8090   23.3003 O   0  0  0  0  0  0
  -28.2628  -26.1435   20.2061 O   0  0  0  0  0  0
  -26.5660  -34.8903   22.4643 O   0  0  0  0  0  0
  -23.5560  -32.1329   23.7109 O   0  0  0  0  0  0
  -30.5556  -18.5556   20.3651 C   0  0  0  0  0  0
  -30.2820  -19.9982   20.2907 C   0  0  0  0  0  0
  -28.2396  -18.1427   20.4896 C   0  0  0  0  0  0
  -29.5376  -17.5370   20.4734 C   0  0  0  0  0  0
  -28.9593  -20.5786   20.3041 C   0  0  0  0  0  0
  -27.9644  -19.5572   20.3992 C   0  0  0  0  0  0
  -28.9304  -23.3609   20.2667 C   0  0  0  0  0  0
  -27.9099  -24.6404   20.0006 C   0  0  0  0  0  0
  -28.4680  -22.0258   20.1786 N   0  0  0  0  0  0
  -29.6243  -16.0086   20.6072 N   0  0  0  0  0  0
  -30.1122  -23.5927   20.5350 O   0  0  0  0  0  0
  -26.6671  -19.9507   20.4038 F   0  0  0  0  0  0
  -31.4844  -12.7383   19.1752 H   0  0  0  0  0  0
  -30.4520  -11.6030   19.9989 H   0  0  0  0  0  0
  -29.8366  -11.7451   17.5617 H   0  0  0  0  0  0
  -29.6166  -13.4710   17.6997 H   0  0  0  0  0  0
  -27.9406  -11.2757   18.9515 H   0  0  0  0  0  0
  -27.3953  -12.4769   17.8097 H   0  0  0  0  0  0
  -27.6101  -14.2476   19.4324 H   0  0  0  0  0  0
  -28.7617  -12.2309   21.4245 H   0  0  0  0  0  0
  -28.3859  -13.8962   21.7849 H   0  0  0  0  0  0
  -25.2767   -9.5674   22.4762 H   0  0  0  0  0  0
  -23.9995   -7.4633   22.7476 H   0  0  0  0  0  0
  -21.0839   -8.8784   19.8959 H   0  0  0  0  0  0
  -22.3705  -10.9676   19.6171 H   0  0  0  0  0  0
  -21.2010   -7.6141   23.9709 H   0  0  0  0  0  0
  -21.1483   -6.0517   25.9072 H   0  0  0  0  0  0
  -22.0596   -2.7603   23.2848 H   0  0  0  0  0  0
  -22.4073  -11.9888   22.4838 H   0  0  0  0  0  0
  -21.1080  -13.1251   22.2629 H   0  0  0  0  0  0
  -24.6299  -15.8279   20.4806 H   0  0  0  0  0  0
  -26.2201  -15.6099   19.9582 H   0  0  0  0  0  0
  -26.7284  -32.5304   23.1019 H   0  0  0  0  0  0
  -25.0087  -33.9620   25.0332 H   0  0  0  0  0  0
  -22.7507  -31.2922   21.3828 H   0  0  0  0  0  0
  -23.3749  -35.9597   23.3319 H   0  0  0  0  0  0
  -24.3573  -36.8871   22.2053 H   0  0  0  0  0  0
  -23.7267  -37.6465   23.6669 H   0  0  0  0  0  0
  -26.1638  -31.4760   20.6202 H   0  0  0  0  0  0
  -26.8746  -30.7664   22.0337 H   0  0  0  0  0  0
  -28.1353  -28.7977   21.2346 H   0  0  0  0  0  0
  -25.8960  -25.8642   18.9812 H   0  0  0  0  0  0
  -23.9771  -27.3112   18.9782 H   0  0  0  0  0  0
  -23.8123  -30.5751   19.4004 H   0  0  0  0  0  0
  -22.7889  -29.2427   19.8418 H   0  0  0  0  0  0
  -25.1316  -36.1868   25.0809 H   0  0  0  0  0  0
  -21.0023  -28.3313   24.1353 H   0  0  0  0  0  0
  -20.5685  -26.2336   23.3623 H   0  0  0  0  0  0
  -21.6660  -26.7422   22.1202 H   0  0  0  0  0  0
  -19.6920  -25.6282   21.1257 H   0  0  0  0  0  0
  -19.6691  -27.3176   20.6736 H   0  0  0  0  0  0
  -17.4212  -26.6677   21.4036 H   0  0  0  0  0  0
  -18.0343  -26.0079   22.9031 H   0  0  0  0  0  0
  -19.7955  -30.7300   24.2228 H   0  0  0  0  0  0
  -17.5024  -31.6263   24.5165 H   0  0  0  0  0  0
  -15.5366  -30.2968   23.7664 H   0  0  0  0  0  0
  -15.8700  -28.0805   22.7076 H   0  0  0  0  0  0
  -24.5890  -30.7107   25.7742 H   0  0  0  0  0  0
  -24.8890  -32.2951   26.4780 H   0  0  0  0  0  0
  -25.7980  -30.8981   27.0239 H   0  0  0  0  0  0
  -26.3004  -29.6679   24.1307 H   0  0  0  0  0  0
  -27.3959  -29.7249   25.4905 H   0  0  0  0  0  0
  -27.8931  -30.4168   23.9663 H   0  0  0  0  0  0
  -27.2655  -33.3642   26.2046 H   0  0  0  0  0  0
  -28.3893  -32.6869   25.0356 H   0  0  0  0  0  0
  -28.0707  -31.8484   26.5461 H   0  0  0  0  0  0
  -28.2614  -38.0066   24.7468 H   0  0  0  0  0  0
  -28.1045  -36.2596   24.6362 H   0  0  0  0  0  0
  -27.2283  -37.1523   25.8873 H   0  0  0  0  0  0
  -20.9479  -29.8766   21.6786 H   0  0  0  0  0  0
  -26.0164  -38.2816   24.1359 H   0  0  0  0  0  0
  -31.5893  -18.2394   20.3456 H   0  0  0  0  0  0
  -31.1257  -20.6684   20.2073 H   0  0  0  0  0  0
  -27.3790  -17.4966   20.5727 H   0  0  0  0  0  0
  -27.0217  -24.4352   20.5988 H   0  0  0  0  0  0
  -27.6067  -24.5279   18.9598 H   0  0  0  0  0  0
  -27.4699  -22.0293   20.0105 H   0  0  0  0  0  0
  -28.7206  -15.6158   20.8204 H   0  0  0  0  0  0
  1 25  1  0  0  0
  1 30  2  0  0  0
  1 80  1  0  0  0
  2  3  1  0  0  0
  2 25  1  0  0  0
  2 83  1  0  0  0
  2 84  1  0  0  0
  3  4  1  0  0  0
  3 85  1  0  0  0
  3 86  1  0  0  0
  4  5  1  0  0  0
  4 87  1  0  0  0
  4 88  1  0  0  0
  5  6  1  0  0  0
  5 26  1  0  0  0
  5 89  1  0  0  0
  6 25  1  0  0  0
  6 90  1  0  0  0
  6 91  1  0  0  0
  7  8  2  0  0  0
  7 26  1  0  0  0
  7 29  1  0  0  0
  8  9  1  0  0  0
  8 22  1  0  0  0
  9 10  1  0  0  0
  9 27  2  0  0  0
 10 11  2  0  0  0
 10 15  1  0  0  0
 11 12  1  0  0  0
 11 92  1  0  0  0
 12 13  2  0  0  0
 12 93  1  0  0  0
 13 14  1  0  0  0
 13 31  1  0  0  0
 14 15  2  0  0  0
 14 94  1  0  0  0
 15 95  1  0  0  0
 16 17  2  0  0  0
 16 21  1  0  0  0
 16 31  1  0  0  0
 17 18  1  0  0  0
 17 96  1  0  0  0
 18 19  2  0  0  0
 18 97  1  0  0  0
 19 20  1  0  0  0
 19 24  1  0  0  0
 20 21  2  0  0  0
 20 98  1  0  0  0
 21 23  1  0  0  0
 22 28  1  0  0  0
 22 32  2  0  0  0
 26 27  1  0  0  0
 28 99  1  0  0  0
 28100  1  0  0  0
 29101  1  0  0  0
 29102  1  0  0  0
 33 34  1  0  0  0
 33 66  1  0  0  0
 33 70  2  0  0  0
 34 36  1  0  0  0
 34 59  1  0  0  0
 34103  1  0  0  0
 35 44  2  0  0  0
 35 45  1  0  0  0
 35 68  1  0  0  0
 36 56  1  0  0  0
 36104  1  0  0  0
 37 39  1  0  0  0
 37 47  1  0  0  0
 37 66  1  0  0  0
 37105  1  0  0  0
 38 43  2  0  0  0
 38 46  1  0  0  0
 38 47  1  0  0  0
 39 64  1  0  0  0
 39 67  2  0  0  0
 40 52  1  0  0  0
 40 53  2  0  0  0
 40 58  1  0  0  0
 41106  1  0  0  0
 41107  1  0  0  0
 41108  1  0  0  0
 41 48  1  0  0  0
 42 43  1  0  0  0
 42 66  1  0  0  0
 42109  1  0  0  0
 42110  1  0  0  0
 43 44  1  0  0  0
 44111  1  0  0  0
 45 46  2  0  0  0
 45112  1  0  0  0
 46113  1  0  0  0
 47114  1  0  0  0
 47115  1  0  0  0
 48 56  1  0  0  0
 48 65  1  0  0  0
 48116  1  0  0  0
 49 50  1  0  0  0
 49 53  1  0  0  0
 49 64  1  0  0  0
 49117  1  0  0  0
 50 51  1  0  0  0
 50118  1  0  0  0
 50119  1  0  0  0
 51 52  1  0  0  0
 51120  1  0  0  0
 51121  1  0  0  0
 52122  1  0  0  0
 52123  1  0  0  0
 53 54  1  0  0  0
 54 55  2  0  0  0
 54124  1  0  0  0
 55 57  1  0  0  0
 55125  1  0  0  0
 56 69  2  0  0  0
 57 58  2  0  0  0
 57126  1  0  0  0
 58127  1  0  0  0
 59 60  1  0  0  0
 59 61  1  0  0  0
 59 62  1  0  0  0
 60128  1  0  0  0
 60129  1  0  0  0
 60130  1  0  0  0
 61131  1  0  0  0
 61132  1  0  0  0
 61133  1  0  0  0
 62134  1  0  0  0
 62135  1  0  0  0
 62136  1  0  0  0
 63 65  1  0  0  0
 63137  1  0  0  0
 63138  1  0  0  0
 63139  1  0  0  0
 64140  1  0  0  0
 65141  1  0  0  0
 68 78  1  0  0  0
 71 72  2  0  0  0
 71 74  1  0  0  0
 71142  1  0  0  0
 72 75  1  0  0  0
 72143  1  0  0  0
 73 74  2  0  0  0
 73 76  1  0  0  0
 73144  1  0  0  0
 74 80  1  0  0  0
 75 76  2  0  0  0
 75 79  1  0  0  0
 76 82  1  0  0  0
 77 78  1  0  0  0
 77 79  1  0  0  0
 77 81  2  0  0  0
 78145  1  0  0  0
 78146  1  0  0  0
 79147  1  0  0  0
 80148  1  0  0  0
M  ISO  4   1 100  68 101  78 101  80 100
M  END
> <chiral flag>
0

> <version>
0

> <s_m_source_file>
/data/baiqing/PycharmProjects/Reinvent-master-3.2/result/LINK_invent/BTK/process_docking_weight1_custom_sum_contain_oxygen_bond_distance_aromatic_linkinvent_7_9_3/rearranged_h_0011.sdf

> <i_m_source_file_index>
20

> <r_mmod_Potential_Energy-OPLS-2005>
408.086791992188

> <r_mmod_Stretch_Energy-OPLS-2005>
218.79460144043

> <r_mmod_Bend_Energy-OPLS-2005>
281.798767089844

> <r_mmod_Torsional_Energy-OPLS-2005>
220.497772216797

> <r_mmod_Improper_Torsional_Energy-OPLS-2005>
5.07187652587891

> <r_mmod_Van_der_Waal_Energy-OPLS-2005>
130.193206787109

> <r_mmod_Electrostatic_Energy-OPLS-2005>
-389.395721435547

> <r_mmod_Solvation_Energy-OPLS-2005>
-242.372695922852

> <b_mmod_Minimization_Converged-OPLS-2005>
0

> <r_mmod_RMS_Derivative-OPLS-2005>
0.813941478729248

$$$$
20
                    3D
 Structure written by MMmdl.
160168  0  0  1  0            999 V2000
  -30.7223  -14.4891   20.6227 C   0  0  0  0  0  0
  -30.4258  -12.3425   19.4269 C   0  0  0  0  0  0
  -29.4970  -12.5314   18.2103 C   0  0  0  0  0  0
  -28.0206  -12.3749   18.6216 C   0  0  0  0  0  0
  -27.6616  -13.2138   19.8775 C   0  0  2  0  0  0
  -28.7032  -13.0115   21.0012 C   0  0  0  0  0  0
  -25.2580  -13.8167   20.5672 C   0  0  0  0  0  0
  -24.1842  -13.0432   20.9161 C   0  0  0  0  0  0
  -24.6406  -11.6900   20.8716 C   0  0  0  0  0  0
  -23.9075  -10.4291   21.0390 C   0  0  0  0  0  0
  -24.3622   -9.4208   21.9170 C   0  0  0  0  0  0
  -23.6292   -8.2245   22.0750 C   0  0  0  0  0  0
  -22.4278   -8.0286   21.3545 C   0  0  0  0  0  0
  -21.9916   -9.0252   20.4638 C   0  0  0  0  0  0
  -22.7248  -10.2126   20.3037 C   0  0  0  0  0  0
  -21.6854   -6.0735   22.5278 C   0  0  0  0  0  0
  -21.4011   -6.5638   23.8211 C   0  0  0  0  0  0
  -21.3650   -5.6793   24.9168 C   0  0  0  0  0  0
  -21.6052   -4.3059   24.7221 C   0  0  0  0  0  0
  -21.8823   -3.8148   23.4344 C   0  0  0  0  0  0
  -21.9195   -4.6966   22.3399 C   0  0  0  0  0  0
  -22.7869  -13.5229   21.1840 C   0  0  0  0  0  0
  -22.1664   -4.2157   21.0979 F   0  0  0  0  0  0
  -21.5629   -3.4547   25.7737 F   0  0  0  0  0  0
  -30.0323  -13.3259   20.4514 N   0  0  0  0  0  0
  -26.3029  -12.9348   20.3368 N   0  0  0  0  0  0
  -25.9340  -11.6498   20.5754 N   0  0  0  0  0  0
  -22.0516  -12.8187   22.0378 N   0  0  0  0  0  0
  -25.4302  -15.1880   20.4060 N   0  0  0  0  0  0
  -31.8359  -14.6670   20.1187 O   0  0  0  0  0  0
  -21.6646   -6.8879   21.4243 O   0  0  0  0  0  0
  -22.3544  -14.5548   20.6729 O   0  0  0  0  0  0
  -24.6197  -31.8666   23.2078 C   0  0  0  0  0  0
  -25.9080  -32.4813   23.8385 C   0  0  1  0  0  0
  -27.2312  -27.3974   20.0856 C   0  0  0  0  0  0
  -25.5916  -33.8606   24.2310 N   0  0  0  0  0  0
  -23.4085  -30.4918   21.5502 C   0  0  2  0  0  0
  -24.8534  -28.9582   20.1119 C   0  0  0  0  0  0
  -22.7440  -29.4668   22.4979 C   0  0  0  0  0  0
  -18.0277  -28.1393   22.8486 C   0  0  0  0  0  0
  -24.1470  -36.7281   23.2618 C   0  0  0  0  0  0
  -25.9433  -30.8181   21.3699 C   0  0  0  0  0  0
  -26.0179  -29.4511   20.7129 C   0  0  0  0  0  0
  -27.2073  -28.6777   20.7000 C   0  0  0  0  0  0
  -26.0432  -26.9423   19.4633 C   0  0  0  0  0  0
  -24.8628  -27.7040   19.4858 C   0  0  0  0  0  0
  -23.6178  -29.8281   20.1644 C   0  0  0  0  0  0
  -25.4090  -36.3094   24.0333 C   0  0  1  0  0  0
  -20.5879  -28.3691   23.1306 C   0  0  2  0  0  0
  -20.6775  -26.9418   22.5419 C   0  0  0  0  0  0
  -19.5749  -26.6392   21.5209 C   0  0  0  0  0  0
  -18.1918  -26.7943   22.1604 C   0  0  0  0  0  0
  -19.1531  -28.8856   23.2889 C   0  0  0  0  0  0
  -18.9458  -30.1453   23.8920 C   0  0  0  0  0  0
  -17.6462  -30.6599   24.0576 C   0  0  0  0  0  0
  -25.9059  -34.9472   23.5132 C   0  0  0  0  0  0
  -16.5354  -29.9109   23.6322 C   0  0  0  0  0  0
  -16.7267  -28.6522   23.0351 C   0  0  0  0  0  0
  -26.4481  -31.6594   25.0725 C   0  0  0  0  0  0
  -25.3710  -31.3714   26.1444 C   0  0  0  0  0  0
  -27.0303  -30.3035   24.6115 C   0  0  0  0  0  0
  -27.6051  -32.4311   25.7506 C   0  0  0  0  0  0
  -27.5604  -37.1736   24.8419 C   0  0  0  0  0  0
  -21.4166  -29.3056   22.3710 N   0  0  0  0  0  0
  -26.4252  -37.3812   23.9479 N   0  0  0  0  0  0
  -24.6761  -31.0734   22.1002 N   0  0  0  0  0  0
  -23.4180  -28.8201   23.3047 O   0  0  0  0  0  0
  -28.3846  -26.6190   20.1167 O   0  0  0  0  0  0
  -26.5632  -34.8931   22.4704 O   0  0  0  0  0  0
  -23.5382  -32.1435   23.7450 O   0  0  0  0  0  0
  -31.6196  -19.4073   22.0005 C   0  0  0  0  0  0
  -31.8236  -16.9827   22.1352 C   0  0  0  0  0  0
  -32.3424  -18.2658   22.3895 C   0  0  0  0  0  0
  -29.8096  -17.9893   21.1733 C   0  0  0  0  0  0
  -30.3595  -19.3000   21.3637 C   0  0  0  0  0  0
  -30.5664  -16.8202   21.5094 C   0  0  0  0  0  0
  -30.0507  -21.7499   20.7222 C   0  0  0  0  0  0
  -33.6939  -18.4291   23.0578 C   0  0  0  0  0  0
  -28.4053  -17.8548   20.6000 C   0  0  0  0  0  0
  -29.0267  -22.7549   20.1474 C   0  0  0  0  0  0
  -29.3683  -24.2741   20.3266 C   0  0  0  0  0  0
  -28.2352  -25.2064   19.8215 C   0  0  0  0  0  0
  -29.6332  -20.4708   20.9222 N   0  0  0  0  0  0
  -30.0755  -15.4870   21.2702 N   0  0  0  0  0  0
  -31.1936  -22.1489   20.9547 O   0  0  0  0  0  0
  -31.4677  -12.4512   19.1216 H   0  0  0  0  0  0
  -30.3391  -11.3303   19.8258 H   0  0  0  0  0  0
  -29.7472  -11.8161   17.4260 H   0  0  0  0  0  0
  -29.6515  -13.5225   17.7791 H   0  0  0  0  0  0
  -27.8427  -11.3170   18.8151 H   0  0  0  0  0  0
  -27.3691  -12.6488   17.7907 H   0  0  0  0  0  0
  -27.7002  -14.2614   19.5764 H   0  0  0  0  0  0
  -28.6898  -11.9782   21.3502 H   0  0  0  0  0  0
  -28.4556  -13.6173   21.8734 H   0  0  0  0  0  0
  -25.2762   -9.5686   22.4744 H   0  0  0  0  0  0
  -24.0005   -7.4642   22.7471 H   0  0  0  0  0  0
  -21.0849   -8.8768   19.8937 H   0  0  0  0  0  0
  -22.3715  -10.9663   19.6142 H   0  0  0  0  0  0
  -21.1995   -7.6143   23.9712 H   0  0  0  0  0  0
  -21.1468   -6.0523   25.9071 H   0  0  0  0  0  0
  -22.0610   -2.7614   23.2848 H   0  0  0  0  0  0
  -22.4145  -11.9815   22.4691 H   0  0  0  0  0  0
  -21.1131  -13.1190   22.2620 H   0  0  0  0  0  0
  -24.6604  -15.8414   20.4955 H   0  0  0  0  0  0
  -26.2754  -15.6186   20.0553 H   0  0  0  0  0  0
  -26.7149  -32.5509   23.1143 H   0  0  0  0  0  0
  -25.0075  -33.9759   25.0466 H   0  0  0  0  0  0
  -22.6985  -31.3089   21.4087 H   0  0  0  0  0  0
  -23.3802  -35.9534   23.3140 H   0  0  0  0  0  0
  -24.3594  -36.9061   22.2062 H   0  0  0  0  0  0
  -23.7098  -37.6383   23.6736 H   0  0  0  0  0  0
  -26.0583  -31.5830   20.6011 H   0  0  0  0  0  0
  -26.8311  -30.8711   21.9883 H   0  0  0  0  0  0
  -28.1045  -29.0474   21.1770 H   0  0  0  0  0  0
  -25.9949  -25.9932   18.9504 H   0  0  0  0  0  0
  -23.9710  -27.3206   19.0094 H   0  0  0  0  0  0
  -23.7281  -30.6038   19.4060 H   0  0  0  0  0  0
  -22.7407  -29.2513   19.8652 H   0  0  0  0  0  0
  -25.1237  -36.1935   25.0817 H   0  0  0  0  0  0
  -20.9948  -28.3258   24.1436 H   0  0  0  0  0  0
  -20.5693  -26.2301   23.3611 H   0  0  0  0  0  0
  -21.6644  -26.7450   22.1202 H   0  0  0  0  0  0
  -19.6927  -25.6304   21.1229 H   0  0  0  0  0  0
  -19.6710  -27.3214   20.6757 H   0  0  0  0  0  0
  -17.4197  -26.6722   21.3981 H   0  0  0  0  0  0
  -18.0285  -26.0062   22.8969 H   0  0  0  0  0  0
  -19.7932  -30.7257   24.2306 H   0  0  0  0  0  0
  -17.5018  -31.6282   24.5167 H   0  0  0  0  0  0
  -15.5359  -30.3034   23.7645 H   0  0  0  0  0  0
  -15.8655  -28.0860   22.7075 H   0  0  0  0  0  0
  -24.5962  -30.6968   25.7773 H   0  0  0  0  0  0
  -24.8809  -32.2865   26.4788 H   0  0  0  0  0  0
  -25.8044  -30.8971   27.0256 H   0  0  0  0  0  0
  -26.2851  -29.6816   24.1137 H   0  0  0  0  0  0
  -27.4027  -29.7260   25.4587 H   0  0  0  0  0  0
  -27.8708  -30.4345   23.9293 H   0  0  0  0  0  0
  -27.2681  -33.3636   26.2043 H   0  0  0  0  0  0
  -28.3903  -32.6816   25.0358 H   0  0  0  0  0  0
  -28.0651  -31.8438   26.5461 H   0  0  0  0  0  0
  -28.2434  -38.0215   24.7767 H   0  0  0  0  0  0
  -28.1288  -36.2777   24.5857 H   0  0  0  0  0  0
  -27.2370  -37.0908   25.8812 H   0  0  0  0  0  0
  -20.9344  -29.8768   21.6911 H   0  0  0  0  0  0
  -26.0121  -38.2843   24.1676 H   0  0  0  0  0  0
  -32.0626  -20.3678   22.2145 H   0  0  0  0  0  0
  -32.3990  -16.1148   22.4313 H   0  0  0  0  0  0
  -33.7544  -19.3765   23.5945 H   0  0  0  0  0  0
  -34.4837  -18.4122   22.3074 H   0  0  0  0  0  0
  -33.8854  -17.6275   23.7709 H   0  0  0  0  0  0
  -27.6954  -18.3860   21.2351 H   0  0  0  0  0  0
  -28.0622  -16.8240   20.5403 H   0  0  0  0  0  0
  -28.3575  -18.2799   19.5985 H   0  0  0  0  0  0
  -28.0590  -22.5480   20.6035 H   0  0  0  0  0  0
  -28.9138  -22.5341   19.0854 H   0  0  0  0  0  0
  -30.2966  -24.5122   19.8043 H   0  0  0  0  0  0
  -29.5545  -24.4804   21.3808 H   0  0  0  0  0  0
  -27.3167  -24.8325   20.2762 H   0  0  0  0  0  0
  -28.1320  -25.0831   18.7412 H   0  0  0  0  0  0
  -28.6751  -20.3003   20.6501 H   0  0  0  0  0  0
  -29.1157  -15.2992   21.5166 H   0  0  0  0  0  0
  1 25  1  0  0  0
  1 30  2  0  0  0
  1 84  1  0  0  0
  2  3  1  0  0  0
  2 25  1  0  0  0
  2 86  1  0  0  0
  2 87  1  0  0  0
  3  4  1  0  0  0
  3 88  1  0  0  0
  3 89  1  0  0  0
  4  5  1  0  0  0
  4 90  1  0  0  0
  4 91  1  0  0  0
  5  6  1  0  0  0
  5 26  1  0  0  0
  5 92  1  0  0  0
  6 25  1  0  0  0
  6 93  1  0  0  0
  6 94  1  0  0  0
  7  8  2  0  0  0
  7 26  1  0  0  0
  7 29  1  0  0  0
  8  9  1  0  0  0
  8 22  1  0  0  0
  9 10  1  0  0  0
  9 27  2  0  0  0
 10 11  2  0  0  0
 10 15  1  0  0  0
 11 12  1  0  0  0
 11 95  1  0  0  0
 12 13  2  0  0  0
 12 96  1  0  0  0
 13 14  1  0  0  0
 13 31  1  0  0  0
 14 15  2  0  0  0
 14 97  1  0  0  0
 15 98  1  0  0  0
 16 17  2  0  0  0
 16 21  1  0  0  0
 16 31  1  0  0  0
 17 18  1  0  0  0
 17 99  1  0  0  0
 18 19  2  0  0  0
 18100  1  0  0  0
 19 20  1  0  0  0
 19 24  1  0  0  0
 20 21  2  0  0  0
 20101  1  0  0  0
 21 23  1  0  0  0
 22 28  1  0  0  0
 22 32  2  0  0  0
 26 27  1  0  0  0
 28102  1  0  0  0
 28103  1  0  0  0
 29104  1  0  0  0
 29105  1  0  0  0
 33 34  1  0  0  0
 33 66  1  0  0  0
 33 70  2  0  0  0
 34 36  1  0  0  0
 34 59  1  0  0  0
 34106  1  0  0  0
 35 44  2  0  0  0
 35 45  1  0  0  0
 35 68  1  0  0  0
 36 56  1  0  0  0
 36107  1  0  0  0
 37 39  1  0  0  0
 37 47  1  0  0  0
 37 66  1  0  0  0
 37108  1  0  0  0
 38 43  2  0  0  0
 38 46  1  0  0  0
 38 47  1  0  0  0
 39 64  1  0  0  0
 39 67  2  0  0  0
 40 52  1  0  0  0
 40 53  2  0  0  0
 40 58  1  0  0  0
 41109  1  0  0  0
 41110  1  0  0  0
 41111  1  0  0  0
 41 48  1  0  0  0
 42 43  1  0  0  0
 42 66  1  0  0  0
 42112  1  0  0  0
 42113  1  0  0  0
 43 44  1  0  0  0
 44114  1  0  0  0
 45 46  2  0  0  0
 45115  1  0  0  0
 46116  1  0  0  0
 47117  1  0  0  0
 47118  1  0  0  0
 48 56  1  0  0  0
 48 65  1  0  0  0
 48119  1  0  0  0
 49 50  1  0  0  0
 49 53  1  0  0  0
 49 64  1  0  0  0
 49120  1  0  0  0
 50 51  1  0  0  0
 50121  1  0  0  0
 50122  1  0  0  0
 51 52  1  0  0  0
 51123  1  0  0  0
 51124  1  0  0  0
 52125  1  0  0  0
 52126  1  0  0  0
 53 54  1  0  0  0
 54 55  2  0  0  0
 54127  1  0  0  0
 55 57  1  0  0  0
 55128  1  0  0  0
 56 69  2  0  0  0
 57 58  2  0  0  0
 57129  1  0  0  0
 58130  1  0  0  0
 59 60  1  0  0  0
 59 61  1  0  0  0
 59 62  1  0  0  0
 60131  1  0  0  0
 60132  1  0  0  0
 60133  1  0  0  0
 61134  1  0  0  0
 61135  1  0  0  0
 61136  1  0  0  0
 62137  1  0  0  0
 62138  1  0  0  0
 62139  1  0  0  0
 63 65  1  0  0  0
 63140  1  0  0  0
 63141  1  0  0  0
 63142  1  0  0  0
 64143  1  0  0  0
 65144  1  0  0  0
 68 82  1  0  0  0
 71 73  2  0  0  0
 71 75  1  0  0  0
 71145  1  0  0  0
 72 73  1  0  0  0
 72 76  2  0  0  0
 72146  1  0  0  0
 73 78  1  0  0  0
 74 75  2  0  0  0
 74 76  1  0  0  0
 74 79  1  0  0  0
 75 83  1  0  0  0
 76 84  1  0  0  0
 77 80  1  0  0  0
 77 83  1  0  0  0
 77 85  2  0  0  0
 78147  1  0  0  0
 78148  1  0  0  0
 78149  1  0  0  0
 79150  1  0  0  0
 79151  1  0  0  0
 79152  1  0  0  0
 80 81  1  0  0  0
 80153  1  0  0  0
 80154  1  0  0  0
 81 82  1  0  0  0
 81155  1  0  0  0
 81156  1  0  0  0
 82157  1  0  0  0
 82158  1  0  0  0
 83159  1  0  0  0
 84160  1  0  0  0
M  ISO  4   1 100  68 101  82 101  84 100
M  END
> <chiral flag>
0

> <version>
0

> <s_m_source_file>
/data/baiqing/PycharmProjects/Reinvent-master-3.2/result/LINK_invent/BTK/process_docking_weight1_custom_sum_contain_oxygen_bond_distance_aromatic_linkinvent_7_9_3/rearranged_h_0011.sdf

> <i_m_source_file_index>
21

> <r_mmod_Potential_Energy-OPLS-2005>
-96.1241302490234

> <r_mmod_Stretch_Energy-OPLS-2005>
49.8018112182617

> <r_mmod_Bend_Energy-OPLS-2005>
105.325836181641

> <r_mmod_Torsional_Energy-OPLS-2005>
225.550079345703

> <r_mmod_Improper_Torsional_Energy-OPLS-2005>
2.96392202377319

> <r_mmod_Van_der_Waal_Energy-OPLS-2005>
165.145477294922

> <r_mmod_Electrostatic_Energy-OPLS-2005>
-426.180633544922

> <r_mmod_Solvation_Energy-OPLS-2005>
-236.318481445312

> <b_mmod_Minimization_Converged-OPLS-2005>
0

> <r_mmod_RMS_Derivative-OPLS-2005>
2.49125099182129

$$$$
21
                    3D
 Structure written by MMmdl.
151159  0  0  1  0            999 V2000
  -30.5168  -15.0507   20.4047 C   0  0  0  0  0  0
  -30.4395  -12.6635   19.4957 C   0  0  0  0  0  0
  -29.5195  -12.5279   18.2600 C   0  0  0  0  0  0
  -28.0622  -12.2867   18.6936 C   0  0  0  0  0  0
  -27.6196  -13.2509   19.8234 C   0  0  2  0  0  0
  -28.6610  -13.3457   20.9574 C   0  0  0  0  0  0
  -25.2424  -13.8210   20.5678 C   0  0  0  0  0  0
  -24.1769  -13.0440   20.9251 C   0  0  0  0  0  0
  -24.6395  -11.6926   20.8780 C   0  0  0  0  0  0
  -23.9082  -10.4297   21.0428 C   0  0  0  0  0  0
  -24.3621   -9.4201   21.9205 C   0  0  0  0  0  0
  -23.6291   -8.2237   22.0760 C   0  0  0  0  0  0
  -22.4277   -8.0283   21.3545 C   0  0  0  0  0  0
  -21.9931   -9.0253   20.4637 C   0  0  0  0  0  0
  -22.7261  -10.2134   20.3056 C   0  0  0  0  0  0
  -21.6851   -6.0740   22.5275 C   0  0  0  0  0  0
  -21.4010   -6.5642   23.8209 C   0  0  0  0  0  0
  -21.3657   -5.6793   24.9178 C   0  0  0  0  0  0
  -21.6042   -4.3058   24.7227 C   0  0  0  0  0  0
  -21.8816   -3.8150   23.4349 C   0  0  0  0  0  0
  -21.9190   -4.6966   22.3404 C   0  0  0  0  0  0
  -22.7792  -13.5211   21.1898 C   0  0  0  0  0  0
  -22.1661   -4.2151   21.0978 F   0  0  0  0  0  0
  -21.5629   -3.4537   25.7739 F   0  0  0  0  0  0
  -29.9203  -13.7827   20.3423 N   0  0  0  0  0  0
  -26.2841  -12.9446   20.3203 N   0  0  0  0  0  0
  -25.9324  -11.6572   20.5742 N   0  0  0  0  0  0
  -22.0424  -12.8188   22.0425 N   0  0  0  0  0  0
  -25.4075  -15.1937   20.4032 N   0  0  0  0  0  0
  -31.7335  -15.0697   20.1845 O   0  0  0  0  0  0
  -21.6638   -6.8881   21.4238 O   0  0  0  0  0  0
  -22.3481  -14.5513   20.6736 O   0  0  0  0  0  0
  -24.6488  -31.8380   23.1792 C   0  0  0  0  0  0
  -25.9234  -32.4677   23.8198 C   0  0  1  0  0  0
  -27.2207  -27.0667   20.1695 C   0  0  0  0  0  0
  -25.5952  -33.8473   24.2139 N   0  0  0  0  0  0
  -23.4570  -30.4534   21.5259 C   0  0  2  0  0  0
  -24.9093  -28.8675   20.1089 C   0  0  0  0  0  0
  -22.7601  -29.4504   22.4800 C   0  0  0  0  0  0
  -18.0316  -28.1398   22.8467 C   0  0  0  0  0  0
  -24.1486  -36.7248   23.2646 C   0  0  0  0  0  0
  -26.0142  -30.6948   21.3805 C   0  0  0  0  0  0
  -26.0899  -29.2944   20.7318 C   0  0  0  0  0  0
  -27.2448  -28.4125   20.7443 C   0  0  0  0  0  0
  -26.0146  -26.7628   19.4986 C   0  0  0  0  0  0
  -24.8885  -27.6174   19.4755 C   0  0  0  0  0  0
  -23.6889  -29.7780   20.1477 C   0  0  0  0  0  0
  -25.4111  -36.3015   24.0315 C   0  0  1  0  0  0
  -20.5930  -28.3726   23.1217 C   0  0  2  0  0  0
  -20.6786  -26.9425   22.5390 C   0  0  0  0  0  0
  -19.5759  -26.6399   21.5198 C   0  0  0  0  0  0
  -18.1945  -26.7938   22.1615 C   0  0  0  0  0  0
  -19.1572  -28.8873   23.2841 C   0  0  0  0  0  0
  -18.9488  -30.1459   23.8880 C   0  0  0  0  0  0
  -17.6484  -30.6595   24.0561 C   0  0  0  0  0  0
  -25.9073  -34.9402   23.5044 C   0  0  0  0  0  0
  -16.5374  -29.9101   23.6325 C   0  0  0  0  0  0
  -16.7296  -28.6513   23.0356 C   0  0  0  0  0  0
  -26.4542  -31.6537   25.0642 C   0  0  0  0  0  0
  -25.3708  -31.3705   26.1316 C   0  0  0  0  0  0
  -27.0415  -30.2945   24.6189 C   0  0  0  0  0  0
  -27.6068  -32.4283   25.7445 C   0  0  0  0  0  0
  -27.5563  -37.1781   24.8468 C   0  0  0  0  0  0
  -21.4276  -29.3067   22.3590 N   0  0  0  0  0  0
  -26.4266  -37.3742   23.9418 N   0  0  0  0  0  0
  -24.7272  -31.0176   22.0852 N   0  0  0  0  0  0
  -23.4215  -28.8025   23.2956 O   0  0  0  0  0  0
  -28.2469  -26.0309   20.2522 O   0  0  0  0  0  0
  -26.5683  -34.8922   22.4640 O   0  0  0  0  0  0
  -23.5594  -32.1279   23.6984 O   0  0  0  0  0  0
  -30.9551  -20.6024   20.8175 C   0  0  0  0  0  0
  -31.3906  -18.1526   20.8596 C   0  0  0  0  0  0
  -29.1840  -19.0198   20.3611 C   0  0  0  0  0  0
  -31.8211  -19.4934   20.9998 C   0  0  0  0  0  0
  -29.5852  -20.4728   20.4836 C   0  0  0  0  0  0
  -30.0627  -17.8015   20.5368 C   0  0  0  0  0  0
  -29.0011  -23.2170   20.4071 C   0  0  0  0  0  0
  -33.2762  -19.7430   21.3553 C   0  0  0  0  0  0
  -27.9118  -24.4793   20.1345 C   0  0  0  0  0  0
  -28.7447  -21.7908   20.3034 N   0  0  0  0  0  0
  -29.7392  -16.2713   20.4658 N   0  0  0  0  0  0
  -30.1294  -23.5913   20.7341 O   0  0  0  0  0  0
  -31.4630  -12.8452   19.1658 H   0  0  0  0  0  0
  -30.4723  -11.7336   20.0653 H   0  0  0  0  0  0
  -29.8603  -11.7108   17.6221 H   0  0  0  0  0  0
  -29.5761  -13.4339   17.6553 H   0  0  0  0  0  0
  -27.9965  -11.2578   19.0486 H   0  0  0  0  0  0
  -27.3896  -12.3565   17.8379 H   0  0  0  0  0  0
  -27.5621  -14.2333   19.3532 H   0  0  0  0  0  0
  -28.7798  -12.3911   21.4709 H   0  0  0  0  0  0
  -28.3407  -14.0694   21.7095 H   0  0  0  0  0  0
  -25.2753   -9.5685   22.4799 H   0  0  0  0  0  0
  -23.9989   -7.4634   22.7491 H   0  0  0  0  0  0
  -21.0861   -8.8779   19.8936 H   0  0  0  0  0  0
  -22.3723  -10.9679   19.6161 H   0  0  0  0  0  0
  -21.1998   -7.6145   23.9715 H   0  0  0  0  0  0
  -21.1480   -6.0525   25.9078 H   0  0  0  0  0  0
  -22.0594   -2.7611   23.2846 H   0  0  0  0  0  0
  -22.4031  -11.9834   22.4801 H   0  0  0  0  0  0
  -21.1027  -13.1201   22.2600 H   0  0  0  0  0  0
  -24.6250  -15.8344   20.4792 H   0  0  0  0  0  0
  -26.2319  -15.6243   20.0063 H   0  0  0  0  0  0
  -26.7290  -32.5282   23.0912 H   0  0  0  0  0  0
  -25.0032  -33.9558   25.0235 H   0  0  0  0  0  0
  -22.7634  -31.2806   21.3638 H   0  0  0  0  0  0
  -23.3766  -35.9570   23.3277 H   0  0  0  0  0  0
  -24.3560  -36.8929   22.2068 H   0  0  0  0  0  0
  -23.7224  -37.6419   23.6719 H   0  0  0  0  0  0
  -26.1580  -31.4385   20.5949 H   0  0  0  0  0  0
  -26.8916  -30.7697   22.0116 H   0  0  0  0  0  0
  -28.1395  -28.7326   21.2619 H   0  0  0  0  0  0
  -25.9016  -25.8091   19.0058 H   0  0  0  0  0  0
  -23.9895  -27.2833   18.9747 H   0  0  0  0  0  0
  -23.8324  -30.5507   19.3923 H   0  0  0  0  0  0
  -22.8042  -29.2243   19.8316 H   0  0  0  0  0  0
  -25.1299  -36.1833   25.0804 H   0  0  0  0  0  0
  -21.0023  -28.3335   24.1339 H   0  0  0  0  0  0
  -20.5683  -26.2337   23.3607 H   0  0  0  0  0  0
  -21.6647  -26.7425   22.1175 H   0  0  0  0  0  0
  -19.6925  -25.6316   21.1218 H   0  0  0  0  0  0
  -19.6702  -27.3220   20.6731 H   0  0  0  0  0  0
  -17.4202  -26.6689   21.4027 H   0  0  0  0  0  0
  -18.0334  -26.0082   22.9010 H   0  0  0  0  0  0
  -19.7967  -30.7246   24.2283 H   0  0  0  0  0  0
  -17.5058  -31.6281   24.5157 H   0  0  0  0  0  0
  -15.5380  -30.3008   23.7655 H   0  0  0  0  0  0
  -15.8689  -28.0829   22.7093 H   0  0  0  0  0  0
  -24.5954  -30.6986   25.7607 H   0  0  0  0  0  0
  -24.8803  -32.2870   26.4611 H   0  0  0  0  0  0
  -25.7972  -30.8964   27.0165 H   0  0  0  0  0  0
  -26.3019  -29.6644   24.1235 H   0  0  0  0  0  0
  -27.4118  -29.7249   25.4719 H   0  0  0  0  0  0
  -27.8885  -30.4206   23.9441 H   0  0  0  0  0  0
  -27.2727  -33.3704   26.1804 H   0  0  0  0  0  0
  -28.4012  -32.6622   25.0341 H   0  0  0  0  0  0
  -28.0573  -31.8503   26.5528 H   0  0  0  0  0  0
  -28.2540  -38.0114   24.7527 H   0  0  0  0  0  0
  -28.1097  -36.2631   24.6280 H   0  0  0  0  0  0
  -27.2275  -37.1398   25.8870 H   0  0  0  0  0  0
  -20.9482  -29.8821   21.6798 H   0  0  0  0  0  0
  -26.0133  -38.2805   24.1451 H   0  0  0  0  0  0
  -31.3845  -21.5827   20.9475 H   0  0  0  0  0  0
  -32.1211  -17.3748   21.0277 H   0  0  0  0  0  0
  -28.1487  -18.8279   20.1182 H   0  0  0  0  0  0
  -33.4210  -20.7302   21.7961 H   0  0  0  0  0  0
  -33.8997  -19.6730   20.4634 H   0  0  0  0  0  0
  -33.6356  -19.0064   22.0751 H   0  0  0  0  0  0
  -27.0770  -24.2943   20.8113 H   0  0  0  0  0  0
  -27.5203  -24.3071   19.1324 H   0  0  0  0  0  0
  -27.7828  -21.6157   20.0434 H   0  0  0  0  0  0
  -28.7502  -16.0729   20.4696 H   0  0  0  0  0  0
  1 25  1  0  0  0
  1 30  2  0  0  0
  1 81  1  0  0  0
  2  3  1  0  0  0
  2 25  1  0  0  0
  2 83  1  0  0  0
  2 84  1  0  0  0
  3  4  1  0  0  0
  3 85  1  0  0  0
  3 86  1  0  0  0
  4  5  1  0  0  0
  4 87  1  0  0  0
  4 88  1  0  0  0
  5  6  1  0  0  0
  5 26  1  0  0  0
  5 89  1  0  0  0
  6 25  1  0  0  0
  6 90  1  0  0  0
  6 91  1  0  0  0
  7  8  2  0  0  0
  7 26  1  0  0  0
  7 29  1  0  0  0
  8  9  1  0  0  0
  8 22  1  0  0  0
  9 10  1  0  0  0
  9 27  2  0  0  0
 10 11  2  0  0  0
 10 15  1  0  0  0
 11 12  1  0  0  0
 11 92  1  0  0  0
 12 13  2  0  0  0
 12 93  1  0  0  0
 13 14  1  0  0  0
 13 31  1  0  0  0
 14 15  2  0  0  0
 14 94  1  0  0  0
 15 95  1  0  0  0
 16 17  2  0  0  0
 16 21  1  0  0  0
 16 31  1  0  0  0
 17 18  1  0  0  0
 17 96  1  0  0  0
 18 19  2  0  0  0
 18 97  1  0  0  0
 19 20  1  0  0  0
 19 24  1  0  0  0
 20 21  2  0  0  0
 20 98  1  0  0  0
 21 23  1  0  0  0
 22 28  1  0  0  0
 22 32  2  0  0  0
 26 27  1  0  0  0
 28 99  1  0  0  0
 28100  1  0  0  0
 29101  1  0  0  0
 29102  1  0  0  0
 33 34  1  0  0  0
 33 66  1  0  0  0
 33 70  2  0  0  0
 34 36  1  0  0  0
 34 59  1  0  0  0
 34103  1  0  0  0
 35 44  2  0  0  0
 35 45  1  0  0  0
 35 68  1  0  0  0
 36 56  1  0  0  0
 36104  1  0  0  0
 37 39  1  0  0  0
 37 47  1  0  0  0
 37 66  1  0  0  0
 37105  1  0  0  0
 38 43  2  0  0  0
 38 46  1  0  0  0
 38 47  1  0  0  0
 39 64  1  0  0  0
 39 67  2  0  0  0
 40 52  1  0  0  0
 40 53  2  0  0  0
 40 58  1  0  0  0
 41106  1  0  0  0
 41107  1  0  0  0
 41108  1  0  0  0
 41 48  1  0  0  0
 42 43  1  0  0  0
 42 66  1  0  0  0
 42109  1  0  0  0
 42110  1  0  0  0
 43 44  1  0  0  0
 44111  1  0  0  0
 45 46  2  0  0  0
 45112  1  0  0  0
 46113  1  0  0  0
 47114  1  0  0  0
 47115  1  0  0  0
 48 56  1  0  0  0
 48 65  1  0  0  0
 48116  1  0  0  0
 49 50  1  0  0  0
 49 53  1  0  0  0
 49 64  1  0  0  0
 49117  1  0  0  0
 50 51  1  0  0  0
 50118  1  0  0  0
 50119  1  0  0  0
 51 52  1  0  0  0
 51120  1  0  0  0
 51121  1  0  0  0
 52122  1  0  0  0
 52123  1  0  0  0
 53 54  1  0  0  0
 54 55  2  0  0  0
 54124  1  0  0  0
 55 57  1  0  0  0
 55125  1  0  0  0
 56 69  2  0  0  0
 57 58  2  0  0  0
 57126  1  0  0  0
 58127  1  0  0  0
 59 60  1  0  0  0
 59 61  1  0  0  0
 59 62  1  0  0  0
 60128  1  0  0  0
 60129  1  0  0  0
 60130  1  0  0  0
 61131  1  0  0  0
 61132  1  0  0  0
 61133  1  0  0  0
 62134  1  0  0  0
 62135  1  0  0  0
 62136  1  0  0  0
 63 65  1  0  0  0
 63137  1  0  0  0
 63138  1  0  0  0
 63139  1  0  0  0
 64140  1  0  0  0
 65141  1  0  0  0
 68 79  1  0  0  0
 71 74  2  0  0  0
 71 75  1  0  0  0
 71142  1  0  0  0
 72 74  1  0  0  0
 72 76  2  0  0  0
 72143  1  0  0  0
 73 75  2  0  0  0
 73 76  1  0  0  0
 73144  1  0  0  0
 74 78  1  0  0  0
 75 80  1  0  0  0
 76 81  1  0  0  0
 77 79  1  0  0  0
 77 80  1  0  0  0
 77 82  2  0  0  0
 78145  1  0  0  0
 78146  1  0  0  0
 78147  1  0  0  0
 79148  1  0  0  0
 79149  1  0  0  0
 80150  1  0  0  0
 81151  1  0  0  0
M  ISO  4   1 100  68 101  79 101  81 100
M  END
> <chiral flag>
0

> <version>
0

> <s_m_source_file>
/data/baiqing/PycharmProjects/Reinvent-master-3.2/result/LINK_invent/BTK/process_docking_weight1_custom_sum_contain_oxygen_bond_distance_aromatic_linkinvent_7_9_3/rearranged_h_0011.sdf

> <i_m_source_file_index>
22

> <r_mmod_Potential_Energy-OPLS-2005>
651.859680175781

> <r_mmod_Stretch_Energy-OPLS-2005>
346.115570068359

> <r_mmod_Bend_Energy-OPLS-2005>
268.941467285156

> <r_mmod_Torsional_Energy-OPLS-2005>
220.505020141602

> <r_mmod_Improper_Torsional_Energy-OPLS-2005>
5.74600887298584

> <r_mmod_Van_der_Waal_Energy-OPLS-2005>
134.134307861328

> <r_mmod_Electrostatic_Energy-OPLS-2005>
-346.240386962891

> <r_mmod_Solvation_Energy-OPLS-2005>
-246.508407592773

> <b_mmod_Minimization_Converged-OPLS-2005>
0

> <r_mmod_RMS_Derivative-OPLS-2005>
2.46234607696533

$$$$
22
                    3D
 Structure written by MMmdl.
169177  0  0  1  0            999 V2000
  -30.4998  -15.0147   20.4241 C   0  0  0  0  0  0
  -30.4460  -12.6418   19.4734 C   0  0  0  0  0  0
  -29.5181  -12.5264   18.2414 C   0  0  0  0  0  0
  -28.0561  -12.2985   18.6741 C   0  0  0  0  0  0
  -27.6210  -13.2464   19.8218 C   0  0  2  0  0  0
  -28.6682  -13.2993   20.9501 C   0  0  0  0  0  0
  -25.2437  -13.8187   20.5710 C   0  0  0  0  0  0
  -24.1766  -13.0423   20.9249 C   0  0  0  0  0  0
  -24.6372  -11.6909   20.8738 C   0  0  0  0  0  0
  -23.9060  -10.4280   21.0401 C   0  0  0  0  0  0
  -24.3612   -9.4194   21.9182 C   0  0  0  0  0  0
  -23.6294   -8.2228   22.0753 C   0  0  0  0  0  0
  -22.4281   -8.0264   21.3532 C   0  0  0  0  0  0
  -21.9896   -9.0232   20.4644 C   0  0  0  0  0  0
  -22.7223  -10.2110   20.3054 C   0  0  0  0  0  0
  -21.6859   -6.0730   22.5285 C   0  0  0  0  0  0
  -21.4008   -6.5629   23.8215 C   0  0  0  0  0  0
  -21.3656   -5.6783   24.9174 C   0  0  0  0  0  0
  -21.6061   -4.3053   24.7229 C   0  0  0  0  0  0
  -21.8826   -3.8145   23.4346 C   0  0  0  0  0  0
  -21.9188   -4.6960   22.3395 C   0  0  0  0  0  0
  -22.7776  -13.5187   21.1912 C   0  0  0  0  0  0
  -22.1669   -4.2150   21.0974 F   0  0  0  0  0  0
  -21.5621   -3.4533   25.7739 F   0  0  0  0  0  0
  -29.9226  -13.7448   20.3307 N   0  0  0  0  0  0
  -26.2853  -12.9417   20.3188 N   0  0  0  0  0  0
  -25.9302  -11.6554   20.5692 N   0  0  0  0  0  0
  -22.0416  -12.8164   22.0452 N   0  0  0  0  0  0
  -25.4108  -15.1932   20.4139 N   0  0  0  0  0  0
  -31.7262  -15.0716   20.2820 O   0  0  0  0  0  0
  -21.6644   -6.8870   21.4242 O   0  0  0  0  0  0
  -22.3457  -14.5499   20.6777 O   0  0  0  0  0  0
  -24.6477  -31.8392   23.1815 C   0  0  0  0  0  0
  -25.9216  -32.4670   23.8234 C   0  0  1  0  0  0
  -27.2120  -27.0778   20.1651 C   0  0  0  0  0  0
  -25.5943  -33.8474   24.2154 N   0  0  0  0  0  0
  -23.4557  -30.4571   21.5269 C   0  0  2  0  0  0
  -24.9060  -28.8725   20.1064 C   0  0  0  0  0  0
  -22.7598  -29.4518   22.4807 C   0  0  0  0  0  0
  -18.0317  -28.1431   22.8468 C   0  0  0  0  0  0
  -24.1489  -36.7257   23.2644 C   0  0  0  0  0  0
  -26.0146  -30.6968   21.3858 C   0  0  0  0  0  0
  -26.0856  -29.3002   20.7294 C   0  0  0  0  0  0
  -27.2394  -28.4219   20.7347 C   0  0  0  0  0  0
  -26.0074  -26.7648   19.4981 C   0  0  0  0  0  0
  -24.8823  -27.6207   19.4719 C   0  0  0  0  0  0
  -23.6866  -29.7836   20.1474 C   0  0  0  0  0  0
  -25.4110  -36.3015   24.0319 C   0  0  1  0  0  0
  -20.5931  -28.3772   23.1214 C   0  0  2  0  0  0
  -20.6810  -26.9474   22.5391 C   0  0  0  0  0  0
  -19.5771  -26.6413   21.5214 C   0  0  0  0  0  0
  -18.1954  -26.7966   22.1629 C   0  0  0  0  0  0
  -19.1575  -28.8911   23.2839 C   0  0  0  0  0  0
  -18.9500  -30.1501   23.8876 C   0  0  0  0  0  0
  -17.6504  -30.6620   24.0579 C   0  0  0  0  0  0
  -25.9074  -34.9390   23.5053 C   0  0  0  0  0  0
  -16.5391  -29.9121   23.6347 C   0  0  0  0  0  0
  -16.7305  -28.6544   23.0352 C   0  0  0  0  0  0
  -26.4517  -31.6551   25.0706 C   0  0  0  0  0  0
  -25.3689  -31.3747   26.1397 C   0  0  0  0  0  0
  -27.0385  -30.2939   24.6322 C   0  0  0  0  0  0
  -27.6036  -32.4342   25.7479 C   0  0  0  0  0  0
  -27.5565  -37.1770   24.8455 C   0  0  0  0  0  0
  -21.4280  -29.3070   22.3557 N   0  0  0  0  0  0
  -26.4274  -37.3733   23.9417 N   0  0  0  0  0  0
  -24.7259  -31.0195   22.0874 N   0  0  0  0  0  0
  -23.4219  -28.8060   23.2971 O   0  0  0  0  0  0
  -28.2457  -26.0577   20.2568 O   0  0  0  0  0  0
  -26.5688  -34.8891   22.4659 O   0  0  0  0  0  0
  -23.5587  -32.1266   23.7015 O   0  0  0  0  0  0
  -29.3393  -18.9489   20.1101 C   0  0  0  0  0  0
  -29.9418  -17.8530   22.1809 C   0  0  0  0  0  0
  -29.7254  -17.6714   20.8008 C   0  0  0  0  0  0
  -29.2060  -20.3273   20.7111 C   0  0  0  0  0  0
  -29.7819  -19.1088   22.8311 C   0  0  0  0  0  0
  -29.4526  -20.2996   22.1128 C   0  0  0  0  0  0
  -32.1665  -19.3671   25.0554 C   0  0  0  0  0  0
  -28.5202  -20.1470   26.1368 C   0  0  0  0  0  0
  -27.8612  -17.9104   25.0944 C   0  0  0  0  0  0
  -28.5602  -21.4594   18.6303 C   0  0  0  0  0  0
  -30.9081  -18.4983   24.9631 C   0  0  0  0  0  0
  -28.9769  -23.1644   20.4970 C   0  0  0  0  0  0
  -27.9855  -24.5064   20.0716 C   0  0  0  0  0  0
  -28.4979  -19.2908   24.8588 C   0  0  0  0  0  0
  -29.6843  -16.1950   20.3119 N   0  0  0  0  0  0
  -28.7899  -21.6394   20.0613 N   0  0  0  0  0  0
  -29.8271  -19.1792   24.2468 N   0  0  0  0  0  0
  -29.3161  -21.4407   22.8323 F   0  0  0  0  0  0
  -31.4699  -12.8326   19.1501 H   0  0  0  0  0  0
  -30.4825  -11.7021   20.0256 H   0  0  0  0  0  0
  -29.8454  -11.7063   17.6001 H   0  0  0  0  0  0
  -29.5902  -13.4388   17.6440 H   0  0  0  0  0  0
  -27.9788  -11.2609   19.0037 H   0  0  0  0  0  0
  -27.3874  -12.4017   17.8184 H   0  0  0  0  0  0
  -27.5675  -14.2389   19.3736 H   0  0  0  0  0  0
  -28.7801  -12.3260   21.4300 H   0  0  0  0  0  0
  -28.3554  -13.9965   21.7298 H   0  0  0  0  0  0
  -25.2751   -9.5691   22.4753 H   0  0  0  0  0  0
  -24.0021   -7.4619   22.7464 H   0  0  0  0  0  0
  -21.0834   -8.8740   19.8932 H   0  0  0  0  0  0
  -22.3685  -10.9645   19.6167 H   0  0  0  0  0  0
  -21.2007   -7.6146   23.9726 H   0  0  0  0  0  0
  -21.1468   -6.0508   25.9080 H   0  0  0  0  0  0
  -22.0608   -2.7615   23.2843 H   0  0  0  0  0  0
  -22.4032  -11.9825   22.4840 H   0  0  0  0  0  0
  -21.1015  -13.1174   22.2652 H   0  0  0  0  0  0
  -24.6453  -15.8442   20.5467 H   0  0  0  0  0  0
  -26.2540  -15.6397   20.0804 H   0  0  0  0  0  0
  -26.7299  -32.5257   23.0968 H   0  0  0  0  0  0
  -25.0011  -33.9586   25.0250 H   0  0  0  0  0  0
  -22.7612  -31.2846   21.3654 H   0  0  0  0  0  0
  -23.3756  -35.9586   23.3272 H   0  0  0  0  0  0
  -24.3571  -36.8930   22.2063 H   0  0  0  0  0  0
  -23.7237  -37.6441   23.6712 H   0  0  0  0  0  0
  -26.1762  -31.4439   20.6064 H   0  0  0  0  0  0
  -26.8856  -30.7498   22.0274 H   0  0  0  0  0  0
  -28.1365  -28.7474   21.2412 H   0  0  0  0  0  0
  -25.9006  -25.8060   19.0131 H   0  0  0  0  0  0
  -23.9828  -27.2894   18.9713 H   0  0  0  0  0  0
  -23.8327  -30.5564   19.3918 H   0  0  0  0  0  0
  -22.8000  -29.2318   19.8331 H   0  0  0  0  0  0
  -25.1289  -36.1832   25.0814 H   0  0  0  0  0  0
  -21.0052  -28.3397   24.1329 H   0  0  0  0  0  0
  -20.5731  -26.2401   23.3628 H   0  0  0  0  0  0
  -21.6672  -26.7478   22.1166 H   0  0  0  0  0  0
  -19.6944  -25.6317   21.1265 H   0  0  0  0  0  0
  -19.6709  -27.3215   20.6739 H   0  0  0  0  0  0
  -17.4228  -26.6730   21.4037 H   0  0  0  0  0  0
  -18.0345  -26.0113   22.9029 H   0  0  0  0  0  0
  -19.7974  -30.7319   24.2250 H   0  0  0  0  0  0
  -17.5055  -31.6289   24.5220 H   0  0  0  0  0  0
  -15.5392  -30.3039   23.7661 H   0  0  0  0  0  0
  -15.8697  -28.0864   22.7078 H   0  0  0  0  0  0
  -24.5892  -30.7077   25.7700 H   0  0  0  0  0  0
  -24.8865  -32.2936   26.4739 H   0  0  0  0  0  0
  -25.7962  -30.8964   27.0224 H   0  0  0  0  0  0
  -26.3012  -29.6652   24.1329 H   0  0  0  0  0  0
  -27.3975  -29.7236   25.4898 H   0  0  0  0  0  0
  -27.8917  -30.4136   23.9642 H   0  0  0  0  0  0
  -27.2628  -33.3681   26.1947 H   0  0  0  0  0  0
  -28.3882  -32.6859   25.0334 H   0  0  0  0  0  0
  -28.0675  -31.8564   26.5478 H   0  0  0  0  0  0
  -28.2546  -38.0099   24.7541 H   0  0  0  0  0  0
  -28.1113  -36.2642   24.6241 H   0  0  0  0  0  0
  -27.2313  -37.1346   25.8866 H   0  0  0  0  0  0
  -20.9521  -29.8786   21.6706 H   0  0  0  0  0  0
  -26.0137  -38.2801   24.1461 H   0  0  0  0  0  0
  -29.1174  -18.8528   19.0594 H   0  0  0  0  0  0
  -30.1266  -16.9708   22.7724 H   0  0  0  0  0  0
  -32.9680  -18.8334   25.5684 H   0  0  0  0  0  0
  -31.9741  -20.2793   25.6219 H   0  0  0  0  0  0
  -32.5413  -19.6556   24.0730 H   0  0  0  0  0  0
  -27.5118  -20.2575   26.5378 H   0  0  0  0  0  0
  -28.8949  -21.1506   25.9329 H   0  0  0  0  0  0
  -29.1353  -19.7167   26.9268 H   0  0  0  0  0  0
  -26.8455  -18.0092   25.4815 H   0  0  0  0  0  0
  -28.4216  -17.3170   25.8154 H   0  0  0  0  0  0
  -27.8019  -17.3357   24.1693 H   0  0  0  0  0  0
  -29.4457  -21.0506   18.1383 H   0  0  0  0  0  0
  -28.3285  -22.4017   18.1358 H   0  0  0  0  0  0
  -27.7217  -20.7846   18.4502 H   0  0  0  0  0  0
  -30.5818  -18.2534   25.9742 H   0  0  0  0  0  0
  -31.1614  -17.5421   24.5074 H   0  0  0  0  0  0
  -29.0565  -23.2036   21.5788 H   0  0  0  0  0  0
  -29.9768  -23.4232   20.1509 H   0  0  0  0  0  0
  -27.0336  -24.3154   20.5675 H   0  0  0  0  0  0
  -27.7623  -24.4016   19.0113 H   0  0  0  0  0  0
  -27.8474  -19.8150   24.1575 H   0  0  0  0  0  0
  -28.7684  -15.9397   19.9764 H   0  0  0  0  0  0
  1 25  1  0  0  0
  1 30  2  0  0  0
  1 85  1  0  0  0
  2  3  1  0  0  0
  2 25  1  0  0  0
  2 89  1  0  0  0
  2 90  1  0  0  0
  3  4  1  0  0  0
  3 91  1  0  0  0
  3 92  1  0  0  0
  4  5  1  0  0  0
  4 93  1  0  0  0
  4 94  1  0  0  0
  5  6  1  0  0  0
  5 26  1  0  0  0
  5 95  1  0  0  0
  6 25  1  0  0  0
  6 96  1  0  0  0
  6 97  1  0  0  0
  7  8  2  0  0  0
  7 26  1  0  0  0
  7 29  1  0  0  0
  8  9  1  0  0  0
  8 22  1  0  0  0
  9 10  1  0  0  0
  9 27  2  0  0  0
 10 11  2  0  0  0
 10 15  1  0  0  0
 11 12  1  0  0  0
 11 98  1  0  0  0
 12 13  2  0  0  0
 12 99  1  0  0  0
 13 14  1  0  0  0
 13 31  1  0  0  0
 14 15  2  0  0  0
 14100  1  0  0  0
 15101  1  0  0  0
 16 17  2  0  0  0
 16 21  1  0  0  0
 16 31  1  0  0  0
 17 18  1  0  0  0
 17102  1  0  0  0
 18 19  2  0  0  0
 18103  1  0  0  0
 19 20  1  0  0  0
 19 24  1  0  0  0
 20 21  2  0  0  0
 20104  1  0  0  0
 21 23  1  0  0  0
 22 28  1  0  0  0
 22 32  2  0  0  0
 26 27  1  0  0  0
 28105  1  0  0  0
 28106  1  0  0  0
 29107  1  0  0  0
 29108  1  0  0  0
 33 34  1  0  0  0
 33 66  1  0  0  0
 33 70  2  0  0  0
 34 36  1  0  0  0
 34 59  1  0  0  0
 34109  1  0  0  0
 35 44  2  0  0  0
 35 45  1  0  0  0
 35 68  1  0  0  0
 36 56  1  0  0  0
 36110  1  0  0  0
 37 39  1  0  0  0
 37 47  1  0  0  0
 37 66  1  0  0  0
 37111  1  0  0  0
 38 43  2  0  0  0
 38 46  1  0  0  0
 38 47  1  0  0  0
 39 64  1  0  0  0
 39 67  2  0  0  0
 40 52  1  0  0  0
 40 53  2  0  0  0
 40 58  1  0  0  0
 41112  1  0  0  0
 41113  1  0  0  0
 41114  1  0  0  0
 41 48  1  0  0  0
 42 43  1  0  0  0
 42 66  1  0  0  0
 42115  1  0  0  0
 42116  1  0  0  0
 43 44  1  0  0  0
 44117  1  0  0  0
 45 46  2  0  0  0
 45118  1  0  0  0
 46119  1  0  0  0
 47120  1  0  0  0
 47121  1  0  0  0
 48 56  1  0  0  0
 48 65  1  0  0  0
 48122  1  0  0  0
 49 50  1  0  0  0
 49 53  1  0  0  0
 49 64  1  0  0  0
 49123  1  0  0  0
 50 51  1  0  0  0
 50124  1  0  0  0
 50125  1  0  0  0
 51 52  1  0  0  0
 51126  1  0  0  0
 51127  1  0  0  0
 52128  1  0  0  0
 52129  1  0  0  0
 53 54  1  0  0  0
 54 55  2  0  0  0
 54130  1  0  0  0
 55 57  1  0  0  0
 55131  1  0  0  0
 56 69  2  0  0  0
 57 58  2  0  0  0
 57132  1  0  0  0
 58133  1  0  0  0
 59 60  1  0  0  0
 59 61  1  0  0  0
 59 62  1  0  0  0
 60134  1  0  0  0
 60135  1  0  0  0
 60136  1  0  0  0
 61137  1  0  0  0
 61138  1  0  0  0
 61139  1  0  0  0
 62140  1  0  0  0
 62141  1  0  0  0
 62142  1  0  0  0
 63 65  1  0  0  0
 63143  1  0  0  0
 63144  1  0  0  0
 63145  1  0  0  0
 64146  1  0  0  0
 65147  1  0  0  0
 68 83  1  0  0  0
 71 73  2  0  0  0
 71 74  1  0  0  0
 71148  1  0  0  0
 72 73  1  0  0  0
 72 75  2  0  0  0
 72149  1  0  0  0
 73 85  1  0  0  0
 74 76  2  0  0  0
 74 86  1  0  0  0
 75 76  1  0  0  0
 75 87  1  0  0  0
 76 88  1  0  0  0
 77 81  1  0  0  0
 77150  1  0  0  0
 77151  1  0  0  0
 77152  1  0  0  0
 78153  1  0  0  0
 78154  1  0  0  0
 78155  1  0  0  0
 78 84  1  0  0  0
 79 84  1  0  0  0
 79156  1  0  0  0
 79157  1  0  0  0
 79158  1  0  0  0
 80 86  1  0  0  0
 80159  1  0  0  0
 80160  1  0  0  0
 80161  1  0  0  0
 81 87  1  0  0  0
 81162  1  0  0  0
 81163  1  0  0  0
 82 83  1  0  0  0
 82 86  1  0  0  0
 82164  1  0  0  0
 82165  1  0  0  0
 83166  1  0  0  0
 83167  1  0  0  0
 84 87  1  0  0  0
 84168  1  0  0  0
 85169  1  0  0  0
M  ISO  4   1 100  68 101  83 101  85 100
M  END
> <chiral flag>
0

> <version>
0

> <s_m_source_file>
/data/baiqing/PycharmProjects/Reinvent-master-3.2/result/LINK_invent/BTK/process_docking_weight1_custom_sum_contain_oxygen_bond_distance_aromatic_linkinvent_7_9_3/rearranged_h_0011.sdf

> <i_m_source_file_index>
23

> <r_mmod_Potential_Energy-OPLS-2005>
829.568176269531

> <r_mmod_Stretch_Energy-OPLS-2005>
329.390930175781

> <r_mmod_Bend_Energy-OPLS-2005>
300.523864746094

> <r_mmod_Torsional_Energy-OPLS-2005>
265.905487060547

> <r_mmod_Improper_Torsional_Energy-OPLS-2005>
15.4156246185303

> <r_mmod_Van_der_Waal_Energy-OPLS-2005>
134.958602905273

> <r_mmod_Electrostatic_Energy-OPLS-2005>
-234.815841674805

> <r_mmod_Solvation_Energy-OPLS-2005>
-233.885070800781

> <b_mmod_Minimization_Converged-OPLS-2005>
0

> <r_mmod_RMS_Derivative-OPLS-2005>
3.4210102558136

$$$$
23
                    3D
 Structure written by MMmdl.
160168  0  0  1  0            999 V2000
  -30.5169  -15.0355   20.3998 C   0  0  0  0  0  0
  -30.4382  -12.6473   19.5057 C   0  0  0  0  0  0
  -29.5252  -12.5457   18.2609 C   0  0  0  0  0  0
  -28.0561  -12.3257   18.6732 C   0  0  0  0  0  0
  -27.6215  -13.2652   19.8280 C   0  0  2  0  0  0
  -28.6631  -13.3380   20.9640 C   0  0  0  0  0  0
  -25.2438  -13.8255   20.5742 C   0  0  0  0  0  0
  -24.1787  -13.0443   20.9246 C   0  0  0  0  0  0
  -24.6428  -11.6943   20.8744 C   0  0  0  0  0  0
  -23.9126  -10.4302   21.0424 C   0  0  0  0  0  0
  -24.3680   -9.4199   21.9194 C   0  0  0  0  0  0
  -23.6347   -8.2227   22.0735 C   0  0  0  0  0  0
  -22.4317   -8.0291   21.3535 C   0  0  0  0  0  0
  -21.9961   -9.0263   20.4630 C   0  0  0  0  0  0
  -22.7297  -10.2144   20.3060 C   0  0  0  0  0  0
  -21.6849   -6.0768   22.5281 C   0  0  0  0  0  0
  -21.4028   -6.5655   23.8228 C   0  0  0  0  0  0
  -21.3665   -5.6792   24.9175 C   0  0  0  0  0  0
  -21.6029   -4.3057   24.7205 C   0  0  0  0  0  0
  -21.8821   -3.8170   23.4316 C   0  0  0  0  0  0
  -21.9201   -4.7003   22.3386 C   0  0  0  0  0  0
  -22.7812  -13.5201   21.1880 C   0  0  0  0  0  0
  -22.1660   -4.2193   21.0964 F   0  0  0  0  0  0
  -21.5626   -3.4527   25.7710 F   0  0  0  0  0  0
  -29.9256  -13.7688   20.3504 N   0  0  0  0  0  0
  -26.2869  -12.9515   20.3212 N   0  0  0  0  0  0
  -25.9356  -11.6629   20.5703 N   0  0  0  0  0  0
  -22.0463  -12.8184   22.0442 N   0  0  0  0  0  0
  -25.4010  -15.1994   20.4200 N   0  0  0  0  0  0
  -31.7375  -15.0694   20.1888 O   0  0  0  0  0  0
  -21.6633   -6.8913   21.4253 O   0  0  0  0  0  0
  -22.3475  -14.5498   20.6719 O   0  0  0  0  0  0
  -24.6506  -31.8414   23.1851 C   0  0  0  0  0  0
  -25.9265  -32.4681   23.8239 C   0  0  1  0  0  0
  -27.2127  -27.0978   20.1392 C   0  0  0  0  0  0
  -25.5983  -33.8479   24.2167 N   0  0  0  0  0  0
  -23.4528  -30.4619   21.5365 C   0  0  2  0  0  0
  -24.8945  -28.8747   20.1109 C   0  0  0  0  0  0
  -22.7581  -29.4553   22.4879 C   0  0  0  0  0  0
  -18.0319  -28.1398   22.8494 C   0  0  0  0  0  0
  -24.1493  -36.7255   23.2643 C   0  0  0  0  0  0
  -26.0106  -30.6958   21.3876 C   0  0  0  0  0  0
  -26.0763  -29.3028   20.7304 C   0  0  0  0  0  0
  -27.2358  -28.4333   20.7233 C   0  0  0  0  0  0
  -26.0040  -26.7804   19.4817 C   0  0  0  0  0  0
  -24.8744  -27.6280   19.4686 C   0  0  0  0  0  0
  -23.6763  -29.7870   20.1562 C   0  0  0  0  0  0
  -25.4126  -36.3030   24.0318 C   0  0  1  0  0  0
  -20.5932  -28.3735   23.1236 C   0  0  2  0  0  0
  -20.6808  -26.9445   22.5403 C   0  0  0  0  0  0
  -19.5763  -26.6392   21.5227 C   0  0  0  0  0  0
  -18.1952  -26.7938   22.1646 C   0  0  0  0  0  0
  -19.1579  -28.8876   23.2853 C   0  0  0  0  0  0
  -18.9507  -30.1482   23.8867 C   0  0  0  0  0  0
  -17.6497  -30.6594   24.0563 C   0  0  0  0  0  0
  -25.9083  -34.9410   23.5055 C   0  0  0  0  0  0
  -16.5389  -29.9079   23.6343 C   0  0  0  0  0  0
  -16.7308  -28.6508   23.0352 C   0  0  0  0  0  0
  -26.4532  -31.6554   25.0701 C   0  0  0  0  0  0
  -25.3693  -31.3787   26.1389 C   0  0  0  0  0  0
  -27.0395  -30.2950   24.6302 C   0  0  0  0  0  0
  -27.6044  -32.4312   25.7502 C   0  0  0  0  0  0
  -27.5573  -37.1810   24.8469 C   0  0  0  0  0  0
  -21.4275  -29.3059   22.3600 N   0  0  0  0  0  0
  -26.4274  -37.3765   23.9424 N   0  0  0  0  0  0
  -24.7264  -31.0209   22.0921 N   0  0  0  0  0  0
  -23.4206  -28.8088   23.3049 O   0  0  0  0  0  0
  -28.2695  -26.1024   20.1459 O   0  0  0  0  0  0
  -26.5653  -34.8926   22.4632 O   0  0  0  0  0  0
  -23.5623  -32.1291   23.7067 O   0  0  0  0  0  0
  -29.1446  -18.9856   20.3250 C   0  0  0  0  0  0
  -30.9488  -20.5229   20.6621 C   0  0  0  0  0  0
  -29.5640  -20.4314   20.4072 C   0  0  0  0  0  0
  -30.0379  -17.7762   20.4515 C   0  0  0  0  0  0
  -31.7909  -19.3883   20.7478 C   0  0  0  0  0  0
  -30.4748  -23.7073   20.3365 C   0  0  0  0  0  0
  -33.8688  -20.3550   20.0784 C   0  0  0  0  0  0
  -33.4264  -19.6400   22.4277 C   0  0  0  0  0  0
  -28.0137  -24.5526   20.3127 C   0  0  0  0  0  0
  -29.0578  -23.2402   19.9726 C   0  0  2  0  0  0
  -31.3259  -18.1263   20.6305 N   0  3  0  0  0  0
  -28.7555  -21.7140   20.3489 N   0  0  0  0  0  0
  -29.7350  -16.2483   20.4509 N   0  0  0  0  0  0
  -33.1600  -19.4885   21.0069 N   0  0  0  0  0  0
  -31.4724  -12.8144   19.1987 H   0  0  0  0  0  0
  -30.4390  -11.7133   20.0706 H   0  0  0  0  0  0
  -29.8602  -11.7400   17.6062 H   0  0  0  0  0  0
  -29.6043  -13.4670   17.6823 H   0  0  0  0  0  0
  -27.9503  -11.2854   18.9805 H   0  0  0  0  0  0
  -27.4008  -12.4589   17.8107 H   0  0  0  0  0  0
  -27.5643  -14.2576   19.3793 H   0  0  0  0  0  0
  -28.7757  -12.3732   21.4595 H   0  0  0  0  0  0
  -28.3511  -14.0516   21.7302 H   0  0  0  0  0  0
  -25.2833   -9.5648   22.4764 H   0  0  0  0  0  0
  -24.0035   -7.4613   22.7458 H   0  0  0  0  0  0
  -21.0869   -8.8809   19.8955 H   0  0  0  0  0  0
  -22.3769  -10.9691   19.6165 H   0  0  0  0  0  0
  -21.2020   -7.6165   23.9745 H   0  0  0  0  0  0
  -21.1484   -6.0509   25.9076 H   0  0  0  0  0  0
  -22.0600   -2.7633   23.2783 H   0  0  0  0  0  0
  -22.4110  -11.9875   22.4847 H   0  0  0  0  0  0
  -21.1059  -13.1181   22.2639 H   0  0  0  0  0  0
  -24.6165  -15.8328   20.5269 H   0  0  0  0  0  0
  -26.2185  -15.6522   20.0347 H   0  0  0  0  0  0
  -26.7306  -32.5268   23.0938 H   0  0  0  0  0  0
  -25.0155  -33.9562   25.0331 H   0  0  0  0  0  0
  -22.7617  -31.2946   21.3846 H   0  0  0  0  0  0
  -23.3762  -35.9579   23.3281 H   0  0  0  0  0  0
  -24.3570  -36.8907   22.2058 H   0  0  0  0  0  0
  -23.7228  -37.6450   23.6670 H   0  0  0  0  0  0
  -26.1689  -31.4404   20.6063 H   0  0  0  0  0  0
  -26.8805  -30.7472   22.0310 H   0  0  0  0  0  0
  -28.1382  -28.7647   21.2183 H   0  0  0  0  0  0
  -25.9087  -25.8401   18.9618 H   0  0  0  0  0  0
  -23.9806  -27.3023   18.9555 H   0  0  0  0  0  0
  -23.8188  -30.5613   19.4017 H   0  0  0  0  0  0
  -22.7865  -29.2379   19.8427 H   0  0  0  0  0  0
  -25.1321  -36.1852   25.0804 H   0  0  0  0  0  0
  -21.0034  -28.3338   24.1355 H   0  0  0  0  0  0
  -20.5732  -26.2372   23.3647 H   0  0  0  0  0  0
  -21.6677  -26.7476   22.1198 H   0  0  0  0  0  0
  -19.6928  -25.6296   21.1276 H   0  0  0  0  0  0
  -19.6662  -27.3191   20.6747 H   0  0  0  0  0  0
  -17.4240  -26.6708   21.4031 H   0  0  0  0  0  0
  -18.0321  -26.0063   22.9019 H   0  0  0  0  0  0
  -19.7974  -30.7302   24.2222 H   0  0  0  0  0  0
  -17.5051  -31.6271   24.5167 H   0  0  0  0  0  0
  -15.5379  -30.2963   23.7683 H   0  0  0  0  0  0
  -15.8721  -28.0807   22.7059 H   0  0  0  0  0  0
  -24.5889  -30.7093   25.7755 H   0  0  0  0  0  0
  -24.8846  -32.2979   26.4692 H   0  0  0  0  0  0
  -25.7956  -30.9078   27.0257 H   0  0  0  0  0  0
  -26.3022  -29.6679   24.1274 H   0  0  0  0  0  0
  -27.3972  -29.7240   25.4882 H   0  0  0  0  0  0
  -27.8934  -30.4201   23.9638 H   0  0  0  0  0  0
  -27.2637  -33.3661   26.1973 H   0  0  0  0  0  0
  -28.3915  -32.6798   25.0363 H   0  0  0  0  0  0
  -28.0620  -31.8493   26.5518 H   0  0  0  0  0  0
  -28.2618  -38.0091   24.7530 H   0  0  0  0  0  0
  -28.1044  -36.2632   24.6271 H   0  0  0  0  0  0
  -27.2292  -37.1439   25.8873 H   0  0  0  0  0  0
  -20.9501  -29.8762   21.6754 H   0  0  0  0  0  0
  -26.0139  -38.2848   24.1386 H   0  0  0  0  0  0
  -28.0948  -18.7939   20.1565 H   0  0  0  0  0  0
  -31.4029  -21.4733   20.8565 H   0  0  0  0  0  0
  -31.2330  -23.2152   19.7263 H   0  0  0  0  0  0
  -30.6838  -23.5711   21.3959 H   0  0  0  0  0  0
  -30.5997  -24.7725   20.1289 H   0  0  0  0  0  0
  -34.9371  -20.1455   20.1147 H   0  0  0  0  0  0
  -33.7108  -21.4073   20.3184 H   0  0  0  0  0  0
  -33.5281  -20.1771   19.0566 H   0  0  0  0  0  0
  -32.8523  -18.9156   23.0076 H   0  0  0  0  0  0
  -33.1598  -20.6413   22.7694 H   0  0  0  0  0  0
  -34.4828  -19.4716   22.6319 H   0  0  0  0  0  0
  -27.7536  -24.4617   21.3680 H   0  0  0  0  0  0
  -27.0921  -24.3125   19.7877 H   0  0  0  0  0  0
  -29.0620  -23.2072   18.8805 H   0  0  0  0  0  0
  -32.0210  -17.3781   20.7027 H   0  0  0  0  0  0
  -27.7559  -21.5394   20.3777 H   0  0  0  0  0  0
  -28.7501  -16.0413   20.5080 H   0  0  0  0  0  0
  1 25  1  0  0  0
  1 30  2  0  0  0
  1 83  1  0  0  0
  2  3  1  0  0  0
  2 25  1  0  0  0
  2 85  1  0  0  0
  2 86  1  0  0  0
  3  4  1  0  0  0
  3 87  1  0  0  0
  3 88  1  0  0  0
  4  5  1  0  0  0
  4 89  1  0  0  0
  4 90  1  0  0  0
  5  6  1  0  0  0
  5 26  1  0  0  0
  5 91  1  0  0  0
  6 25  1  0  0  0
  6 92  1  0  0  0
  6 93  1  0  0  0
  7  8  2  0  0  0
  7 26  1  0  0  0
  7 29  1  0  0  0
  8  9  1  0  0  0
  8 22  1  0  0  0
  9 10  1  0  0  0
  9 27  2  0  0  0
 10 11  2  0  0  0
 10 15  1  0  0  0
 11 12  1  0  0  0
 11 94  1  0  0  0
 12 13  2  0  0  0
 12 95  1  0  0  0
 13 14  1  0  0  0
 13 31  1  0  0  0
 14 15  2  0  0  0
 14 96  1  0  0  0
 15 97  1  0  0  0
 16 17  2  0  0  0
 16 21  1  0  0  0
 16 31  1  0  0  0
 17 18  1  0  0  0
 17 98  1  0  0  0
 18 19  2  0  0  0
 18 99  1  0  0  0
 19 20  1  0  0  0
 19 24  1  0  0  0
 20 21  2  0  0  0
 20100  1  0  0  0
 21 23  1  0  0  0
 22 28  1  0  0  0
 22 32  2  0  0  0
 26 27  1  0  0  0
 28101  1  0  0  0
 28102  1  0  0  0
 29103  1  0  0  0
 29104  1  0  0  0
 33 34  1  0  0  0
 33 66  1  0  0  0
 33 70  2  0  0  0
 34 36  1  0  0  0
 34 59  1  0  0  0
 34105  1  0  0  0
 35 44  2  0  0  0
 35 45  1  0  0  0
 35 68  1  0  0  0
 36 56  1  0  0  0
 36106  1  0  0  0
 37 39  1  0  0  0
 37 47  1  0  0  0
 37 66  1  0  0  0
 37107  1  0  0  0
 38 43  2  0  0  0
 38 46  1  0  0  0
 38 47  1  0  0  0
 39 64  1  0  0  0
 39 67  2  0  0  0
 40 52  1  0  0  0
 40 53  2  0  0  0
 40 58  1  0  0  0
 41108  1  0  0  0
 41109  1  0  0  0
 41110  1  0  0  0
 41 48  1  0  0  0
 42 43  1  0  0  0
 42 66  1  0  0  0
 42111  1  0  0  0
 42112  1  0  0  0
 43 44  1  0  0  0
 44113  1  0  0  0
 45 46  2  0  0  0
 45114  1  0  0  0
 46115  1  0  0  0
 47116  1  0  0  0
 47117  1  0  0  0
 48 56  1  0  0  0
 48 65  1  0  0  0
 48118  1  0  0  0
 49 50  1  0  0  0
 49 53  1  0  0  0
 49 64  1  0  0  0
 49119  1  0  0  0
 50 51  1  0  0  0
 50120  1  0  0  0
 50121  1  0  0  0
 51 52  1  0  0  0
 51122  1  0  0  0
 51123  1  0  0  0
 52124  1  0  0  0
 52125  1  0  0  0
 53 54  1  0  0  0
 54 55  2  0  0  0
 54126  1  0  0  0
 55 57  1  0  0  0
 55127  1  0  0  0
 56 69  2  0  0  0
 57 58  2  0  0  0
 57128  1  0  0  0
 58129  1  0  0  0
 59 60  1  0  0  0
 59 61  1  0  0  0
 59 62  1  0  0  0
 60130  1  0  0  0
 60131  1  0  0  0
 60132  1  0  0  0
 61133  1  0  0  0
 61134  1  0  0  0
 61135  1  0  0  0
 62136  1  0  0  0
 62137  1  0  0  0
 62138  1  0  0  0
 63 65  1  0  0  0
 63139  1  0  0  0
 63140  1  0  0  0
 63141  1  0  0  0
 64142  1  0  0  0
 65143  1  0  0  0
 68 79  1  0  0  0
 71 73  2  0  0  0
 71 74  1  0  0  0
 71144  1  0  0  0
 72 73  1  0  0  0
 72 75  2  0  0  0
 72145  1  0  0  0
 73 82  1  0  0  0
 74 81  2  0  0  0
 74 83  1  0  0  0
 75 81  1  0  0  0
 75 84  1  0  0  0
 76146  1  0  0  0
 76147  1  0  0  0
 76148  1  0  0  0
 76 80  1  0  0  0
 77 84  1  0  0  0
 77149  1  0  0  0
 77150  1  0  0  0
 77151  1  0  0  0
 78 84  1  0  0  0
 78152  1  0  0  0
 78153  1  0  0  0
 78154  1  0  0  0
 79 80  1  0  0  0
 79155  1  0  0  0
 79156  1  0  0  0
 80 82  1  0  0  0
 80157  1  0  0  0
 81158  1  0  0  0
 82159  1  0  0  0
 83160  1  0  0  0
M  CHG  1  81   1
M  ISO  4   1 100  68 101  79 101  83 100
M  END
> <chiral flag>
0

> <version>
0

> <s_m_source_file>
/data/baiqing/PycharmProjects/Reinvent-master-3.2/result/LINK_invent/BTK/process_docking_weight1_custom_sum_contain_oxygen_bond_distance_aromatic_linkinvent_7_9_3/rearranged_h_0011.sdf

> <i_m_source_file_index>
24

> <r_mmod_Potential_Energy-OPLS-2005>
572.540588378906

> <r_mmod_Stretch_Energy-OPLS-2005>
319.485137939453

> <r_mmod_Bend_Energy-OPLS-2005>
300.600402832031

> <r_mmod_Torsional_Energy-OPLS-2005>
232.488677978516

> <r_mmod_Improper_Torsional_Energy-OPLS-2005>
9.79363250732422

> <r_mmod_Van_der_Waal_Energy-OPLS-2005>
139.609771728516

> <r_mmod_Electrostatic_Energy-OPLS-2005>
-260.448181152344

> <r_mmod_Solvation_Energy-OPLS-2005>
-411.364166259766

> <b_mmod_Minimization_Converged-OPLS-2005>
0

> <r_mmod_RMS_Derivative-OPLS-2005>
3.9292950630188

$$$$
24
                    3D
 Structure written by MMmdl.
173182  0  0  1  0            999 V2000
  -30.7936  -14.2652   20.7861 C   0  0  0  0  0  0
  -30.4202  -12.2930   19.3430 C   0  0  0  0  0  0
  -29.4713  -12.5719   18.1682 C   0  0  0  0  0  0
  -28.0011  -12.4003   18.5911 C   0  0  0  0  0  0
  -27.6688  -13.1960   19.8767 C   0  0  2  0  0  0
  -28.7075  -12.9037   20.9802 C   0  0  0  0  0  0
  -25.2589  -13.8140   20.5592 C   0  0  0  0  0  0
  -24.1822  -13.0430   20.9120 C   0  0  0  0  0  0
  -24.6374  -11.6907   20.8718 C   0  0  0  0  0  0
  -23.9018  -10.4290   21.0386 C   0  0  0  0  0  0
  -24.3580   -9.4222   21.9169 C   0  0  0  0  0  0
  -23.6291   -8.2237   22.0732 C   0  0  0  0  0  0
  -22.4277   -8.0263   21.3519 C   0  0  0  0  0  0
  -21.9873   -9.0228   20.4631 C   0  0  0  0  0  0
  -22.7177  -10.2130   20.3058 C   0  0  0  0  0  0
  -21.6827   -6.0723   22.5267 C   0  0  0  0  0  0
  -21.3986   -6.5627   23.8207 C   0  0  0  0  0  0
  -21.3669   -5.6774   24.9164 C   0  0  0  0  0  0
  -21.6075   -4.3041   24.7197 C   0  0  0  0  0  0
  -21.8835   -3.8130   23.4314 C   0  0  0  0  0  0
  -21.9175   -4.6950   22.3376 C   0  0  0  0  0  0
  -22.7856  -13.5252   21.1777 C   0  0  0  0  0  0
  -22.1636   -4.2159   21.0948 F   0  0  0  0  0  0
  -21.5640   -3.4521   25.7704 F   0  0  0  0  0  0
  -30.0655  -13.1721   20.4619 N   0  0  0  0  0  0
  -26.3046  -12.9300   20.3347 N   0  0  0  0  0  0
  -25.9300  -11.6472   20.5730 N   0  0  0  0  0  0
  -22.0462  -12.8295   22.0366 N   0  0  0  0  0  0
  -25.4278  -15.1837   20.3868 N   0  0  0  0  0  0
  -31.6787  -14.7527   20.0726 O   0  0  0  0  0  0
  -21.6633   -6.8863   21.4226 O   0  0  0  0  0  0
  -22.3553  -14.5534   20.6593 O   0  0  0  0  0  0
  -24.6073  -31.8730   23.2123 C   0  0  0  0  0  0
  -25.8984  -32.4857   23.8428 C   0  0  1  0  0  0
  -27.2827  -27.4971   20.0984 C   0  0  0  0  0  0
  -25.5868  -33.8655   24.2381 N   0  0  0  0  0  0
  -23.3954  -30.4897   21.5517 C   0  0  2  0  0  0
  -24.8499  -28.9563   20.1222 C   0  0  0  0  0  0
  -22.7382  -29.4671   22.5036 C   0  0  0  0  0  0
  -18.0268  -28.1376   22.8501 C   0  0  0  0  0  0
  -24.1483  -36.7314   23.2641 C   0  0  0  0  0  0
  -25.9121  -30.8618   21.3506 C   0  0  0  0  0  0
  -25.9982  -29.4974   20.7057 C   0  0  0  0  0  0
  -27.2093  -28.7830   20.6898 C   0  0  0  0  0  0
  -26.1099  -26.9569   19.5259 C   0  0  0  0  0  0
  -24.8966  -27.6805   19.5305 C   0  0  0  0  0  0
  -23.6023  -29.8092   20.1696 C   0  0  0  0  0  0
  -25.4102  -36.3143   24.0364 C   0  0  1  0  0  0
  -20.5855  -28.3654   23.1349 C   0  0  2  0  0  0
  -20.6762  -26.9401   22.5423 C   0  0  0  0  0  0
  -19.5745  -26.6388   21.5221 C   0  0  0  0  0  0
  -18.1917  -26.7930   22.1614 C   0  0  0  0  0  0
  -19.1512  -28.8837   23.2921 C   0  0  0  0  0  0
  -18.9434  -30.1443   23.8931 C   0  0  0  0  0  0
  -17.6438  -30.6589   24.0565 C   0  0  0  0  0  0
  -25.9017  -34.9502   23.5175 C   0  0  0  0  0  0
  -16.5334  -29.9090   23.6318 C   0  0  0  0  0  0
  -16.7255  -28.6502   23.0347 C   0  0  0  0  0  0
  -26.4450  -31.6604   25.0714 C   0  0  0  0  0  0
  -25.3744  -31.3659   26.1477 C   0  0  0  0  0  0
  -27.0261  -30.3074   24.5997 C   0  0  0  0  0  0
  -27.6069  -32.4300   25.7436 C   0  0  0  0  0  0
  -27.5599  -37.1800   24.8459 C   0  0  0  0  0  0
  -21.4120  -29.3027   22.3765 N   0  0  0  0  0  0
  -26.4296  -37.3823   23.9425 N   0  0  0  0  0  0
  -24.6567  -31.0876   22.0985 N   0  0  0  0  0  0
  -23.4175  -28.8221   23.3062 O   0  0  0  0  0  0
  -28.4446  -26.7443   20.0469 O   0  0  0  0  0  0
  -26.5572  -34.8946   22.4730 O   0  0  0  0  0  0
  -23.5284  -32.1442   23.7560 O   0  0  0  0  0  0
  -29.0605  -18.1012   23.7579 C   0  0  0  0  0  0
  -28.9906  -16.8718   24.4381 C   0  0  0  0  0  0
  -30.2941  -17.0484   21.9349 C   0  0  0  0  0  0
  -31.1691  -22.8036   17.9713 C   0  0  0  0  0  0
  -30.9388  -21.8790   20.2135 C   0  0  0  0  0  0
  -30.2824  -20.5492   18.2847 C   0  0  0  0  0  0
  -29.7127  -18.2071   22.5048 C   0  0  0  0  0  0
  -31.2990  -22.9420   19.3648 C   0  0  0  0  0  0
  -30.6674  -21.6057   17.4243 C   0  0  0  0  0  0
  -29.5689  -15.7268   23.8669 C   0  0  0  0  0  0
  -30.2048  -15.8080   22.6091 C   0  0  0  0  0  0
  -30.4121  -20.6744   19.6881 C   0  0  0  0  0  0
  -29.8367  -19.5566   21.8483 C   0  0  0  0  0  0
  -30.8005  -26.3666   20.6804 C   0  0  0  0  0  0
  -31.8125  -24.2363   19.9601 C   0  0  0  0  0  0
  -30.5557  -21.4695   15.9120 C   0  0  0  0  0  0
  -29.6368  -27.3583   20.5631 C   0  0  0  0  0  0
  -29.4973  -14.5052   24.5406 N   0  0  0  0  0  0
  -30.0566  -19.5686   20.5181 N   0  0  0  0  0  0
  -30.6668  -14.5837   22.0761 N   0  0  0  0  0  0
  -30.8056  -25.2882   19.8920 N   0  0  0  0  0  0
  -29.3280  -22.1006   15.4155 N   0  3  0  0  0  0
  -29.6669  -20.5721   22.5277 O   0  0  0  0  0  0
  -31.7047  -26.5833   21.4922 O   0  0  0  0  0  0
  -31.4558  -12.4361   19.0311 H   0  0  0  0  0  0
  -30.3416  -11.2499   19.6531 H   0  0  0  0  0  0
  -29.7031  -11.9206   17.3238 H   0  0  0  0  0  0
  -29.6290  -13.5914   17.8114 H   0  0  0  0  0  0
  -27.8091  -11.3377   18.7454 H   0  0  0  0  0  0
  -27.3398  -12.7163   17.7823 H   0  0  0  0  0  0
  -27.7350  -14.2545   19.6270 H   0  0  0  0  0  0
  -28.6493  -11.8566   21.2831 H   0  0  0  0  0  0
  -28.4532  -13.4822   21.8670 H   0  0  0  0  0  0
  -25.2717   -9.5749   22.4740 H   0  0  0  0  0  0
  -24.0022   -7.4640   22.7427 H   0  0  0  0  0  0
  -21.0819   -8.8728   19.8942 H   0  0  0  0  0  0
  -22.3590  -10.9676   19.6182 H   0  0  0  0  0  0
  -21.1966   -7.6135   23.9726 H   0  0  0  0  0  0
  -21.1482   -6.0476   25.9090 H   0  0  0  0  0  0
  -22.0625   -2.7596   23.2775 H   0  0  0  0  0  0
  -22.3994  -11.9983   22.4865 H   0  0  0  0  0  0
  -21.1089  -13.1382   22.2499 H   0  0  0  0  0  0
  -24.6536  -15.8353   20.4511 H   0  0  0  0  0  0
  -26.2691  -15.6058   20.0132 H   0  0  0  0  0  0
  -26.7064  -32.5617   23.1221 H   0  0  0  0  0  0
  -25.0069  -33.9832   25.0562 H   0  0  0  0  0  0
  -22.6829  -31.3051   21.4097 H   0  0  0  0  0  0
  -23.3777  -35.9611   23.3292 H   0  0  0  0  0  0
  -24.3593  -36.8924   22.2054 H   0  0  0  0  0  0
  -23.7181  -37.6507   23.6638 H   0  0  0  0  0  0
  -26.0070  -31.6268   20.5790 H   0  0  0  0  0  0
  -26.8057  -30.9315   21.9585 H   0  0  0  0  0  0
  -28.0709  -29.2592   21.1332 H   0  0  0  0  0  0
  -26.1385  -25.9761   19.0728 H   0  0  0  0  0  0
  -24.0111  -27.2511   19.0833 H   0  0  0  0  0  0
  -23.6968  -30.5785   19.4021 H   0  0  0  0  0  0
  -22.7328  -29.2152   19.8830 H   0  0  0  0  0  0
  -25.1267  -36.2041   25.0860 H   0  0  0  0  0  0
  -20.9953  -28.3209   24.1469 H   0  0  0  0  0  0
  -20.5693  -26.2259   23.3595 H   0  0  0  0  0  0
  -21.6625  -26.7472   22.1195 H   0  0  0  0  0  0
  -19.6897  -25.6309   21.1233 H   0  0  0  0  0  0
  -19.6686  -27.3212   20.6763 H   0  0  0  0  0  0
  -17.4201  -26.6723   21.3993 H   0  0  0  0  0  0
  -18.0276  -26.0058   22.8987 H   0  0  0  0  0  0
  -19.7909  -30.7246   24.2316 H   0  0  0  0  0  0
  -17.4990  -31.6272   24.5146 H   0  0  0  0  0  0
  -15.5331  -30.2992   23.7622 H   0  0  0  0  0  0
  -15.8655  -28.0822   22.7047 H   0  0  0  0  0  0
  -24.5903  -30.7034   25.7787 H   0  0  0  0  0  0
  -24.8937  -32.2787   26.5012 H   0  0  0  0  0  0
  -25.8104  -30.8748   27.0188 H   0  0  0  0  0  0
  -26.2751  -29.6840   24.1126 H   0  0  0  0  0  0
  -27.4164  -29.7296   25.4385 H   0  0  0  0  0  0
  -27.8533  -30.4438   23.9025 H   0  0  0  0  0  0
  -27.2743  -33.3599   26.2071 H   0  0  0  0  0  0
  -28.3825  -32.6872   25.0202 H   0  0  0  0  0  0
  -28.0808  -31.8387   26.5286 H   0  0  0  0  0  0
  -28.2598  -38.0125   24.7597 H   0  0  0  0  0  0
  -28.1125  -36.2671   24.6180 H   0  0  0  0  0  0
  -27.2335  -37.1319   25.8866 H   0  0  0  0  0  0
  -20.9280  -29.8736   21.6976 H   0  0  0  0  0  0
  -26.0210  -38.2910   24.1455 H   0  0  0  0  0  0
  -28.6171  -18.9735   24.2197 H   0  0  0  0  0  0
  -28.4968  -16.8164   25.3986 H   0  0  0  0  0  0
  -30.8104  -17.1097   20.9885 H   0  0  0  0  0  0
  -31.4658  -23.6173   17.3233 H   0  0  0  0  0  0
  -31.0871  -22.0113   21.2749 H   0  0  0  0  0  0
  -29.8903  -19.6346   17.8605 H   0  0  0  0  0  0
  -32.7181  -24.5456   19.4374 H   0  0  0  0  0  0
  -32.1041  -24.0579   20.9984 H   0  0  0  0  0  0
  -30.5727  -20.4199   15.6182 H   0  0  0  0  0  0
  -31.4192  -21.9363   15.4336 H   0  0  0  0  0  0
  -29.9435  -28.1885   19.9249 H   0  0  0  0  0  0
  -29.4743  -27.7388   21.5722 H   0  0  0  0  0  0
  -29.1118  -14.5474   25.4787 H   0  0  0  0  0  0
  -30.3472  -13.9517   24.5423 H   0  0  0  0  0  0
  -29.9925  -18.6665   20.0705 H   0  0  0  0  0  0
  -30.2869  -13.8194   22.6180 H   0  0  0  0  0  0
  -30.0373  -25.1753   19.2444 H   0  0  0  0  0  0
  -28.5230  -21.6631   15.8230 H   0  0  0  0  0  0
  -29.2758  -22.0046   14.4168 H   0  0  0  0  0  0
  -29.3213  -23.0776   15.6426 H   0  0  0  0  0  0
  1 25  1  0  0  0
  1 30  2  0  0  0
  1 90  1  0  0  0
  2  3  1  0  0  0
  2 25  1  0  0  0
  2 95  1  0  0  0
  2 96  1  0  0  0
  3  4  1  0  0  0
  3 97  1  0  0  0
  3 98  1  0  0  0
  4  5  1  0  0  0
  4 99  1  0  0  0
  4100  1  0  0  0
  5  6  1  0  0  0
  5 26  1  0  0  0
  5101  1  0  0  0
  6 25  1  0  0  0
  6102  1  0  0  0
  6103  1  0  0  0
  7  8  2  0  0  0
  7 26  1  0  0  0
  7 29  1  0  0  0
  8  9  1  0  0  0
  8 22  1  0  0  0
  9 10  1  0  0  0
  9 27  2  0  0  0
 10 11  2  0  0  0
 10 15  1  0  0  0
 11 12  1  0  0  0
 11104  1  0  0  0
 12 13  2  0  0  0
 12105  1  0  0  0
 13 14  1  0  0  0
 13 31  1  0  0  0
 14 15  2  0  0  0
 14106  1  0  0  0
 15107  1  0  0  0
 16 17  2  0  0  0
 16 21  1  0  0  0
 16 31  1  0  0  0
 17 18  1  0  0  0
 17108  1  0  0  0
 18 19  2  0  0  0
 18109  1  0  0  0
 19 20  1  0  0  0
 19 24  1  0  0  0
 20 21  2  0  0  0
 20110  1  0  0  0
 21 23  1  0  0  0
 22 28  1  0  0  0
 22 32  2  0  0  0
 26 27  1  0  0  0
 28111  1  0  0  0
 28112  1  0  0  0
 29113  1  0  0  0
 29114  1  0  0  0
 33 34  1  0  0  0
 33 66  1  0  0  0
 33 70  2  0  0  0
 34 36  1  0  0  0
 34 59  1  0  0  0
 34115  1  0  0  0
 35 44  2  0  0  0
 35 45  1  0  0  0
 35 68  1  0  0  0
 36 56  1  0  0  0
 36116  1  0  0  0
 37 39  1  0  0  0
 37 47  1  0  0  0
 37 66  1  0  0  0
 37117  1  0  0  0
 38 43  2  0  0  0
 38 46  1  0  0  0
 38 47  1  0  0  0
 39 64  1  0  0  0
 39 67  2  0  0  0
 40 52  1  0  0  0
 40 53  2  0  0  0
 40 58  1  0  0  0
 41118  1  0  0  0
 41119  1  0  0  0
 41120  1  0  0  0
 41 48  1  0  0  0
 42 43  1  0  0  0
 42 66  1  0  0  0
 42121  1  0  0  0
 42122  1  0  0  0
 43 44  1  0  0  0
 44123  1  0  0  0
 45 46  2  0  0  0
 45124  1  0  0  0
 46125  1  0  0  0
 47126  1  0  0  0
 47127  1  0  0  0
 48 56  1  0  0  0
 48 65  1  0  0  0
 48128  1  0  0  0
 49 50  1  0  0  0
 49 53  1  0  0  0
 49 64  1  0  0  0
 49129  1  0  0  0
 50 51  1  0  0  0
 50130  1  0  0  0
 50131  1  0  0  0
 51 52  1  0  0  0
 51132  1  0  0  0
 51133  1  0  0  0
 52134  1  0  0  0
 52135  1  0  0  0
 53 54  1  0  0  0
 54 55  2  0  0  0
 54136  1  0  0  0
 55 57  1  0  0  0
 55137  1  0  0  0
 56 69  2  0  0  0
 57 58  2  0  0  0
 57138  1  0  0  0
 58139  1  0  0  0
 59 60  1  0  0  0
 59 61  1  0  0  0
 59 62  1  0  0  0
 60140  1  0  0  0
 60141  1  0  0  0
 60142  1  0  0  0
 61143  1  0  0  0
 61144  1  0  0  0
 61145  1  0  0  0
 62146  1  0  0  0
 62147  1  0  0  0
 62148  1  0  0  0
 63 65  1  0  0  0
 63149  1  0  0  0
 63150  1  0  0  0
 63151  1  0  0  0
 64152  1  0  0  0
 65153  1  0  0  0
 68 87  1  0  0  0
 71 72  2  0  0  0
 71 77  1  0  0  0
 71154  1  0  0  0
 72 80  1  0  0  0
 72155  1  0  0  0
 73 77  2  0  0  0
 73 81  1  0  0  0
 73156  1  0  0  0
 74 78  2  0  0  0
 74 79  1  0  0  0
 74157  1  0  0  0
 75 78  1  0  0  0
 75 82  2  0  0  0
 75158  1  0  0  0
 76 79  2  0  0  0
 76 82  1  0  0  0
 76159  1  0  0  0
 77 83  1  0  0  0
 78 85  1  0  0  0
 79 86  1  0  0  0
 80 81  2  0  0  0
 80 88  1  0  0  0
 81 90  1  0  0  0
 82 89  1  0  0  0
 83 89  1  0  0  0
 83 93  2  0  0  0
 84 87  1  0  0  0
 84 91  1  0  0  0
 84 94  2  0  0  0
 85 91  1  0  0  0
 85160  1  0  0  0
 85161  1  0  0  0
 86 92  1  0  0  0
 86162  1  0  0  0
 86163  1  0  0  0
 87164  1  0  0  0
 87165  1  0  0  0
 88166  1  0  0  0
 88167  1  0  0  0
 89168  1  0  0  0
 90169  1  0  0  0
 91170  1  0  0  0
 92171  1  0  0  0
 92172  1  0  0  0
 92173  1  0  0  0
M  CHG  1  92   1
M  ISO  4   1 100  68 101  87 101  90 100
M  END
> <chiral flag>
0

> <version>
0

> <s_m_source_file>
/data/baiqing/PycharmProjects/Reinvent-master-3.2/result/LINK_invent/BTK/process_docking_weight1_custom_sum_contain_oxygen_bond_distance_aromatic_linkinvent_7_9_3/rearranged_h_0011.sdf

> <i_m_source_file_index>
25

> <r_mmod_Potential_Energy-OPLS-2005>
-572.716979980469

> <r_mmod_Stretch_Energy-OPLS-2005>
36.437801361084

> <r_mmod_Bend_Energy-OPLS-2005>
103.019371032715

> <r_mmod_Torsional_Energy-OPLS-2005>
250.598098754883

> <r_mmod_Improper_Torsional_Energy-OPLS-2005>
16.1076583862305

> <r_mmod_Van_der_Waal_Energy-OPLS-2005>
190.552581787109

> <r_mmod_Electrostatic_Energy-OPLS-2005>
-607.876159667969

> <r_mmod_Solvation_Energy-OPLS-2005>
-572.655822753906

> <b_mmod_Minimization_Converged-OPLS-2005>
0

> <r_mmod_RMS_Derivative-OPLS-2005>
3.34943914413452

$$$$
25
                    3D
 Structure written by MMmdl.
156164  0  0  1  0            999 V2000
  -30.6284  -14.7292   20.4380 C   0  0  0  0  0  0
  -30.4409  -12.4565   19.4467 C   0  0  0  0  0  0
  -29.5137  -12.5005   18.2142 C   0  0  0  0  0  0
  -28.0367  -12.3309   18.6287 C   0  0  0  0  0  0
  -27.6400  -13.2270   19.8344 C   0  0  2  0  0  0
  -28.6901  -13.1774   20.9648 C   0  0  0  0  0  0
  -25.2528  -13.8168   20.5724 C   0  0  0  0  0  0
  -24.1826  -13.0419   20.9236 C   0  0  0  0  0  0
  -24.6422  -11.6885   20.8762 C   0  0  0  0  0  0
  -23.9080  -10.4277   21.0414 C   0  0  0  0  0  0
  -24.3633   -9.4198   21.9198 C   0  0  0  0  0  0
  -23.6317   -8.2221   22.0737 C   0  0  0  0  0  0
  -22.4286   -8.0279   21.3533 C   0  0  0  0  0  0
  -21.9944   -9.0253   20.4624 C   0  0  0  0  0  0
  -22.7258  -10.2133   20.3061 C   0  0  0  0  0  0
  -21.6860   -6.0750   22.5287 C   0  0  0  0  0  0
  -21.4005   -6.5654   23.8225 C   0  0  0  0  0  0
  -21.3646   -5.6791   24.9187 C   0  0  0  0  0  0
  -21.6062   -4.3065   24.7224 C   0  0  0  0  0  0
  -21.8799   -3.8166   23.4344 C   0  0  0  0  0  0
  -21.9188   -4.6976   22.3415 C   0  0  0  0  0  0
  -22.7861  -13.5216   21.1896 C   0  0  0  0  0  0
  -22.1665   -4.2155   21.0991 F   0  0  0  0  0  0
  -21.5623   -3.4560   25.7751 F   0  0  0  0  0  0
  -29.9904  -13.5166   20.3685 N   0  0  0  0  0  0
  -26.2949  -12.9372   20.3231 N   0  0  0  0  0  0
  -25.9350  -11.6496   20.5716 N   0  0  0  0  0  0
  -22.0456  -12.8235   22.0404 N   0  0  0  0  0  0
  -25.4226  -15.1905   20.4215 N   0  0  0  0  0  0
  -31.8348  -14.8159   20.1938 O   0  0  0  0  0  0
  -21.6625   -6.8899   21.4252 O   0  0  0  0  0  0
  -22.3555  -14.5512   20.6701 O   0  0  0  0  0  0
  -24.6342  -31.8609   23.1964 C   0  0  0  0  0  0
  -25.9154  -32.4830   23.8349 C   0  0  1  0  0  0
  -27.2442  -27.2819   20.1349 C   0  0  0  0  0  0
  -25.5931  -33.8625   24.2258 N   0  0  0  0  0  0
  -23.4371  -30.4777   21.5359 C   0  0  2  0  0  0
  -24.8972  -28.9322   20.1076 C   0  0  0  0  0  0
  -22.7515  -29.4608   22.4827 C   0  0  0  0  0  0
  -18.0296  -28.1446   22.8517 C   0  0  0  0  0  0
  -24.1470  -36.7304   23.2628 C   0  0  0  0  0  0
  -25.9838  -30.7843   21.3766 C   0  0  0  0  0  0
  -26.0664  -29.4048   20.7203 C   0  0  0  0  0  0
  -27.2469  -28.5966   20.7145 C   0  0  0  0  0  0
  -26.0581  -26.8841   19.4817 C   0  0  0  0  0  0
  -24.9001  -27.6820   19.4701 C   0  0  0  0  0  0
  -23.6659  -29.8129   20.1514 C   0  0  0  0  0  0
  -25.4111  -36.3109   24.0304 C   0  0  1  0  0  0
  -20.5910  -28.3753   23.1256 C   0  0  2  0  0  0
  -20.6798  -26.9462   22.5398 C   0  0  0  0  0  0
  -19.5752  -26.6420   21.5233 C   0  0  0  0  0  0
  -18.1932  -26.8000   22.1649 C   0  0  0  0  0  0
  -19.1566  -28.8914   23.2906 C   0  0  0  0  0  0
  -18.9489  -30.1504   23.8940 C   0  0  0  0  0  0
  -17.6493  -30.6640   24.0586 C   0  0  0  0  0  0
  -25.9042  -34.9476   23.5065 C   0  0  0  0  0  0
  -16.5374  -29.9147   23.6340 C   0  0  0  0  0  0
  -16.7285  -28.6563   23.0366 C   0  0  0  0  0  0
  -26.4500  -31.6709   25.0761 C   0  0  0  0  0  0
  -25.3630  -31.3972   26.1397 C   0  0  0  0  0  0
  -27.0376  -30.3127   24.6313 C   0  0  0  0  0  0
  -27.6046  -32.4437   25.7563 C   0  0  0  0  0  0
  -27.5563  -37.1802   24.8442 C   0  0  0  0  0  0
  -21.4211  -29.3107   22.3622 N   0  0  0  0  0  0
  -26.4278  -37.3804   23.9376 N   0  0  0  0  0  0
  -24.7046  -31.0563   22.0947 N   0  0  0  0  0  0
  -23.4228  -28.8093   23.2880 O   0  0  0  0  0  0
  -28.3376  -26.3871   20.1559 O   0  0  0  0  0  0
  -26.5571  -34.8951   22.4608 O   0  0  0  0  0  0
  -23.5471  -32.1343   23.7265 O   0  0  0  0  0  0
  -30.9659  -17.4494   21.9618 C   0  0  0  0  0  0
  -31.1622  -18.7313   22.5016 C   0  0  0  0  0  0
  -29.6195  -18.4629   20.2142 C   0  0  0  0  0  0
  -30.1648  -17.2568   20.8255 C   0  0  0  0  0  0
  -29.8036  -19.8085   20.7408 C   0  0  0  0  0  0
  -30.5920  -19.8988   21.9251 C   0  0  0  0  0  0
  -31.0716  -21.1930   23.8788 C   0  0  0  0  0  0
  -28.9419  -23.6946   20.0358 C   0  0  0  0  0  0
  -28.7254  -22.2578   20.7488 C   0  0  0  0  0  0
  -28.0942  -24.9643   20.5823 C   0  0  0  0  0  0
  -29.8355  -15.8659   20.4582 N   0  0  0  0  0  0
  -29.2559  -20.9951   20.0946 N   0  0  0  0  0  0
  -30.8273  -21.1382   22.4786 O   0  0  0  0  0  0
  -31.4764  -12.5999   19.1318 H   0  0  0  0  0  0
  -30.4012  -11.4874   19.9410 H   0  0  0  0  0  0
  -29.8017  -11.7248   17.5053 H   0  0  0  0  0  0
  -29.6409  -13.4506   17.6908 H   0  0  0  0  0  0
  -27.8856  -11.2813   18.8841 H   0  0  0  0  0  0
  -27.3843  -12.5300   17.7764 H   0  0  0  0  0  0
  -27.6249  -14.2447   19.4471 H   0  0  0  0  0  0
  -28.7275  -12.1914   21.4309 H   0  0  0  0  0  0
  -28.4283  -13.8857   21.7552 H   0  0  0  0  0  0
  -25.2755   -9.5678   22.4789 H   0  0  0  0  0  0
  -24.0033   -7.4599   22.7443 H   0  0  0  0  0  0
  -21.0886   -8.8772   19.8920 H   0  0  0  0  0  0
  -22.3735  -10.9683   19.6172 H   0  0  0  0  0  0
  -21.1995   -7.6158   23.9728 H   0  0  0  0  0  0
  -21.1491   -6.0538   25.9085 H   0  0  0  0  0  0
  -22.0597   -2.7624   23.2852 H   0  0  0  0  0  0
  -22.4060  -11.9974   22.4942 H   0  0  0  0  0  0
  -21.1019  -13.1208   22.2406 H   0  0  0  0  0  0
  -24.6544  -15.8414   20.5444 H   0  0  0  0  0  0
  -26.2788  -15.6417   20.1308 H   0  0  0  0  0  0
  -26.7243  -32.5517   23.1128 H   0  0  0  0  0  0
  -25.0203  -33.9800   25.0484 H   0  0  0  0  0  0
  -22.7351  -31.3000   21.3792 H   0  0  0  0  0  0
  -23.3750  -35.9618   23.3310 H   0  0  0  0  0  0
  -24.3561  -36.8911   22.2036 H   0  0  0  0  0  0
  -23.7214  -37.6497   23.6667 H   0  0  0  0  0  0
  -26.1153  -31.5510   20.6128 H   0  0  0  0  0  0
  -26.8631  -30.8411   22.0065 H   0  0  0  0  0  0
  -28.1509  -28.9683   21.1812 H   0  0  0  0  0  0
  -26.0180  -25.9357   18.9693 H   0  0  0  0  0  0
  -24.0220  -27.3196   18.9532 H   0  0  0  0  0  0
  -23.7961  -30.5903   19.3970 H   0  0  0  0  0  0
  -22.7938  -29.2403   19.8314 H   0  0  0  0  0  0
  -25.1315  -36.1940   25.0800 H   0  0  0  0  0  0
  -21.0068  -28.3335   24.1352 H   0  0  0  0  0  0
  -20.5736  -26.2344   23.3605 H   0  0  0  0  0  0
  -21.6656  -26.7473   22.1165 H   0  0  0  0  0  0
  -19.6893  -25.6321   21.1291 H   0  0  0  0  0  0
  -19.6728  -27.3204   20.6745 H   0  0  0  0  0  0
  -17.4201  -26.6774   21.4035 H   0  0  0  0  0  0
  -18.0303  -26.0167   22.9066 H   0  0  0  0  0  0
  -19.7955  -30.7325   24.2331 H   0  0  0  0  0  0
  -17.5033  -31.6321   24.5206 H   0  0  0  0  0  0
  -15.5372  -30.3071   23.7666 H   0  0  0  0  0  0
  -15.8676  -28.0895   22.7063 H   0  0  0  0  0  0
  -24.5739  -30.7442   25.7657 H   0  0  0  0  0  0
  -24.8909  -32.3227   26.4710 H   0  0  0  0  0  0
  -25.7776  -30.9150   27.0245 H   0  0  0  0  0  0
  -26.3030  -29.6880   24.1220 H   0  0  0  0  0  0
  -27.3911  -29.7407   25.4907 H   0  0  0  0  0  0
  -27.8960  -30.4425   23.9715 H   0  0  0  0  0  0
  -27.2650  -33.3713   26.2175 H   0  0  0  0  0  0
  -28.3868  -32.7023   25.0422 H   0  0  0  0  0  0
  -28.0716  -31.8549   26.5460 H   0  0  0  0  0  0
  -28.2569  -38.0107   24.7498 H   0  0  0  0  0  0
  -28.1066  -36.2629   24.6275 H   0  0  0  0  0  0
  -27.2265  -37.1431   25.8840 H   0  0  0  0  0  0
  -20.9357  -29.8911   21.6932 H   0  0  0  0  0  0
  -26.0161  -38.2860   24.1435 H   0  0  0  0  0  0
  -31.4008  -16.6023   22.4766 H   0  0  0  0  0  0
  -31.7729  -18.7835   23.3872 H   0  0  0  0  0  0
  -29.0398  -18.3553   19.3107 H   0  0  0  0  0  0
  -30.9792  -22.2267   24.2124 H   0  0  0  0  0  0
  -32.0755  -20.8526   24.1370 H   0  0  0  0  0  0
  -30.3439  -20.6003   24.4383 H   0  0  0  0  0  0
  -28.7158  -23.5793   18.9761 H   0  0  0  0  0  0
  -30.0043  -23.9425   20.0736 H   0  0  0  0  0  0
  -29.0396  -22.3425   21.7880 H   0  0  0  0  0  0
  -27.6467  -22.1033   20.7982 H   0  0  0  0  0  0
  -27.0475  -24.7011   20.4417 H   0  0  0  0  0  0
  -28.2058  -24.9813   21.6651 H   0  0  0  0  0  0
  -28.8501  -15.6783   20.3520 H   0  0  0  0  0  0
  -28.7437  -20.7786   19.2399 H   0  0  0  0  0  0
  1 25  1  0  0  0
  1 30  2  0  0  0
  1 81  1  0  0  0
  2  3  1  0  0  0
  2 25  1  0  0  0
  2 84  1  0  0  0
  2 85  1  0  0  0
  3  4  1  0  0  0
  3 86  1  0  0  0
  3 87  1  0  0  0
  4  5  1  0  0  0
  4 88  1  0  0  0
  4 89  1  0  0  0
  5  6  1  0  0  0
  5 26  1  0  0  0
  5 90  1  0  0  0
  6 25  1  0  0  0
  6 91  1  0  0  0
  6 92  1  0  0  0
  7  8  2  0  0  0
  7 26  1  0  0  0
  7 29  1  0  0  0
  8  9  1  0  0  0
  8 22  1  0  0  0
  9 10  1  0  0  0
  9 27  2  0  0  0
 10 11  2  0  0  0
 10 15  1  0  0  0
 11 12  1  0  0  0
 11 93  1  0  0  0
 12 13  2  0  0  0
 12 94  1  0  0  0
 13 14  1  0  0  0
 13 31  1  0  0  0
 14 15  2  0  0  0
 14 95  1  0  0  0
 15 96  1  0  0  0
 16 17  2  0  0  0
 16 21  1  0  0  0
 16 31  1  0  0  0
 17 18  1  0  0  0
 17 97  1  0  0  0
 18 19  2  0  0  0
 18 98  1  0  0  0
 19 20  1  0  0  0
 19 24  1  0  0  0
 20 21  2  0  0  0
 20 99  1  0  0  0
 21 23  1  0  0  0
 22 28  1  0  0  0
 22 32  2  0  0  0
 26 27  1  0  0  0
 28100  1  0  0  0
 28101  1  0  0  0
 29102  1  0  0  0
 29103  1  0  0  0
 33 34  1  0  0  0
 33 66  1  0  0  0
 33 70  2  0  0  0
 34 36  1  0  0  0
 34 59  1  0  0  0
 34104  1  0  0  0
 35 44  2  0  0  0
 35 45  1  0  0  0
 35 68  1  0  0  0
 36 56  1  0  0  0
 36105  1  0  0  0
 37 39  1  0  0  0
 37 47  1  0  0  0
 37 66  1  0  0  0
 37106  1  0  0  0
 38 43  2  0  0  0
 38 46  1  0  0  0
 38 47  1  0  0  0
 39 64  1  0  0  0
 39 67  2  0  0  0
 40 52  1  0  0  0
 40 53  2  0  0  0
 40 58  1  0  0  0
 41107  1  0  0  0
 41108  1  0  0  0
 41109  1  0  0  0
 41 48  1  0  0  0
 42 43  1  0  0  0
 42 66  1  0  0  0
 42110  1  0  0  0
 42111  1  0  0  0
 43 44  1  0  0  0
 44112  1  0  0  0
 45 46  2  0  0  0
 45113  1  0  0  0
 46114  1  0  0  0
 47115  1  0  0  0
 47116  1  0  0  0
 48 56  1  0  0  0
 48 65  1  0  0  0
 48117  1  0  0  0
 49 50  1  0  0  0
 49 53  1  0  0  0
 49 64  1  0  0  0
 49118  1  0  0  0
 50 51  1  0  0  0
 50119  1  0  0  0
 50120  1  0  0  0
 51 52  1  0  0  0
 51121  1  0  0  0
 51122  1  0  0  0
 52123  1  0  0  0
 52124  1  0  0  0
 53 54  1  0  0  0
 54 55  2  0  0  0
 54125  1  0  0  0
 55 57  1  0  0  0
 55126  1  0  0  0
 56 69  2  0  0  0
 57 58  2  0  0  0
 57127  1  0  0  0
 58128  1  0  0  0
 59 60  1  0  0  0
 59 61  1  0  0  0
 59 62  1  0  0  0
 60129  1  0  0  0
 60130  1  0  0  0
 60131  1  0  0  0
 61132  1  0  0  0
 61133  1  0  0  0
 61134  1  0  0  0
 62135  1  0  0  0
 62136  1  0  0  0
 62137  1  0  0  0
 63 65  1  0  0  0
 63138  1  0  0  0
 63139  1  0  0  0
 63140  1  0  0  0
 64141  1  0  0  0
 65142  1  0  0  0
 68 80  1  0  0  0
 71 72  2  0  0  0
 71 74  1  0  0  0
 71143  1  0  0  0
 72 76  1  0  0  0
 72144  1  0  0  0
 73 74  2  0  0  0
 73 75  1  0  0  0
 73145  1  0  0  0
 74 81  1  0  0  0
 75 76  2  0  0  0
 75 82  1  0  0  0
 76 83  1  0  0  0
 77 83  1  0  0  0
 77146  1  0  0  0
 77147  1  0  0  0
 77148  1  0  0  0
 78 79  1  0  0  0
 78 80  1  0  0  0
 78149  1  0  0  0
 78150  1  0  0  0
 79 82  1  0  0  0
 79151  1  0  0  0
 79152  1  0  0  0
 80153  1  0  0  0
 80154  1  0  0  0
 81155  1  0  0  0
 82156  1  0  0  0
M  ISO  4   1 100  68 101  80 101  81 100
M  END
> <chiral flag>
0

> <version>
0

> <s_m_source_file>
/data/baiqing/PycharmProjects/Reinvent-master-3.2/result/LINK_invent/BTK/process_docking_weight1_custom_sum_contain_oxygen_bond_distance_aromatic_linkinvent_7_9_3/rearranged_h_0011.sdf

> <i_m_source_file_index>
26

> <r_mmod_Potential_Energy-OPLS-2005>
211.07438659668

> <r_mmod_Stretch_Energy-OPLS-2005>
117.692680358887

> <r_mmod_Bend_Energy-OPLS-2005>
168.236175537109

> <r_mmod_Torsional_Energy-OPLS-2005>
254.776153564453

> <r_mmod_Improper_Torsional_Energy-OPLS-2005>
11.3580017089844

> <r_mmod_Van_der_Waal_Energy-OPLS-2005>
148.623107910156

> <r_mmod_Electrostatic_Energy-OPLS-2005>
-334.653015136719

> <r_mmod_Solvation_Energy-OPLS-2005>
-236.60725402832

> <b_mmod_Minimization_Converged-OPLS-2005>
0

> <r_mmod_RMS_Derivative-OPLS-2005>
6.00692939758301

$$$$
26
                    3D
 Structure written by MMmdl.
154162  0  0  1  0            999 V2000
  -30.6106  -14.7305   20.5107 C   0  0  0  0  0  0
  -30.4337  -12.4627   19.4488 C   0  0  0  0  0  0
  -29.4895  -12.4825   18.2256 C   0  0  0  0  0  0
  -28.0216  -12.3070   18.6634 C   0  0  0  0  0  0
  -27.6346  -13.2257   19.8490 C   0  0  2  0  0  0
  -28.6864  -13.1671   20.9750 C   0  0  0  0  0  0
  -25.2463  -13.8169   20.5709 C   0  0  0  0  0  0
  -24.1778  -13.0455   20.9285 C   0  0  0  0  0  0
  -24.6365  -11.6929   20.8839 C   0  0  0  0  0  0
  -23.9071  -10.4298   21.0481 C   0  0  0  0  0  0
  -24.3643   -9.4184   21.9215 C   0  0  0  0  0  0
  -23.6310   -8.2223   22.0754 C   0  0  0  0  0  0
  -22.4284   -8.0280   21.3537 C   0  0  0  0  0  0
  -21.9942   -9.0270   20.4638 C   0  0  0  0  0  0
  -22.7285  -10.2137   20.3083 C   0  0  0  0  0  0
  -21.6852   -6.0748   22.5284 C   0  0  0  0  0  0
  -21.3991   -6.5645   23.8223 C   0  0  0  0  0  0
  -21.3645   -5.6792   24.9181 C   0  0  0  0  0  0
  -21.6055   -4.3064   24.7216 C   0  0  0  0  0  0
  -21.8829   -3.8164   23.4331 C   0  0  0  0  0  0
  -21.9189   -4.6982   22.3392 C   0  0  0  0  0  0
  -22.7773  -13.5214   21.1898 C   0  0  0  0  0  0
  -22.1661   -4.2176   21.0967 F   0  0  0  0  0  0
  -21.5654   -3.4541   25.7722 F   0  0  0  0  0  0
  -29.9724  -13.5226   20.3728 N   0  0  0  0  0  0
  -26.2900  -12.9391   20.3340 N   0  0  0  0  0  0
  -25.9292  -11.6535   20.5852 N   0  0  0  0  0  0
  -22.0383  -12.8229   22.0418 N   0  0  0  0  0  0
  -25.4037  -15.1893   20.3995 N   0  0  0  0  0  0
  -31.8168  -14.8208   20.2683 O   0  0  0  0  0  0
  -21.6638   -6.8880   21.4241 O   0  0  0  0  0  0
  -22.3469  -14.5501   20.6685 O   0  0  0  0  0  0
  -24.6366  -31.8516   23.1995 C   0  0  0  0  0  0
  -25.9177  -32.4741   23.8323 C   0  0  1  0  0  0
  -27.2138  -27.2250   20.1347 C   0  0  0  0  0  0
  -25.5976  -33.8538   24.2259 N   0  0  0  0  0  0
  -23.4323  -30.4779   21.5412 C   0  0  2  0  0  0
  -24.8789  -28.9224   20.1111 C   0  0  0  0  0  0
  -22.7493  -29.4565   22.4856 C   0  0  0  0  0  0
  -18.0268  -28.1342   22.8475 C   0  0  0  0  0  0
  -24.1506  -36.7311   23.2636 C   0  0  0  0  0  0
  -25.9821  -30.7544   21.3856 C   0  0  0  0  0  0
  -26.0526  -29.3739   20.7287 C   0  0  0  0  0  0
  -27.2183  -28.5346   20.7354 C   0  0  0  0  0  0
  -26.0198  -26.8660   19.4646 C   0  0  0  0  0  0
  -24.8692  -27.6763   19.4687 C   0  0  0  0  0  0
  -23.6580  -29.8224   20.1549 C   0  0  0  0  0  0
  -25.4118  -36.3070   24.0331 C   0  0  1  0  0  0
  -20.5868  -28.3659   23.1243 C   0  0  2  0  0  0
  -20.6732  -26.9368   22.5350 C   0  0  0  0  0  0
  -19.5688  -26.6330   21.5158 C   0  0  0  0  0  0
  -18.1872  -26.7876   22.1588 C   0  0  0  0  0  0
  -19.1511  -28.8804   23.2906 C   0  0  0  0  0  0
  -18.9427  -30.1378   23.8992 C   0  0  0  0  0  0
  -17.6435  -30.6551   24.0602 C   0  0  0  0  0  0
  -25.9061  -34.9443   23.5091 C   0  0  0  0  0  0
  -16.5353  -29.9102   23.6224 C   0  0  0  0  0  0
  -16.7257  -28.6514   23.0254 C   0  0  0  0  0  0
  -26.4529  -31.6563   25.0719 C   0  0  0  0  0  0
  -25.3760  -31.3727   26.1464 C   0  0  0  0  0  0
  -27.0402  -30.2972   24.6235 C   0  0  0  0  0  0
  -27.6064  -32.4321   25.7521 C   0  0  0  0  0  0
  -27.5589  -37.1827   24.8474 C   0  0  0  0  0  0
  -21.4168  -29.3036   22.3670 N   0  0  0  0  0  0
  -26.4299  -37.3766   23.9411 N   0  0  0  0  0  0
  -24.7034  -31.0453   22.0991 N   0  0  0  0  0  0
  -23.4212  -28.8055   23.2924 O   0  0  0  0  0  0
  -28.2908  -26.2939   20.2268 O   0  0  0  0  0  0
  -26.5606  -34.8918   22.4648 O   0  0  0  0  0  0
  -23.5504  -32.1352   23.7266 O   0  0  0  0  0  0
  -29.7779  -19.1543   22.7443 C   0  0  0  0  0  0
  -30.0397  -18.5878   23.9978 C   0  0  0  0  0  0
  -30.2322  -16.4219   22.9481 C   0  0  0  0  0  0
  -29.6948  -18.4008   21.5433 C   0  0  0  0  0  0
  -29.9564  -16.9431   21.6520 C   0  0  0  0  0  0
  -30.2655  -17.2153   24.1013 C   0  0  0  0  0  0
  -29.3140  -19.3012   20.3578 C   0  0  0  0  0  0
  -29.0964  -20.6935   20.4002 C   0  0  0  0  0  0
  -28.6817  -22.1011   19.7316 C   0  0  0  0  0  0
  -28.8420  -23.5389   20.4845 C   0  0  0  0  0  0
  -28.1138  -24.8400   19.8202 C   0  0  0  0  0  0
  -29.8321  -15.8773   20.6458 N   0  0  0  0  0  0
  -30.4957  -16.6541   25.3129 F   0  0  0  0  0  0
  -31.4654  -12.6185   19.1267 H   0  0  0  0  0  0
  -30.4146  -11.4892   19.9417 H   0  0  0  0  0  0
  -29.7555  -11.6935   17.5211 H   0  0  0  0  0  0
  -29.6030  -13.4211   17.6846 H   0  0  0  0  0  0
  -27.8952  -11.2641   18.9594 H   0  0  0  0  0  0
  -27.3430  -12.4719   17.8237 H   0  0  0  0  0  0
  -27.6194  -14.2399   19.4495 H   0  0  0  0  0  0
  -28.7408  -12.1750   21.4256 H   0  0  0  0  0  0
  -28.4295  -13.8576   21.7783 H   0  0  0  0  0  0
  -25.2783   -9.5671   22.4807 H   0  0  0  0  0  0
  -24.0024   -7.4595   22.7476 H   0  0  0  0  0  0
  -21.0884   -8.8846   19.8919 H   0  0  0  0  0  0
  -22.3795  -10.9711   19.6213 H   0  0  0  0  0  0
  -21.1967   -7.6157   23.9736 H   0  0  0  0  0  0
  -21.1446   -6.0506   25.9083 H   0  0  0  0  0  0
  -22.0613   -2.7625   23.2819 H   0  0  0  0  0  0
  -22.4024  -11.9972   22.4967 H   0  0  0  0  0  0
  -21.0947  -13.1206   22.2491 H   0  0  0  0  0  0
  -24.6092  -15.8151   20.4825 H   0  0  0  0  0  0
  -26.2335  -15.6488   20.0499 H   0  0  0  0  0  0
  -26.7244  -32.5361   23.1071 H   0  0  0  0  0  0
  -25.0225  -33.9684   25.0473 H   0  0  0  0  0  0
  -22.7316  -31.3030   21.3979 H   0  0  0  0  0  0
  -23.3747  -35.9668   23.3288 H   0  0  0  0  0  0
  -24.3619  -36.8942   22.2056 H   0  0  0  0  0  0
  -23.7294  -37.6529   23.6653 H   0  0  0  0  0  0
  -26.1252  -31.5127   20.6138 H   0  0  0  0  0  0
  -26.8589  -30.8031   22.0191 H   0  0  0  0  0  0
  -28.1077  -28.8711   21.2481 H   0  0  0  0  0  0
  -25.9271  -25.9314   18.9338 H   0  0  0  0  0  0
  -23.9752  -27.3254   18.9714 H   0  0  0  0  0  0
  -23.8118  -30.6096   19.4189 H   0  0  0  0  0  0
  -22.7703  -29.2836   19.8218 H   0  0  0  0  0  0
  -25.1303  -36.1923   25.0818 H   0  0  0  0  0  0
  -20.9934  -28.3244   24.1372 H   0  0  0  0  0  0
  -20.5616  -26.2262   23.3551 H   0  0  0  0  0  0
  -21.6636  -26.7357   22.1226 H   0  0  0  0  0  0
  -19.6830  -25.6229   21.1194 H   0  0  0  0  0  0
  -19.6593  -27.3105   20.6649 H   0  0  0  0  0  0
  -17.4127  -26.6673   21.3989 H   0  0  0  0  0  0
  -18.0194  -26.0012   22.8976 H   0  0  0  0  0  0
  -19.7842  -30.7188   24.2491 H   0  0  0  0  0  0
  -17.4972  -31.6199   24.5290 H   0  0  0  0  0  0
  -15.5365  -30.3054   23.7467 H   0  0  0  0  0  0
  -15.8679  -28.0857   22.6874 H   0  0  0  0  0  0
  -24.5925  -30.7084   25.7827 H   0  0  0  0  0  0
  -24.8979  -32.2901   26.4889 H   0  0  0  0  0  0
  -25.8100  -30.8923   27.0243 H   0  0  0  0  0  0
  -26.2984  -29.6681   24.1300 H   0  0  0  0  0  0
  -27.4130  -29.7286   25.4768 H   0  0  0  0  0  0
  -27.8840  -30.4261   23.9457 H   0  0  0  0  0  0
  -27.2630  -33.3608   26.2090 H   0  0  0  0  0  0
  -28.3878  -32.6896   25.0363 H   0  0  0  0  0  0
  -28.0709  -31.8451   26.5466 H   0  0  0  0  0  0
  -28.2610  -38.0113   24.7479 H   0  0  0  0  0  0
  -28.1082  -36.2653   24.6331 H   0  0  0  0  0  0
  -27.2321  -37.1513   25.8880 H   0  0  0  0  0  0
  -20.9272  -29.8981   21.7140 H   0  0  0  0  0  0
  -26.0183  -38.2857   24.1346 H   0  0  0  0  0  0
  -29.6164  -20.2220   22.7420 H   0  0  0  0  0  0
  -30.0624  -19.2134   24.8795 H   0  0  0  0  0  0
  -30.3754  -15.3633   23.1062 H   0  0  0  0  0  0
  -29.2042  -18.7066   19.4494 H   0  0  0  0  0  0
  -28.9104  -20.4751   19.3585 H   0  0  0  0  0  0
  -27.6243  -22.0052   19.4661 H   0  0  0  0  0  0
  -29.2005  -22.2352   18.7731 H   0  0  0  0  0  0
  -28.4713  -23.4347   21.5050 H   0  0  0  0  0  0
  -29.9056  -23.7465   20.5899 H   0  0  0  0  0  0
  -27.0658  -24.5629   19.9093 H   0  0  0  0  0  0
  -28.3496  -24.8152   18.7562 H   0  0  0  0  0  0
  -28.8854  -15.7552   20.3238 H   0  0  0  0  0  0
  1 25  1  0  0  0
  1 30  2  0  0  0
  1 82  1  0  0  0
  2  3  1  0  0  0
  2 25  1  0  0  0
  2 84  1  0  0  0
  2 85  1  0  0  0
  3  4  1  0  0  0
  3 86  1  0  0  0
  3 87  1  0  0  0
  4  5  1  0  0  0
  4 88  1  0  0  0
  4 89  1  0  0  0
  5  6  1  0  0  0
  5 26  1  0  0  0
  5 90  1  0  0  0
  6 25  1  0  0  0
  6 91  1  0  0  0
  6 92  1  0  0  0
  7  8  2  0  0  0
  7 26  1  0  0  0
  7 29  1  0  0  0
  8  9  1  0  0  0
  8 22  1  0  0  0
  9 10  1  0  0  0
  9 27  2  0  0  0
 10 11  2  0  0  0
 10 15  1  0  0  0
 11 12  1  0  0  0
 11 93  1  0  0  0
 12 13  2  0  0  0
 12 94  1  0  0  0
 13 14  1  0  0  0
 13 31  1  0  0  0
 14 15  2  0  0  0
 14 95  1  0  0  0
 15 96  1  0  0  0
 16 17  2  0  0  0
 16 21  1  0  0  0
 16 31  1  0  0  0
 17 18  1  0  0  0
 17 97  1  0  0  0
 18 19  2  0  0  0
 18 98  1  0  0  0
 19 20  1  0  0  0
 19 24  1  0  0  0
 20 21  2  0  0  0
 20 99  1  0  0  0
 21 23  1  0  0  0
 22 28  1  0  0  0
 22 32  2  0  0  0
 26 27  1  0  0  0
 28100  1  0  0  0
 28101  1  0  0  0
 29102  1  0  0  0
 29103  1  0  0  0
 33 34  1  0  0  0
 33 66  1  0  0  0
 33 70  2  0  0  0
 34 36  1  0  0  0
 34 59  1  0  0  0
 34104  1  0  0  0
 35 44  2  0  0  0
 35 45  1  0  0  0
 35 68  1  0  0  0
 36 56  1  0  0  0
 36105  1  0  0  0
 37 39  1  0  0  0
 37 47  1  0  0  0
 37 66  1  0  0  0
 37106  1  0  0  0
 38 43  2  0  0  0
 38 46  1  0  0  0
 38 47  1  0  0  0
 39 64  1  0  0  0
 39 67  2  0  0  0
 40 52  1  0  0  0
 40 53  2  0  0  0
 40 58  1  0  0  0
 41107  1  0  0  0
 41108  1  0  0  0
 41109  1  0  0  0
 41 48  1  0  0  0
 42 43  1  0  0  0
 42 66  1  0  0  0
 42110  1  0  0  0
 42111  1  0  0  0
 43 44  1  0  0  0
 44112  1  0  0  0
 45 46  2  0  0  0
 45113  1  0  0  0
 46114  1  0  0  0
 47115  1  0  0  0
 47116  1  0  0  0
 48 56  1  0  0  0
 48 65  1  0  0  0
 48117  1  0  0  0
 49 50  1  0  0  0
 49 53  1  0  0  0
 49 64  1  0  0  0
 49118  1  0  0  0
 50 51  1  0  0  0
 50119  1  0  0  0
 50120  1  0  0  0
 51 52  1  0  0  0
 51121  1  0  0  0
 51122  1  0  0  0
 52123  1  0  0  0
 52124  1  0  0  0
 53 54  1  0  0  0
 54 55  2  0  0  0
 54125  1  0  0  0
 55 57  1  0  0  0
 55126  1  0  0  0
 56 69  2  0  0  0
 57 58  2  0  0  0
 57127  1  0  0  0
 58128  1  0  0  0
 59 60  1  0  0  0
 59 61  1  0  0  0
 59 62  1  0  0  0
 60129  1  0  0  0
 60130  1  0  0  0
 60131  1  0  0  0
 61132  1  0  0  0
 61133  1  0  0  0
 61134  1  0  0  0
 62135  1  0  0  0
 62136  1  0  0  0
 62137  1  0  0  0
 63 65  1  0  0  0
 63138  1  0  0  0
 63139  1  0  0  0
 63140  1  0  0  0
 64141  1  0  0  0
 65142  1  0  0  0
 68 81  1  0  0  0
 71 72  2  0  0  0
 71 74  1  0  0  0
 71143  1  0  0  0
 72 76  1  0  0  0
 72144  1  0  0  0
 73 75  1  0  0  0
 73 76  2  0  0  0
 73145  1  0  0  0
 74 75  2  0  0  0
 74 77  1  0  0  0
 75 82  1  0  0  0
 76 83  1  0  0  0
 77 78  2  0  0  0
 77146  1  0  0  0
 78 79  1  0  0  0
 78147  1  0  0  0
 79 80  1  0  0  0
 79148  1  0  0  0
 79149  1  0  0  0
 80 81  1  0  0  0
 80150  1  0  0  0
 80151  1  0  0  0
 81152  1  0  0  0
 81153  1  0  0  0
 82154  1  0  0  0
M  ISO  4   1 100  68 101  81 101  82 100
M  END
> <chiral flag>
0

> <version>
0

> <s_m_source_file>
/data/baiqing/PycharmProjects/Reinvent-master-3.2/result/LINK_invent/BTK/process_docking_weight1_custom_sum_contain_oxygen_bond_distance_aromatic_linkinvent_7_9_3/rearranged_h_0011.sdf

> <i_m_source_file_index>
27

> <r_mmod_Potential_Energy-OPLS-2005>
530.042846679688

> <r_mmod_Stretch_Energy-OPLS-2005>
149.021072387695

> <r_mmod_Bend_Energy-OPLS-2005>
424.750518798828

> <r_mmod_Torsional_Energy-OPLS-2005>
247.918365478516

> <r_mmod_Improper_Torsional_Energy-OPLS-2005>
9.27872657775879

> <r_mmod_Van_der_Waal_Energy-OPLS-2005>
165.187942504883

> <r_mmod_Electrostatic_Energy-OPLS-2005>
-360.470367431641

> <r_mmod_Solvation_Energy-OPLS-2005>
-206.130157470703

> <b_mmod_Minimization_Converged-OPLS-2005>
0

> <r_mmod_RMS_Derivative-OPLS-2005>
5.30100536346436

$$$$
27
                    3D
 Structure written by MMmdl.
162170  0  0  1  0            999 V2000
  -30.7067  -14.4327   20.6338 C   0  0  0  0  0  0
  -30.4309  -12.3080   19.4091 C   0  0  0  0  0  0
  -29.4955  -12.5254   18.2006 C   0  0  0  0  0  0
  -28.0154  -12.3824   18.6109 C   0  0  0  0  0  0
  -27.6669  -13.2031   19.8813 C   0  0  2  0  0  0
  -28.7048  -12.9391   20.9953 C   0  0  0  0  0  0
  -25.2611  -13.8168   20.5676 C   0  0  0  0  0  0
  -24.1850  -13.0445   20.9169 C   0  0  0  0  0  0
  -24.6398  -11.6911   20.8735 C   0  0  0  0  0  0
  -23.9066  -10.4293   21.0401 C   0  0  0  0  0  0
  -24.3619   -9.4208   21.9177 C   0  0  0  0  0  0
  -23.6289   -8.2242   22.0747 C   0  0  0  0  0  0
  -22.4268   -8.0285   21.3548 C   0  0  0  0  0  0
  -21.9915   -9.0255   20.4643 C   0  0  0  0  0  0
  -22.7245  -10.2127   20.3049 C   0  0  0  0  0  0
  -21.6851   -6.0735   22.5282 C   0  0  0  0  0  0
  -21.4013   -6.5641   23.8216 C   0  0  0  0  0  0
  -21.3657   -5.6792   24.9182 C   0  0  0  0  0  0
  -21.6043   -4.3053   24.7231 C   0  0  0  0  0  0
  -21.8821   -3.8146   23.4352 C   0  0  0  0  0  0
  -21.9192   -4.6963   22.3410 C   0  0  0  0  0  0
  -22.7872  -13.5248   21.1830 C   0  0  0  0  0  0
  -22.1663   -4.2148   21.0987 F   0  0  0  0  0  0
  -21.5625   -3.4541   25.7744 F   0  0  0  0  0  0
  -30.0464  -13.2560   20.4636 N   0  0  0  0  0  0
  -26.3045  -12.9323   20.3383 N   0  0  0  0  0  0
  -25.9326  -11.6486   20.5767 N   0  0  0  0  0  0
  -22.0516  -12.8238   22.0385 N   0  0  0  0  0  0
  -25.4360  -15.1870   20.4064 N   0  0  0  0  0  0
  -31.7761  -14.6908   20.0738 O   0  0  0  0  0  0
  -21.6639   -6.8880   21.4243 O   0  0  0  0  0  0
  -22.3562  -14.5549   20.6675 O   0  0  0  0  0  0
  -24.6132  -31.8702   23.2106 C   0  0  0  0  0  0
  -25.9044  -32.4828   23.8392 C   0  0  1  0  0  0
  -27.2302  -27.4335   20.0839 C   0  0  0  0  0  0
  -25.5924  -33.8621   24.2330 N   0  0  0  0  0  0
  -23.4010  -30.4955   21.5539 C   0  0  2  0  0  0
  -24.8442  -28.9689   20.1124 C   0  0  0  0  0  0
  -22.7416  -29.4652   22.4996 C   0  0  0  0  0  0
  -18.0279  -28.1363   22.8465 C   0  0  0  0  0  0
  -24.1513  -36.7297   23.2635 C   0  0  0  0  0  0
  -25.9316  -30.8352   21.3653 C   0  0  0  0  0  0
  -26.0089  -29.4725   20.7061 C   0  0  0  0  0  0
  -27.2044  -28.7134   20.6868 C   0  0  0  0  0  0
  -26.0410  -26.9540   19.4816 C   0  0  0  0  0  0
  -24.8560  -27.7076   19.4983 C   0  0  0  0  0  0
  -23.6055  -29.8334   20.1669 C   0  0  0  0  0  0
  -25.4127  -36.3110   24.0338 C   0  0  1  0  0  0
  -20.5871  -28.3633   23.1323 C   0  0  2  0  0  0
  -20.6784  -26.9380   22.5418 C   0  0  0  0  0  0
  -19.5767  -26.6369   21.5219 C   0  0  0  0  0  0
  -18.1926  -26.7911   22.1610 C   0  0  0  0  0  0
  -19.1522  -28.8822   23.2888 C   0  0  0  0  0  0
  -18.9458  -30.1439   23.8885 C   0  0  0  0  0  0
  -17.6458  -30.6574   24.0557 C   0  0  0  0  0  0
  -25.9053  -34.9476   23.5127 C   0  0  0  0  0  0
  -16.5341  -29.9069   23.6335 C   0  0  0  0  0  0
  -16.7267  -28.6498   23.0321 C   0  0  0  0  0  0
  -26.4459  -31.6585   25.0701 C   0  0  0  0  0  0
  -25.3717  -31.3699   26.1441 C   0  0  0  0  0  0
  -27.0300  -30.3046   24.6042 C   0  0  0  0  0  0
  -27.6045  -32.4289   25.7457 C   0  0  0  0  0  0
  -27.5596  -37.1792   24.8464 C   0  0  0  0  0  0
  -21.4146  -29.3006   22.3744 N   0  0  0  0  0  0
  -26.4314  -37.3793   23.9397 N   0  0  0  0  0  0
  -24.6671  -31.0808   22.1006 N   0  0  0  0  0  0
  -23.4201  -28.8190   23.3029 O   0  0  0  0  0  0
  -28.3929  -26.6814   20.1080 O   0  0  0  0  0  0
  -26.5606  -34.8931   22.4685 O   0  0  0  0  0  0
  -23.5328  -32.1435   23.7523 O   0  0  0  0  0  0
  -29.1007  -18.7062   22.5261 C   0  0  0  0  0  0
  -30.9766  -17.5555   20.7899 C   0  0  0  0  0  0
  -29.9615  -19.5625   21.7936 C   0  0  0  0  0  0
  -30.1129  -16.7162   21.5300 C   0  0  0  0  0  0
  -29.1643  -17.2946   22.3970 C   0  0  0  0  0  0
  -30.9036  -18.9597   20.9163 C   0  0  0  0  0  0
  -29.9709  -21.4013   23.3952 C   0  0  0  0  0  0
  -27.1773  -16.9181   23.6991 C   0  0  0  0  0  0
  -29.0244  -22.9654   20.7669 C   0  0  0  0  0  0
  -29.4373  -24.4198   20.4215 C   0  0  0  0  0  0
  -30.1807  -21.9581   20.9627 C   0  0  0  0  0  0
  -28.2215  -25.2591   19.9804 C   0  0  0  0  0  0
  -30.0892  -15.2914   21.4607 N   0  0  0  0  0  0
  -29.8761  -20.9654   22.0019 N   0  0  0  0  0  0
  -28.3500  -16.4134   23.0809 O   0  0  0  0  0  0
  -31.7812  -19.7118   20.2088 F   0  0  0  0  0  0
  -31.4735  -12.4257   19.1072 H   0  0  0  0  0  0
  -30.3460  -11.2874   19.7844 H   0  0  0  0  0  0
  -29.7343  -11.8155   17.4078 H   0  0  0  0  0  0
  -29.6608  -13.5197   17.7820 H   0  0  0  0  0  0
  -27.8174  -11.3246   18.7881 H   0  0  0  0  0  0
  -27.3669  -12.6778   17.7851 H   0  0  0  0  0  0
  -27.7247  -14.2580   19.6116 H   0  0  0  0  0  0
  -28.6778  -11.8901   21.2915 H   0  0  0  0  0  0
  -28.4447  -13.4898   21.9003 H   0  0  0  0  0  0
  -25.2764   -9.5681   22.4751 H   0  0  0  0  0  0
  -24.0003   -7.4637   22.7461 H   0  0  0  0  0  0
  -21.0846   -8.8768   19.8950 H   0  0  0  0  0  0
  -22.3703  -10.9664   19.6149 H   0  0  0  0  0  0
  -21.2005   -7.6144   23.9725 H   0  0  0  0  0  0
  -21.1475   -6.0518   25.9083 H   0  0  0  0  0  0
  -22.0600   -2.7606   23.2856 H   0  0  0  0  0  0
  -22.4126  -11.9894   22.4777 H   0  0  0  0  0  0
  -21.1129  -13.1248   22.2576 H   0  0  0  0  0  0
  -24.6705  -15.8467   20.4924 H   0  0  0  0  0  0
  -26.2959  -15.6174   20.0891 H   0  0  0  0  0  0
  -26.7105  -32.5556   23.1154 H   0  0  0  0  0  0
  -25.0097  -33.9768   25.0491 H   0  0  0  0  0  0
  -22.6880  -31.3121   21.4202 H   0  0  0  0  0  0
  -23.3789  -35.9621   23.3318 H   0  0  0  0  0  0
  -24.3627  -36.8895   22.2052 H   0  0  0  0  0  0
  -23.7242  -37.6492   23.6643 H   0  0  0  0  0  0
  -26.0486  -31.6050   20.6010 H   0  0  0  0  0  0
  -26.8178  -30.8810   21.9856 H   0  0  0  0  0  0
  -28.1021  -29.0972   21.1507 H   0  0  0  0  0  0
  -26.0014  -25.9943   18.9881 H   0  0  0  0  0  0
  -23.9618  -27.3151   19.0321 H   0  0  0  0  0  0
  -23.7094  -30.6115   19.4101 H   0  0  0  0  0  0
  -22.7278  -29.2544   19.8753 H   0  0  0  0  0  0
  -25.1311  -36.1974   25.0833 H   0  0  0  0  0  0
  -20.9942  -28.3210   24.1456 H   0  0  0  0  0  0
  -20.5737  -26.2236   23.3593 H   0  0  0  0  0  0
  -21.6645  -26.7466   22.1185 H   0  0  0  0  0  0
  -19.6958  -25.6299   21.1212 H   0  0  0  0  0  0
  -19.6722  -27.3219   20.6783 H   0  0  0  0  0  0
  -17.4209  -26.6650   21.3995 H   0  0  0  0  0  0
  -18.0325  -26.0049   22.9010 H   0  0  0  0  0  0
  -19.7946  -30.7257   24.2221 H   0  0  0  0  0  0
  -17.5020  -31.6255   24.5161 H   0  0  0  0  0  0
  -15.5342  -30.2958   23.7693 H   0  0  0  0  0  0
  -15.8664  -28.0851   22.6990 H   0  0  0  0  0  0
  -24.5912  -30.7027   25.7766 H   0  0  0  0  0  0
  -24.8863  -32.2860   26.4829 H   0  0  0  0  0  0
  -25.8041  -30.8897   27.0229 H   0  0  0  0  0  0
  -26.2838  -29.6793   24.1114 H   0  0  0  0  0  0
  -27.4134  -29.7280   25.4465 H   0  0  0  0  0  0
  -27.8661  -30.4415   23.9171 H   0  0  0  0  0  0
  -27.2700  -33.3615   26.2021 H   0  0  0  0  0  0
  -28.3859  -32.6790   25.0269 H   0  0  0  0  0  0
  -28.0706  -31.8401   26.5367 H   0  0  0  0  0  0
  -28.2589  -38.0111   24.7538 H   0  0  0  0  0  0
  -28.1109  -36.2627   24.6271 H   0  0  0  0  0  0
  -27.2307  -37.1429   25.8866 H   0  0  0  0  0  0
  -20.9311  -29.8694   21.6945 H   0  0  0  0  0  0
  -26.0212  -38.2878   24.1400 H   0  0  0  0  0  0
  -28.3809  -19.1503   23.1960 H   0  0  0  0  0  0
  -31.7159  -17.1473   20.1200 H   0  0  0  0  0  0
  -29.1055  -21.0829   23.9753 H   0  0  0  0  0  0
  -30.0283  -22.4893   23.4702 H   0  0  0  0  0  0
  -30.8703  -21.0004   23.8657 H   0  0  0  0  0  0
  -26.6409  -16.0902   24.1634 H   0  0  0  0  0  0
  -26.5120  -17.3768   22.9657 H   0  0  0  0  0  0
  -27.4046  -17.6366   24.4870 H   0  0  0  0  0  0
  -28.3690  -22.5777   19.9849 H   0  0  0  0  0  0
  -28.4066  -23.0055   21.6655 H   0  0  0  0  0  0
  -30.1932  -24.4346   19.6346 H   0  0  0  0  0  0
  -29.8940  -24.8739   21.3020 H   0  0  0  0  0  0
  -31.0894  -22.4901   21.2503 H   0  0  0  0  0  0
  -30.3890  -21.4902   20.0015 H   0  0  0  0  0  0
  -27.3673  -24.9500   20.5864 H   0  0  0  0  0  0
  -27.9880  -25.0099   18.9443 H   0  0  0  0  0  0
  -29.3187  -14.8820   21.9693 H   0  0  0  0  0  0
  1 25  1  0  0  0
  1 30  2  0  0  0
  1 83  1  0  0  0
  2  3  1  0  0  0
  2 25  1  0  0  0
  2 87  1  0  0  0
  2 88  1  0  0  0
  3  4  1  0  0  0
  3 89  1  0  0  0
  3 90  1  0  0  0
  4  5  1  0  0  0
  4 91  1  0  0  0
  4 92  1  0  0  0
  5  6  1  0  0  0
  5 26  1  0  0  0
  5 93  1  0  0  0
  6 25  1  0  0  0
  6 94  1  0  0  0
  6 95  1  0  0  0
  7  8  2  0  0  0
  7 26  1  0  0  0
  7 29  1  0  0  0
  8  9  1  0  0  0
  8 22  1  0  0  0
  9 10  1  0  0  0
  9 27  2  0  0  0
 10 11  2  0  0  0
 10 15  1  0  0  0
 11 12  1  0  0  0
 11 96  1  0  0  0
 12 13  2  0  0  0
 12 97  1  0  0  0
 13 14  1  0  0  0
 13 31  1  0  0  0
 14 15  2  0  0  0
 14 98  1  0  0  0
 15 99  1  0  0  0
 16 17  2  0  0  0
 16 21  1  0  0  0
 16 31  1  0  0  0
 17 18  1  0  0  0
 17100  1  0  0  0
 18 19  2  0  0  0
 18101  1  0  0  0
 19 20  1  0  0  0
 19 24  1  0  0  0
 20 21  2  0  0  0
 20102  1  0  0  0
 21 23  1  0  0  0
 22 28  1  0  0  0
 22 32  2  0  0  0
 26 27  1  0  0  0
 28103  1  0  0  0
 28104  1  0  0  0
 29105  1  0  0  0
 29106  1  0  0  0
 33 34  1  0  0  0
 33 66  1  0  0  0
 33 70  2  0  0  0
 34 36  1  0  0  0
 34 59  1  0  0  0
 34107  1  0  0  0
 35 44  2  0  0  0
 35 45  1  0  0  0
 35 68  1  0  0  0
 36 56  1  0  0  0
 36108  1  0  0  0
 37 39  1  0  0  0
 37 47  1  0  0  0
 37 66  1  0  0  0
 37109  1  0  0  0
 38 43  2  0  0  0
 38 46  1  0  0  0
 38 47  1  0  0  0
 39 64  1  0  0  0
 39 67  2  0  0  0
 40 52  1  0  0  0
 40 53  2  0  0  0
 40 58  1  0  0  0
 41110  1  0  0  0
 41111  1  0  0  0
 41112  1  0  0  0
 41 48  1  0  0  0
 42 43  1  0  0  0
 42 66  1  0  0  0
 42113  1  0  0  0
 42114  1  0  0  0
 43 44  1  0  0  0
 44115  1  0  0  0
 45 46  2  0  0  0
 45116  1  0  0  0
 46117  1  0  0  0
 47118  1  0  0  0
 47119  1  0  0  0
 48 56  1  0  0  0
 48 65  1  0  0  0
 48120  1  0  0  0
 49 50  1  0  0  0
 49 53  1  0  0  0
 49 64  1  0  0  0
 49121  1  0  0  0
 50 51  1  0  0  0
 50122  1  0  0  0
 50123  1  0  0  0
 51 52  1  0  0  0
 51124  1  0  0  0
 51125  1  0  0  0
 52126  1  0  0  0
 52127  1  0  0  0
 53 54  1  0  0  0
 54 55  2  0  0  0
 54128  1  0  0  0
 55 57  1  0  0  0
 55129  1  0  0  0
 56 69  2  0  0  0
 57 58  2  0  0  0
 57130  1  0  0  0
 58131  1  0  0  0
 59 60  1  0  0  0
 59 61  1  0  0  0
 59 62  1  0  0  0
 60132  1  0  0  0
 60133  1  0  0  0
 60134  1  0  0  0
 61135  1  0  0  0
 61136  1  0  0  0
 61137  1  0  0  0
 62138  1  0  0  0
 62139  1  0  0  0
 62140  1  0  0  0
 63 65  1  0  0  0
 63141  1  0  0  0
 63142  1  0  0  0
 63143  1  0  0  0
 64144  1  0  0  0
 65145  1  0  0  0
 68 82  1  0  0  0
 71 73  2  0  0  0
 71 75  1  0  0  0
 71146  1  0  0  0
 72 74  1  0  0  0
 72 76  2  0  0  0
 72147  1  0  0  0
 73 76  1  0  0  0
 73 84  1  0  0  0
 74 75  2  0  0  0
 74 83  1  0  0  0
 75 85  1  0  0  0
 76 86  1  0  0  0
 77 84  1  0  0  0
 77148  1  0  0  0
 77149  1  0  0  0
 77150  1  0  0  0
 78 85  1  0  0  0
 78151  1  0  0  0
 78152  1  0  0  0
 78153  1  0  0  0
 79 80  1  0  0  0
 79 81  1  0  0  0
 79154  1  0  0  0
 79155  1  0  0  0
 80 82  1  0  0  0
 80156  1  0  0  0
 80157  1  0  0  0
 81 84  1  0  0  0
 81158  1  0  0  0
 81159  1  0  0  0
 82160  1  0  0  0
 82161  1  0  0  0
 83162  1  0  0  0
M  ISO  4   1 100  68 101  82 101  83 100
M  END
> <chiral flag>
0

> <version>
0

> <s_m_source_file>
/data/baiqing/PycharmProjects/Reinvent-master-3.2/result/LINK_invent/BTK/process_docking_weight1_custom_sum_contain_oxygen_bond_distance_aromatic_linkinvent_7_9_3/rearranged_h_0011.sdf

> <i_m_source_file_index>
28

> <r_mmod_Potential_Energy-OPLS-2005>
-22.0899410247803

> <r_mmod_Stretch_Energy-OPLS-2005>
39.7122383117676

> <r_mmod_Bend_Energy-OPLS-2005>
124.501205444336

> <r_mmod_Torsional_Energy-OPLS-2005>
225.861236572266

> <r_mmod_Improper_Torsional_Energy-OPLS-2005>
4.01960325241089

> <r_mmod_Van_der_Waal_Energy-OPLS-2005>
172.807434082031

> <r_mmod_Electrostatic_Energy-OPLS-2005>
-390.144561767578

> <r_mmod_Solvation_Energy-OPLS-2005>
-209.291397094727

> <b_mmod_Minimization_Converged-OPLS-2005>
0

> <r_mmod_RMS_Derivative-OPLS-2005>
2.66995167732239

$$$$
28
                    3D
 Structure written by MMmdl.
151159  0  0  1  0            999 V2000
  -30.5175  -14.9384   20.4246 C   0  0  0  0  0  0
  -30.4481  -12.5767   19.5032 C   0  0  0  0  0  0
  -29.5266  -12.5367   18.2599 C   0  0  0  0  0  0
  -28.0571  -12.3254   18.6724 C   0  0  0  0  0  0
  -27.6369  -13.2446   19.8490 C   0  0  2  0  0  0
  -28.6794  -13.2414   20.9886 C   0  0  0  0  0  0
  -25.2487  -13.8207   20.5708 C   0  0  0  0  0  0
  -24.1792  -13.0436   20.9212 C   0  0  0  0  0  0
  -24.6402  -11.6920   20.8743 C   0  0  0  0  0  0
  -23.9080  -10.4293   21.0401 C   0  0  0  0  0  0
  -24.3627   -9.4209   21.9180 C   0  0  0  0  0  0
  -23.6300   -8.2244   22.0752 C   0  0  0  0  0  0
  -22.4281   -8.0282   21.3543 C   0  0  0  0  0  0
  -21.9919   -9.0256   20.4643 C   0  0  0  0  0  0
  -22.7251  -10.2132   20.3051 C   0  0  0  0  0  0
  -21.6854   -6.0737   22.5278 C   0  0  0  0  0  0
  -21.4016   -6.5638   23.8212 C   0  0  0  0  0  0
  -21.3660   -5.6789   24.9173 C   0  0  0  0  0  0
  -21.6045   -4.3052   24.7222 C   0  0  0  0  0  0
  -21.8819   -3.8146   23.4342 C   0  0  0  0  0  0
  -21.9194   -4.6964   22.3400 C   0  0  0  0  0  0
  -22.7812  -13.5209   21.1871 C   0  0  0  0  0  0
  -22.1662   -4.2149   21.0977 F   0  0  0  0  0  0
  -21.5630   -3.4535   25.7735 F   0  0  0  0  0  0
  -29.9617  -13.6595   20.4050 N   0  0  0  0  0  0
  -26.2921  -12.9434   20.3280 N   0  0  0  0  0  0
  -25.9339  -11.6564   20.5746 N   0  0  0  0  0  0
  -22.0465  -12.8195   22.0427 N   0  0  0  0  0  0
  -25.4157  -15.1936   20.4140 N   0  0  0  0  0  0
  -31.6994  -15.0527   20.0806 O   0  0  0  0  0  0
  -21.6642   -6.8881   21.4240 O   0  0  0  0  0  0
  -22.3493  -14.5514   20.6720 O   0  0  0  0  0  0
  -24.6439  -31.8431   23.1880 C   0  0  0  0  0  0
  -25.9212  -32.4686   23.8271 C   0  0  1  0  0  0
  -27.2201  -27.1280   20.1398 C   0  0  0  0  0  0
  -25.5963  -33.8494   24.2189 N   0  0  0  0  0  0
  -23.4478  -30.4630   21.5328 C   0  0  2  0  0  0
  -24.8976  -28.8914   20.1046 C   0  0  0  0  0  0
  -22.7571  -29.4543   22.4846 C   0  0  0  0  0  0
  -18.0306  -28.1400   22.8473 C   0  0  0  0  0  0
  -24.1491  -36.7242   23.2644 C   0  0  0  0  0  0
  -26.0047  -30.7117   21.3905 C   0  0  0  0  0  0
  -26.0732  -29.3237   20.7288 C   0  0  0  0  0  0
  -27.2290  -28.4552   20.7361 C   0  0  0  0  0  0
  -26.0147  -26.8014   19.4759 C   0  0  0  0  0  0
  -24.8820  -27.6438   19.4652 C   0  0  0  0  0  0
  -23.6741  -29.7937   20.1510 C   0  0  0  0  0  0
  -25.4123  -36.3023   24.0318 C   0  0  1  0  0  0
  -20.5920  -28.3724   23.1227 C   0  0  2  0  0  0
  -20.6788  -26.9423   22.5404 C   0  0  0  0  0  0
  -19.5765  -26.6381   21.5210 C   0  0  0  0  0  0
  -18.1944  -26.7939   22.1615 C   0  0  0  0  0  0
  -19.1564  -28.8880   23.2843 C   0  0  0  0  0  0
  -18.9479  -30.1475   23.8869 C   0  0  0  0  0  0
  -17.6476  -30.6593   24.0559 C   0  0  0  0  0  0
  -25.9074  -34.9400   23.5059 C   0  0  0  0  0  0
  -16.5367  -29.9083   23.6343 C   0  0  0  0  0  0
  -16.7290  -28.6505   23.0357 C   0  0  0  0  0  0
  -26.4533  -31.6560   25.0717 C   0  0  0  0  0  0
  -25.3719  -31.3754   26.1414 C   0  0  0  0  0  0
  -27.0405  -30.2952   24.6316 C   0  0  0  0  0  0
  -27.6055  -32.4337   25.7503 C   0  0  0  0  0  0
  -27.5573  -37.1780   24.8466 C   0  0  0  0  0  0
  -21.4262  -29.3047   22.3595 N   0  0  0  0  0  0
  -26.4285  -37.3737   23.9408 N   0  0  0  0  0  0
  -24.7185  -31.0278   22.0917 N   0  0  0  0  0  0
  -23.4210  -28.8091   23.3000 O   0  0  0  0  0  0
  -28.2781  -26.1493   20.2645 O   0  0  0  0  0  0
  -26.5654  -34.8900   22.4635 O   0  0  0  0  0  0
  -23.5556  -32.1317   23.7095 O   0  0  0  0  0  0
  -30.4605  -18.3541   19.5805 C   0  0  0  0  0  0
  -28.7019  -19.8974   21.0801 C   0  0  0  0  0  0
  -29.7044  -17.5849   20.5174 C   0  0  0  0  0  0
  -29.4688  -20.6849   20.1512 C   0  0  0  0  0  0
  -28.8065  -18.4489   21.2447 C   0  0  0  0  0  0
  -30.3376  -19.7931   19.3941 C   0  0  0  0  0  0
  -28.5245  -23.2715   20.3528 C   0  0  0  0  0  0
  -30.6196  -22.7924   19.2909 C   0  0  0  0  0  0
  -28.3431  -24.7477   19.5794 C   0  0  0  0  0  0
  -29.6924  -16.0573   20.7061 N   0  0  0  0  0  0
  -29.4281  -22.2349   19.9480 N   0  0  0  0  0  0
  -27.7614  -23.0602   21.3006 O   0  0  0  0  0  0
  -27.9912  -17.8607   22.1521 F   0  0  0  0  0  0
  -31.0922  -20.2980   18.3896 F   0  0  0  0  0  0
  -31.4820  -12.7393   19.1950 H   0  0  0  0  0  0
  -30.4416  -11.6158   20.0203 H   0  0  0  0  0  0
  -29.8427  -11.7451   17.5795 H   0  0  0  0  0  0
  -29.6189  -13.4718   17.7053 H   0  0  0  0  0  0
  -27.9450  -11.2806   18.9647 H   0  0  0  0  0  0
  -27.3965  -12.4749   17.8177 H   0  0  0  0  0  0
  -27.6092  -14.2541   19.4382 H   0  0  0  0  0  0
  -28.7604  -12.2522   21.4418 H   0  0  0  0  0  0
  -28.3785  -13.9194   21.7885 H   0  0  0  0  0  0
  -25.2773   -9.5681   22.4755 H   0  0  0  0  0  0
  -24.0007   -7.4633   22.7471 H   0  0  0  0  0  0
  -21.0851   -8.8773   19.8947 H   0  0  0  0  0  0
  -22.3711  -10.9670   19.6157 H   0  0  0  0  0  0
  -21.2007   -7.6146   23.9715 H   0  0  0  0  0  0
  -21.1482   -6.0519   25.9076 H   0  0  0  0  0  0
  -22.0599   -2.7608   23.2838 H   0  0  0  0  0  0
  -22.4095  -11.9862   22.4814 H   0  0  0  0  0  0
  -21.1078  -13.1208   22.2629 H   0  0  0  0  0  0
  -24.6475  -15.8447   20.5339 H   0  0  0  0  0  0
  -26.2626  -15.6390   20.0863 H   0  0  0  0  0  0
  -26.7275  -32.5279   23.0993 H   0  0  0  0  0  0
  -25.0112  -33.9610   25.0339 H   0  0  0  0  0  0
  -22.7511  -31.2896   21.3788 H   0  0  0  0  0  0
  -23.3759  -35.9568   23.3299 H   0  0  0  0  0  0
  -24.3573  -36.8879   22.2058 H   0  0  0  0  0  0
  -23.7241  -37.6436   23.6683 H   0  0  0  0  0  0
  -26.1662  -31.4667   20.6201 H   0  0  0  0  0  0
  -26.8735  -30.7578   22.0357 H   0  0  0  0  0  0
  -28.1198  -28.7778   21.2567 H   0  0  0  0  0  0
  -25.8810  -25.8494   18.9914 H   0  0  0  0  0  0
  -23.9823  -27.3053   18.9692 H   0  0  0  0  0  0
  -23.8095  -30.5694   19.3965 H   0  0  0  0  0  0
  -22.7889  -29.2360   19.8401 H   0  0  0  0  0  0
  -25.1312  -36.1847   25.0811 H   0  0  0  0  0  0
  -21.0014  -28.3318   24.1348 H   0  0  0  0  0  0
  -20.5674  -26.2339   23.3627 H   0  0  0  0  0  0
  -21.6653  -26.7423   22.1203 H   0  0  0  0  0  0
  -19.6922  -25.6285   21.1255 H   0  0  0  0  0  0
  -19.6707  -27.3177   20.6731 H   0  0  0  0  0  0
  -17.4216  -26.6690   21.4016 H   0  0  0  0  0  0
  -18.0335  -26.0089   22.9017 H   0  0  0  0  0  0
  -19.7955  -30.7300   24.2222 H   0  0  0  0  0  0
  -17.5029  -31.6271   24.5165 H   0  0  0  0  0  0
  -15.5365  -30.2974   23.7690 H   0  0  0  0  0  0
  -15.8690  -28.0816   22.7085 H   0  0  0  0  0  0
  -24.5910  -30.7084   25.7741 H   0  0  0  0  0  0
  -24.8894  -32.2936   26.4773 H   0  0  0  0  0  0
  -25.8008  -30.8978   27.0233 H   0  0  0  0  0  0
  -26.3031  -29.6665   24.1314 H   0  0  0  0  0  0
  -27.4000  -29.7262   25.4901 H   0  0  0  0  0  0
  -27.8948  -30.4181   23.9655 H   0  0  0  0  0  0
  -27.2640  -33.3664   26.2009 H   0  0  0  0  0  0
  -28.3904  -32.6858   25.0360 H   0  0  0  0  0  0
  -28.0683  -31.8513   26.5481 H   0  0  0  0  0  0
  -28.2582  -38.0082   24.7504 H   0  0  0  0  0  0
  -28.1077  -36.2610   24.6305 H   0  0  0  0  0  0
  -27.2290  -37.1438   25.8869 H   0  0  0  0  0  0
  -20.9474  -29.8760   21.6773 H   0  0  0  0  0  0
  -26.0148  -38.2803   24.1412 H   0  0  0  0  0  0
  -31.1485  -17.8279   18.9356 H   0  0  0  0  0  0
  -27.9921  -20.4123   21.7099 H   0  0  0  0  0  0
  -31.5147  -22.2361   19.5663 H   0  0  0  0  0  0
  -30.8604  -23.8109   19.5995 H   0  0  0  0  0  0
  -30.5128  -22.7748   18.2057 H   0  0  0  0  0  0
  -27.4636  -24.5936   18.9644 H   0  0  0  0  0  0
  -29.1222  -24.8509   18.8277 H   0  0  0  0  0  0
  -28.8271  -15.7501   21.1247 H   0  0  0  0  0  0
  1 25  1  0  0  0
  1 30  2  0  0  0
  1 80  1  0  0  0
  2  3  1  0  0  0
  2 25  1  0  0  0
  2 85  1  0  0  0
  2 86  1  0  0  0
  3  4  1  0  0  0
  3 87  1  0  0  0
  3 88  1  0  0  0
  4  5  1  0  0  0
  4 89  1  0  0  0
  4 90  1  0  0  0
  5  6  1  0  0  0
  5 26  1  0  0  0
  5 91  1  0  0  0
  6 25  1  0  0  0
  6 92  1  0  0  0
  6 93  1  0  0  0
  7  8  2  0  0  0
  7 26  1  0  0  0
  7 29  1  0  0  0
  8  9  1  0  0  0
  8 22  1  0  0  0
  9 10  1  0  0  0
  9 27  2  0  0  0
 10 11  2  0  0  0
 10 15  1  0  0  0
 11 12  1  0  0  0
 11 94  1  0  0  0
 12 13  2  0  0  0
 12 95  1  0  0  0
 13 14  1  0  0  0
 13 31  1  0  0  0
 14 15  2  0  0  0
 14 96  1  0  0  0
 15 97  1  0  0  0
 16 17  2  0  0  0
 16 21  1  0  0  0
 16 31  1  0  0  0
 17 18  1  0  0  0
 17 98  1  0  0  0
 18 19  2  0  0  0
 18 99  1  0  0  0
 19 20  1  0  0  0
 19 24  1  0  0  0
 20 21  2  0  0  0
 20100  1  0  0  0
 21 23  1  0  0  0
 22 28  1  0  0  0
 22 32  2  0  0  0
 26 27  1  0  0  0
 28101  1  0  0  0
 28102  1  0  0  0
 29103  1  0  0  0
 29104  1  0  0  0
 33 34  1  0  0  0
 33 66  1  0  0  0
 33 70  2  0  0  0
 34 36  1  0  0  0
 34 59  1  0  0  0
 34105  1  0  0  0
 35 44  2  0  0  0
 35 45  1  0  0  0
 35 68  1  0  0  0
 36 56  1  0  0  0
 36106  1  0  0  0
 37 39  1  0  0  0
 37 47  1  0  0  0
 37 66  1  0  0  0
 37107  1  0  0  0
 38 43  2  0  0  0
 38 46  1  0  0  0
 38 47  1  0  0  0
 39 64  1  0  0  0
 39 67  2  0  0  0
 40 52  1  0  0  0
 40 53  2  0  0  0
 40 58  1  0  0  0
 41108  1  0  0  0
 41109  1  0  0  0
 41110  1  0  0  0
 41 48  1  0  0  0
 42 43  1  0  0  0
 42 66  1  0  0  0
 42111  1  0  0  0
 42112  1  0  0  0
 43 44  1  0  0  0
 44113  1  0  0  0
 45 46  2  0  0  0
 45114  1  0  0  0
 46115  1  0  0  0
 47116  1  0  0  0
 47117  1  0  0  0
 48 56  1  0  0  0
 48 65  1  0  0  0
 48118  1  0  0  0
 49 50  1  0  0  0
 49 53  1  0  0  0
 49 64  1  0  0  0
 49119  1  0  0  0
 50 51  1  0  0  0
 50120  1  0  0  0
 50121  1  0  0  0
 51 52  1  0  0  0
 51122  1  0  0  0
 51123  1  0  0  0
 52124  1  0  0  0
 52125  1  0  0  0
 53 54  1  0  0  0
 54 55  2  0  0  0
 54126  1  0  0  0
 55 57  1  0  0  0
 55127  1  0  0  0
 56 69  2  0  0  0
 57 58  2  0  0  0
 57128  1  0  0  0
 58129  1  0  0  0
 59 60  1  0  0  0
 59 61  1  0  0  0
 59 62  1  0  0  0
 60130  1  0  0  0
 60131  1  0  0  0
 60132  1  0  0  0
 61133  1  0  0  0
 61134  1  0  0  0
 61135  1  0  0  0
 62136  1  0  0  0
 62137  1  0  0  0
 62138  1  0  0  0
 63 65  1  0  0  0
 63139  1  0  0  0
 63140  1  0  0  0
 63141  1  0  0  0
 64142  1  0  0  0
 65143  1  0  0  0
 68 79  1  0  0  0
 71 73  2  0  0  0
 71 76  1  0  0  0
 71144  1  0  0  0
 72 74  1  0  0  0
 72 75  2  0  0  0
 72145  1  0  0  0
 73 75  1  0  0  0
 73 80  1  0  0  0
 74 76  2  0  0  0
 74 81  1  0  0  0
 75 83  1  0  0  0
 76 84  1  0  0  0
 77 79  1  0  0  0
 77 81  1  0  0  0
 77 82  2  0  0  0
 78 81  1  0  0  0
 78146  1  0  0  0
 78147  1  0  0  0
 78148  1  0  0  0
 79149  1  0  0  0
 79150  1  0  0  0
 80151  1  0  0  0
M  ISO  4   1 100  68 101  79 101  80 100
M  END
> <chiral flag>
0

> <version>
0

> <s_m_source_file>
/data/baiqing/PycharmProjects/Reinvent-master-3.2/result/LINK_invent/BTK/process_docking_weight1_custom_sum_contain_oxygen_bond_distance_aromatic_linkinvent_7_9_3/rearranged_h_0011.sdf

> <i_m_source_file_index>
29

> <r_mmod_Potential_Energy-OPLS-2005>
538.82470703125

> <r_mmod_Stretch_Energy-OPLS-2005>
255.086669921875

> <r_mmod_Bend_Energy-OPLS-2005>
281.380676269531

> <r_mmod_Torsional_Energy-OPLS-2005>
257.304351806641

> <r_mmod_Improper_Torsional_Energy-OPLS-2005>
3.96693134307861

> <r_mmod_Van_der_Waal_Energy-OPLS-2005>
147.677963256836

> <r_mmod_Electrostatic_Energy-OPLS-2005>
-379.074310302734

> <r_mmod_Solvation_Energy-OPLS-2005>
-220.165115356445

> <b_mmod_Minimization_Converged-OPLS-2005>
0

> <r_mmod_RMS_Derivative-OPLS-2005>
0.500386595726013

$$$$
29
                    3D
 Structure written by MMmdl.
151159  0  0  1  0            999 V2000
  -30.6215  -14.6467   20.4927 C   0  0  0  0  0  0
  -30.4407  -12.3957   19.4503 C   0  0  0  0  0  0
  -29.5080  -12.5074   18.2234 C   0  0  0  0  0  0
  -28.0310  -12.3448   18.6369 C   0  0  0  0  0  0
  -27.6531  -13.2179   19.8634 C   0  0  2  0  0  0
  -28.7004  -13.0767   20.9916 C   0  0  0  0  0  0
  -25.2552  -13.8167   20.5692 C   0  0  0  0  0  0
  -24.1817  -13.0425   20.9166 C   0  0  0  0  0  0
  -24.6396  -11.6902   20.8726 C   0  0  0  0  0  0
  -23.9065  -10.4286   21.0398 C   0  0  0  0  0  0
  -24.3615   -9.4205   21.9181 C   0  0  0  0  0  0
  -23.6291   -8.2241   22.0754 C   0  0  0  0  0  0
  -22.4273   -8.0278   21.3545 C   0  0  0  0  0  0
  -21.9906   -9.0250   20.4646 C   0  0  0  0  0  0
  -22.7236  -10.2128   20.3050 C   0  0  0  0  0  0
  -21.6852   -6.0733   22.5280 C   0  0  0  0  0  0
  -21.4013   -6.5637   23.8213 C   0  0  0  0  0  0
  -21.3660   -5.6791   24.9175 C   0  0  0  0  0  0
  -21.6045   -4.3053   24.7225 C   0  0  0  0  0  0
  -21.8819   -3.8144   23.4346 C   0  0  0  0  0  0
  -21.9192   -4.6961   22.3403 C   0  0  0  0  0  0
  -22.7841  -13.5220   21.1842 C   0  0  0  0  0  0
  -22.1662   -4.2147   21.0981 F   0  0  0  0  0  0
  -21.5630   -3.4537   25.7739 F   0  0  0  0  0  0
  -30.0151  -13.4189   20.4251 N   0  0  0  0  0  0
  -26.2995  -12.9359   20.3338 N   0  0  0  0  0  0
  -25.9330  -11.6508   20.5761 N   0  0  0  0  0  0
  -22.0489  -12.8217   22.0407 N   0  0  0  0  0  0
  -25.4214  -15.1896   20.4180 N   0  0  0  0  0  0
  -31.7915  -14.8056   20.1326 O   0  0  0  0  0  0
  -21.6637   -6.8876   21.4242 O   0  0  0  0  0  0
  -22.3520  -14.5528   20.6698 O   0  0  0  0  0  0
  -24.6266  -31.8601   23.2031 C   0  0  0  0  0  0
  -25.9113  -32.4780   23.8358 C   0  0  1  0  0  0
  -27.2236  -27.3176   20.1118 C   0  0  0  0  0  0
  -25.5926  -33.8581   24.2283 N   0  0  0  0  0  0
  -23.4199  -30.4850   21.5463 C   0  0  2  0  0  0
  -24.8656  -28.9422   20.1113 C   0  0  0  0  0  0
  -22.7476  -29.4628   22.4939 C   0  0  0  0  0  0
  -18.0286  -28.1384   22.8487 C   0  0  0  0  0  0
  -24.1489  -36.7296   23.2639 C   0  0  0  0  0  0
  -25.9621  -30.7907   21.3744 C   0  0  0  0  0  0
  -26.0362  -29.4188   20.7147 C   0  0  0  0  0  0
  -27.2183  -28.6189   20.7045 C   0  0  0  0  0  0
  -26.0260  -26.8968   19.4857 C   0  0  0  0  0  0
  -24.8626  -27.6866   19.4884 C   0  0  0  0  0  0
  -23.6342  -29.8222   20.1610 C   0  0  0  0  0  0
  -25.4113  -36.3085   24.0330 C   0  0  1  0  0  0
  -20.5886  -28.3689   23.1283 C   0  0  2  0  0  0
  -20.6775  -26.9414   22.5408 C   0  0  0  0  0  0
  -19.5750  -26.6385   21.5212 C   0  0  0  0  0  0
  -18.1931  -26.7926   22.1626 C   0  0  0  0  0  0
  -19.1538  -28.8853   23.2880 C   0  0  0  0  0  0
  -18.9460  -30.1455   23.8897 C   0  0  0  0  0  0
  -17.6461  -30.6587   24.0563 C   0  0  0  0  0  0
  -25.9051  -34.9454   23.5107 C   0  0  0  0  0  0
  -16.5352  -29.9086   23.6329 C   0  0  0  0  0  0
  -16.7273  -28.6503   23.0352 C   0  0  0  0  0  0
  -26.4494  -31.6587   25.0728 C   0  0  0  0  0  0
  -25.3727  -31.3725   26.1454 C   0  0  0  0  0  0
  -27.0334  -30.3010   24.6182 C   0  0  0  0  0  0
  -27.6054  -32.4320   25.7498 C   0  0  0  0  0  0
  -27.5580  -37.1804   24.8465 C   0  0  0  0  0  0
  -21.4189  -29.3045   22.3680 N   0  0  0  0  0  0
  -26.4293  -37.3779   23.9407 N   0  0  0  0  0  0
  -24.6885  -31.0614   22.0981 N   0  0  0  0  0  0
  -23.4201  -28.8163   23.3014 O   0  0  0  0  0  0
  -28.3403  -26.4633   20.1602 O   0  0  0  0  0  0
  -26.5620  -34.8919   22.4674 O   0  0  0  0  0  0
  -23.5429  -32.1399   23.7358 O   0  0  0  0  0  0
  -31.1180  -17.8849   20.6034 C   0  0  0  0  0  0
  -31.1123  -19.3107   20.5262 C   0  0  0  0  0  0
  -28.7106  -19.3389   20.5192 C   0  0  0  0  0  0
  -29.9083  -17.1463   20.6525 C   0  0  0  0  0  0
  -29.9190  -20.0843   20.4854 C   0  0  0  0  0  0
  -28.7114  -17.9126   20.6067 C   0  0  0  0  0  0
  -29.2528  -23.9564   20.3436 C   0  0  0  0  0  0
  -28.1015  -25.0048   20.0220 C   0  0  0  0  0  0
  -28.8904  -22.3990   20.2827 C   0  0  0  0  0  0
  -29.7931  -15.6941   20.7921 N   0  0  0  0  0  0
  -30.0305  -21.4919   20.4337 O   0  0  0  0  0  0
  -27.5271  -17.2553   20.6481 F   0  0  0  0  0  0
  -31.4812  -12.5238   19.1468 H   0  0  0  0  0  0
  -30.3783  -11.4007   19.8940 H   0  0  0  0  0  0
  -29.7724  -11.7555   17.4787 H   0  0  0  0  0  0
  -29.6485  -13.4764   17.7417 H   0  0  0  0  0  0
  -27.8691  -11.2920   18.8707 H   0  0  0  0  0  0
  -27.3755  -12.5722   17.7955 H   0  0  0  0  0  0
  -27.6666  -14.2522   19.5190 H   0  0  0  0  0  0
  -28.7131  -12.0565   21.3781 H   0  0  0  0  0  0
  -28.4480  -13.7124   21.8419 H   0  0  0  0  0  0
  -25.2760   -9.5683   22.4755 H   0  0  0  0  0  0
  -23.9999   -7.4633   22.7474 H   0  0  0  0  0  0
  -21.0836   -8.8767   19.8954 H   0  0  0  0  0  0
  -22.3693  -10.9665   19.6157 H   0  0  0  0  0  0
  -21.2003   -7.6146   23.9716 H   0  0  0  0  0  0
  -21.1485   -6.0521   25.9079 H   0  0  0  0  0  0
  -22.0598   -2.7606   23.2846 H   0  0  0  0  0  0
  -22.4103  -11.9877   22.4793 H   0  0  0  0  0  0
  -21.1112  -13.1253   22.2622 H   0  0  0  0  0  0
  -24.6550  -15.8367   20.5619 H   0  0  0  0  0  0
  -26.2902  -15.6637   20.1983 H   0  0  0  0  0  0
  -26.7180  -32.5450   23.1107 H   0  0  0  0  0  0
  -25.0065  -33.9725   25.0423 H   0  0  0  0  0  0
  -22.7139  -31.3059   21.4047 H   0  0  0  0  0  0
  -23.3749  -35.9632   23.3306 H   0  0  0  0  0  0
  -24.3580  -36.8912   22.2052 H   0  0  0  0  0  0
  -23.7246  -37.6502   23.6657 H   0  0  0  0  0  0
  -26.0942  -31.5552   20.6075 H   0  0  0  0  0  0
  -26.8423  -30.8379   22.0041 H   0  0  0  0  0  0
  -28.1158  -28.9808   21.1864 H   0  0  0  0  0  0
  -25.9527  -25.9397   18.9927 H   0  0  0  0  0  0
  -23.9657  -27.3159   19.0113 H   0  0  0  0  0  0
  -23.7534  -30.5997   19.4055 H   0  0  0  0  0  0
  -22.7537  -29.2525   19.8581 H   0  0  0  0  0  0
  -25.1293  -36.1940   25.0823 H   0  0  0  0  0  0
  -20.9979  -28.3261   24.1404 H   0  0  0  0  0  0
  -20.5679  -26.2299   23.3607 H   0  0  0  0  0  0
  -21.6643  -26.7445   22.1199 H   0  0  0  0  0  0
  -19.6913  -25.6296   21.1242 H   0  0  0  0  0  0
  -19.6686  -27.3195   20.6741 H   0  0  0  0  0  0
  -17.4200  -26.6671   21.4030 H   0  0  0  0  0  0
  -18.0335  -26.0069   22.9023 H   0  0  0  0  0  0
  -19.7937  -30.7270   24.2269 H   0  0  0  0  0  0
  -17.5016  -31.6267   24.5164 H   0  0  0  0  0  0
  -15.5352  -30.2988   23.7651 H   0  0  0  0  0  0
  -15.8672  -28.0822   22.7068 H   0  0  0  0  0  0
  -24.5898  -30.7080   25.7780 H   0  0  0  0  0  0
  -24.8923  -32.2892   26.4885 H   0  0  0  0  0  0
  -25.8050  -30.8895   27.0226 H   0  0  0  0  0  0
  -26.2907  -29.6762   24.1207 H   0  0  0  0  0  0
  -27.4029  -29.7264   25.4687 H   0  0  0  0  0  0
  -27.8779  -30.4291   23.9407 H   0  0  0  0  0  0
  -27.2666  -33.3618   26.2077 H   0  0  0  0  0  0
  -28.3864  -32.6881   25.0327 H   0  0  0  0  0  0
  -28.0722  -31.8443   26.5414 H   0  0  0  0  0  0
  -28.2599  -38.0100   24.7509 H   0  0  0  0  0  0
  -28.1073  -36.2631   24.6294 H   0  0  0  0  0  0
  -27.2298  -37.1456   25.8868 H   0  0  0  0  0  0
  -20.9367  -29.8773   21.6895 H   0  0  0  0  0  0
  -26.0176  -38.2855   24.1401 H   0  0  0  0  0  0
  -32.0671  -17.3700   20.6429 H   0  0  0  0  0  0
  -32.0626  -19.8258   20.5039 H   0  0  0  0  0  0
  -27.7601  -19.8494   20.4918 H   0  0  0  0  0  0
  -29.6470  -24.1729   21.3364 H   0  0  0  0  0  0
  -30.0761  -24.1424   19.6539 H   0  0  0  0  0  0
  -27.2506  -24.7435   20.6531 H   0  0  0  0  0  0
  -27.7948  -24.8125   18.9934 H   0  0  0  0  0  0
  -28.4094  -22.1808   19.3285 H   0  0  0  0  0  0
  -28.1566  -22.1770   21.0583 H   0  0  0  0  0  0
  -28.8555  -15.3945   21.0126 H   0  0  0  0  0  0
  1 25  1  0  0  0
  1 30  2  0  0  0
  1 80  1  0  0  0
  2  3  1  0  0  0
  2 25  1  0  0  0
  2 83  1  0  0  0
  2 84  1  0  0  0
  3  4  1  0  0  0
  3 85  1  0  0  0
  3 86  1  0  0  0
  4  5  1  0  0  0
  4 87  1  0  0  0
  4 88  1  0  0  0
  5  6  1  0  0  0
  5 26  1  0  0  0
  5 89  1  0  0  0
  6 25  1  0  0  0
  6 90  1  0  0  0
  6 91  1  0  0  0
  7  8  2  0  0  0
  7 26  1  0  0  0
  7 29  1  0  0  0
  8  9  1  0  0  0
  8 22  1  0  0  0
  9 10  1  0  0  0
  9 27  2  0  0  0
 10 11  2  0  0  0
 10 15  1  0  0  0
 11 12  1  0  0  0
 11 92  1  0  0  0
 12 13  2  0  0  0
 12 93  1  0  0  0
 13 14  1  0  0  0
 13 31  1  0  0  0
 14 15  2  0  0  0
 14 94  1  0  0  0
 15 95  1  0  0  0
 16 17  2  0  0  0
 16 21  1  0  0  0
 16 31  1  0  0  0
 17 18  1  0  0  0
 17 96  1  0  0  0
 18 19  2  0  0  0
 18 97  1  0  0  0
 19 20  1  0  0  0
 19 24  1  0  0  0
 20 21  2  0  0  0
 20 98  1  0  0  0
 21 23  1  0  0  0
 22 28  1  0  0  0
 22 32  2  0  0  0
 26 27  1  0  0  0
 28 99  1  0  0  0
 28100  1  0  0  0
 29101  1  0  0  0
 29102  1  0  0  0
 33 34  1  0  0  0
 33 66  1  0  0  0
 33 70  2  0  0  0
 34 36  1  0  0  0
 34 59  1  0  0  0
 34103  1  0  0  0
 35 44  2  0  0  0
 35 45  1  0  0  0
 35 68  1  0  0  0
 36 56  1  0  0  0
 36104  1  0  0  0
 37 39  1  0  0  0
 37 47  1  0  0  0
 37 66  1  0  0  0
 37105  1  0  0  0
 38 43  2  0  0  0
 38 46  1  0  0  0
 38 47  1  0  0  0
 39 64  1  0  0  0
 39 67  2  0  0  0
 40 52  1  0  0  0
 40 53  2  0  0  0
 40 58  1  0  0  0
 41106  1  0  0  0
 41107  1  0  0  0
 41108  1  0  0  0
 41 48  1  0  0  0
 42 43  1  0  0  0
 42 66  1  0  0  0
 42109  1  0  0  0
 42110  1  0  0  0
 43 44  1  0  0  0
 44111  1  0  0  0
 45 46  2  0  0  0
 45112  1  0  0  0
 46113  1  0  0  0
 47114  1  0  0  0
 47115  1  0  0  0
 48 56  1  0  0  0
 48 65  1  0  0  0
 48116  1  0  0  0
 49 50  1  0  0  0
 49 53  1  0  0  0
 49 64  1  0  0  0
 49117  1  0  0  0
 50 51  1  0  0  0
 50118  1  0  0  0
 50119  1  0  0  0
 51 52  1  0  0  0
 51120  1  0  0  0
 51121  1  0  0  0
 52122  1  0  0  0
 52123  1  0  0  0
 53 54  1  0  0  0
 54 55  2  0  0  0
 54124  1  0  0  0
 55 57  1  0  0  0
 55125  1  0  0  0
 56 69  2  0  0  0
 57 58  2  0  0  0
 57126  1  0  0  0
 58127  1  0  0  0
 59 60  1  0  0  0
 59 61  1  0  0  0
 59 62  1  0  0  0
 60128  1  0  0  0
 60129  1  0  0  0
 60130  1  0  0  0
 61131  1  0  0  0
 61132  1  0  0  0
 61133  1  0  0  0
 62134  1  0  0  0
 62135  1  0  0  0
 62136  1  0  0  0
 63 65  1  0  0  0
 63137  1  0  0  0
 63138  1  0  0  0
 63139  1  0  0  0
 64140  1  0  0  0
 65141  1  0  0  0
 68 78  1  0  0  0
 71 72  2  0  0  0
 71 74  1  0  0  0
 71142  1  0  0  0
 72 75  1  0  0  0
 72143  1  0  0  0
 73 75  2  0  0  0
 73 76  1  0  0  0
 73144  1  0  0  0
 74 76  2  0  0  0
 74 80  1  0  0  0
 75 81  1  0  0  0
 76 82  1  0  0  0
 77 78  1  0  0  0
 77 79  1  0  0  0
 77145  1  0  0  0
 77146  1  0  0  0
 78147  1  0  0  0
 78148  1  0  0  0
 79 81  1  0  0  0
 79149  1  0  0  0
 79150  1  0  0  0
 80151  1  0  0  0
M  ISO  4   1 100  68 101  78 101  80 100
M  END
> <chiral flag>
0

> <version>
0

> <s_m_source_file>
/data/baiqing/PycharmProjects/Reinvent-master-3.2/result/LINK_invent/BTK/process_docking_weight1_custom_sum_contain_oxygen_bond_distance_aromatic_linkinvent_7_9_3/rearranged_h_0011.sdf

> <i_m_source_file_index>
30

> <r_mmod_Potential_Energy-OPLS-2005>
8.48562717437744

> <r_mmod_Stretch_Energy-OPLS-2005>
78.0414810180664

> <r_mmod_Bend_Energy-OPLS-2005>
145.352081298828

> <r_mmod_Torsional_Energy-OPLS-2005>
209.226409912109

> <r_mmod_Improper_Torsional_Energy-OPLS-2005>
4.5839262008667

> <r_mmod_Van_der_Waal_Energy-OPLS-2005>
144.377670288086

> <r_mmod_Electrostatic_Energy-OPLS-2005>
-422.268218994141

> <r_mmod_Solvation_Energy-OPLS-2005>
-201.274765014648

> <b_mmod_Minimization_Converged-OPLS-2005>
0

> <r_mmod_RMS_Derivative-OPLS-2005>
0.238112762570381

$$$$
30
                    3D
 Structure written by MMmdl.
151159  0  0  1  0            999 V2000
  -30.5238  -15.0442   20.4088 C   0  0  0  0  0  0
  -30.4389  -12.6541   19.5053 C   0  0  0  0  0  0
  -29.5232  -12.5364   18.2647 C   0  0  0  0  0  0
  -28.0619  -12.3046   18.6897 C   0  0  0  0  0  0
  -27.6234  -13.2567   19.8322 C   0  0  2  0  0  0
  -28.6653  -13.3384   20.9679 C   0  0  0  0  0  0
  -25.2434  -13.8228   20.5726 C   0  0  0  0  0  0
  -24.1765  -13.0439   20.9245 C   0  0  0  0  0  0
  -24.6396  -11.6930   20.8766 C   0  0  0  0  0  0
  -23.9084  -10.4294   21.0412 C   0  0  0  0  0  0
  -24.3631   -9.4206   21.9187 C   0  0  0  0  0  0
  -23.6301   -8.2243   22.0755 C   0  0  0  0  0  0
  -22.4283   -8.0283   21.3545 C   0  0  0  0  0  0
  -21.9924   -9.0258   20.4647 C   0  0  0  0  0  0
  -22.7257  -10.2135   20.3059 C   0  0  0  0  0  0
  -21.6856   -6.0739   22.5279 C   0  0  0  0  0  0
  -21.4014   -6.5642   23.8212 C   0  0  0  0  0  0
  -21.3657   -5.6793   24.9174 C   0  0  0  0  0  0
  -21.6045   -4.3057   24.7224 C   0  0  0  0  0  0
  -21.8818   -3.8150   23.4344 C   0  0  0  0  0  0
  -21.9193   -4.6966   22.3401 C   0  0  0  0  0  0
  -22.7783  -13.5201   21.1891 C   0  0  0  0  0  0
  -22.1662   -4.2151   21.0979 F   0  0  0  0  0  0
  -21.5627   -3.4540   25.7737 F   0  0  0  0  0  0
  -29.9262  -13.7757   20.3544 N   0  0  0  0  0  0
  -26.2863  -12.9476   20.3244 N   0  0  0  0  0  0
  -25.9330  -11.6598   20.5748 N   0  0  0  0  0  0
  -22.0437  -12.8187   22.0447 N   0  0  0  0  0  0
  -25.4075  -15.1958   20.4137 N   0  0  0  0  0  0
  -31.7334  -15.0586   20.1569 O   0  0  0  0  0  0
  -21.6644   -6.8882   21.4241 O   0  0  0  0  0  0
  -22.3465  -14.5505   20.6733 O   0  0  0  0  0  0
  -24.6497  -31.8385   23.1830 C   0  0  0  0  0  0
  -25.9240  -32.4665   23.8244 C   0  0  1  0  0  0
  -27.2134  -27.0694   20.1620 C   0  0  0  0  0  0
  -25.5964  -33.8474   24.2160 N   0  0  0  0  0  0
  -23.4567  -30.4562   21.5300 C   0  0  2  0  0  0
  -24.9066  -28.8719   20.1098 C   0  0  0  0  0  0
  -22.7600  -29.4521   22.4840 C   0  0  0  0  0  0
  -18.0309  -28.1402   22.8484 C   0  0  0  0  0  0
  -24.1486  -36.7238   23.2646 C   0  0  0  0  0  0
  -26.0176  -30.6909   21.3915 C   0  0  0  0  0  0
  -26.0869  -29.2953   20.7344 C   0  0  0  0  0  0
  -27.2400  -28.4114   20.7415 C   0  0  0  0  0  0
  -26.0069  -26.7674   19.4918 C   0  0  0  0  0  0
  -24.8834  -27.6240   19.4712 C   0  0  0  0  0  0
  -23.6865  -29.7827   20.1507 C   0  0  0  0  0  0
  -25.4124  -36.3012   24.0312 C   0  0  1  0  0  0
  -20.5927  -28.3732   23.1225 C   0  0  2  0  0  0
  -20.6790  -26.9428   22.5407 C   0  0  0  0  0  0
  -19.5762  -26.6382   21.5216 C   0  0  0  0  0  0
  -18.1943  -26.7944   22.1625 C   0  0  0  0  0  0
  -19.1568  -28.8888   23.2843 C   0  0  0  0  0  0
  -18.9485  -30.1485   23.8867 C   0  0  0  0  0  0
  -17.6479  -30.6599   24.0562 C   0  0  0  0  0  0
  -25.9081  -34.9393   23.5048 C   0  0  0  0  0  0
  -16.5369  -29.9092   23.6344 C   0  0  0  0  0  0
  -16.7292  -28.6510   23.0367 C   0  0  0  0  0  0
  -26.4538  -31.6560   25.0714 C   0  0  0  0  0  0
  -25.3704  -31.3782   26.1399 C   0  0  0  0  0  0
  -27.0413  -30.2948   24.6343 C   0  0  0  0  0  0
  -27.6053  -32.4343   25.7507 C   0  0  0  0  0  0
  -27.5568  -37.1778   24.8469 C   0  0  0  0  0  0
  -21.4284  -29.3050   22.3593 N   0  0  0  0  0  0
  -26.4279  -37.3733   23.9412 N   0  0  0  0  0  0
  -24.7284  -31.0184   22.0892 N   0  0  0  0  0  0
  -23.4214  -28.8074   23.3015 O   0  0  0  0  0  0
  -28.2354  -26.0307   20.2444 O   0  0  0  0  0  0
  -26.5671  -34.8901   22.4629 O   0  0  0  0  0  0
  -23.5601  -32.1283   23.7014 O   0  0  0  0  0  0
  -30.8281  -20.6219   20.9573 C   0  0  0  0  0  0
  -29.5062  -20.4562   20.4808 C   0  0  0  0  0  0
  -30.0605  -17.7969   20.5985 C   0  0  0  0  0  0
  -31.6895  -19.5443   21.2575 C   0  0  0  0  0  0
  -29.1674  -18.9835   20.3169 C   0  0  0  0  0  0
  -31.3263  -18.1878   21.0992 C   0  0  0  0  0  0
  -28.9160  -23.1875   20.3966 C   0  0  0  0  0  0
  -27.3227  -21.4550   19.6612 C   0  0  0  0  0  0
  -27.8999  -24.4918   20.0329 C   0  0  0  0  0  0
  -29.7503  -16.2634   20.4884 N   0  0  0  0  0  0
  -28.6482  -21.7585   20.2075 N   0  0  0  0  0  0
  -29.9942  -23.5406   20.8815 O   0  0  0  0  0  0
  -32.9241  -19.8296   21.7372 F   0  0  0  0  0  0
  -27.9259  -18.6730   19.8744 F   0  0  0  0  0  0
  -32.2275  -17.2581   21.4924 F   0  0  0  0  0  0
  -31.4682  -12.8210   19.1842 H   0  0  0  0  0  0
  -30.4543  -11.7195   20.0680 H   0  0  0  0  0  0
  -29.8597  -11.7231   17.6202 H   0  0  0  0  0  0
  -29.5925  -13.4489   17.6706 H   0  0  0  0  0  0
  -27.9801  -11.2702   19.0252 H   0  0  0  0  0  0
  -27.3943  -12.4004   17.8328 H   0  0  0  0  0  0
  -27.5692  -14.2458   19.3765 H   0  0  0  0  0  0
  -28.7789  -12.3784   21.4734 H   0  0  0  0  0  0
  -28.3482  -14.0549   21.7275 H   0  0  0  0  0  0
  -25.2772   -9.5681   22.4768 H   0  0  0  0  0  0
  -24.0007   -7.4633   22.7475 H   0  0  0  0  0  0
  -21.0856   -8.8782   19.8951 H   0  0  0  0  0  0
  -22.3716  -10.9677   19.6170 H   0  0  0  0  0  0
  -21.2007   -7.6150   23.9715 H   0  0  0  0  0  0
  -21.1479   -6.0524   25.9076 H   0  0  0  0  0  0
  -22.0598   -2.7612   23.2845 H   0  0  0  0  0  0
  -22.4064  -11.9854   22.4836 H   0  0  0  0  0  0
  -21.1050  -13.1198   22.2650 H   0  0  0  0  0  0
  -24.6334  -15.8420   20.5215 H   0  0  0  0  0  0
  -26.2422  -15.6407   20.0558 H   0  0  0  0  0  0
  -26.7310  -32.5248   23.0972 H   0  0  0  0  0  0
  -25.0093  -33.9580   25.0297 H   0  0  0  0  0  0
  -22.7628  -31.2844   21.3720 H   0  0  0  0  0  0
  -23.3753  -35.9562   23.3292 H   0  0  0  0  0  0
  -24.3574  -36.8888   22.2064 H   0  0  0  0  0  0
  -23.7231  -37.6426   23.6696 H   0  0  0  0  0  0
  -26.1814  -31.4401   20.6157 H   0  0  0  0  0  0
  -26.8855  -30.7443   22.0371 H   0  0  0  0  0  0
  -28.1351  -28.7294   21.2574 H   0  0  0  0  0  0
  -25.8908  -25.8146   18.9979 H   0  0  0  0  0  0
  -23.9835  -27.2955   18.9691 H   0  0  0  0  0  0
  -23.8293  -30.5562   19.3951 H   0  0  0  0  0  0
  -22.7988  -29.2299   19.8374 H   0  0  0  0  0  0
  -25.1313  -36.1828   25.0802 H   0  0  0  0  0  0
  -21.0020  -28.3319   24.1345 H   0  0  0  0  0  0
  -20.5682  -26.2344   23.3634 H   0  0  0  0  0  0
  -21.6655  -26.7426   22.1203 H   0  0  0  0  0  0
  -19.6917  -25.6284   21.1267 H   0  0  0  0  0  0
  -19.6696  -27.3179   20.6735 H   0  0  0  0  0  0
  -17.4214  -26.6697   21.4023 H   0  0  0  0  0  0
  -18.0329  -26.0093   22.9026 H   0  0  0  0  0  0
  -19.7959  -30.7317   24.2210 H   0  0  0  0  0  0
  -17.5033  -31.6275   24.5173 H   0  0  0  0  0  0
  -15.5371  -30.2988   23.7691 H   0  0  0  0  0  0
  -15.8689  -28.0823   22.7099 H   0  0  0  0  0  0
  -24.5894  -30.7112   25.7731 H   0  0  0  0  0  0
  -24.8881  -32.2977   26.4726 H   0  0  0  0  0  0
  -25.7975  -30.9030   27.0239 H   0  0  0  0  0  0
  -26.3048  -29.6662   24.1327 H   0  0  0  0  0  0
  -27.3981  -29.7261   25.4940 H   0  0  0  0  0  0
  -27.8972  -30.4175   23.9704 H   0  0  0  0  0  0
  -27.2637  -33.3682   26.1986 H   0  0  0  0  0  0
  -28.3918  -32.6845   25.0372 H   0  0  0  0  0  0
  -28.0659  -31.8531   26.5507 H   0  0  0  0  0  0
  -28.2583  -38.0076   24.7510 H   0  0  0  0  0  0
  -28.1063  -36.2608   24.6298 H   0  0  0  0  0  0
  -27.2292  -37.1427   25.8873 H   0  0  0  0  0  0
  -20.9502  -29.8762   21.6767 H   0  0  0  0  0  0
  -26.0136  -38.2793   24.1419 H   0  0  0  0  0  0
  -31.2419  -21.6006   21.1259 H   0  0  0  0  0  0
  -27.4212  -20.8366   18.7688 H   0  0  0  0  0  0
  -26.7231  -22.3138   19.3673 H   0  0  0  0  0  0
  -26.7396  -20.8982   20.3952 H   0  0  0  0  0  0
  -26.9758  -24.3016   20.5792 H   0  0  0  0  0  0
  -27.6557  -24.3823   18.9764 H   0  0  0  0  0  0
  -28.7608  -16.0739   20.4768 H   0  0  0  0  0  0
  1 25  1  0  0  0
  1 30  2  0  0  0
  1 80  1  0  0  0
  2  3  1  0  0  0
  2 25  1  0  0  0
  2 86  1  0  0  0
  2 87  1  0  0  0
  3  4  1  0  0  0
  3 88  1  0  0  0
  3 89  1  0  0  0
  4  5  1  0  0  0
  4 90  1  0  0  0
  4 91  1  0  0  0
  5  6  1  0  0  0
  5 26  1  0  0  0
  5 92  1  0  0  0
  6 25  1  0  0  0
  6 93  1  0  0  0
  6 94  1  0  0  0
  7  8  2  0  0  0
  7 26  1  0  0  0
  7 29  1  0  0  0
  8  9  1  0  0  0
  8 22  1  0  0  0
  9 10  1  0  0  0
  9 27  2  0  0  0
 10 11  2  0  0  0
 10 15  1  0  0  0
 11 12  1  0  0  0
 11 95  1  0  0  0
 12 13  2  0  0  0
 12 96  1  0  0  0
 13 14  1  0  0  0
 13 31  1  0  0  0
 14 15  2  0  0  0
 14 97  1  0  0  0
 15 98  1  0  0  0
 16 17  2  0  0  0
 16 21  1  0  0  0
 16 31  1  0  0  0
 17 18  1  0  0  0
 17 99  1  0  0  0
 18 19  2  0  0  0
 18100  1  0  0  0
 19 20  1  0  0  0
 19 24  1  0  0  0
 20 21  2  0  0  0
 20101  1  0  0  0
 21 23  1  0  0  0
 22 28  1  0  0  0
 22 32  2  0  0  0
 26 27  1  0  0  0
 28102  1  0  0  0
 28103  1  0  0  0
 29104  1  0  0  0
 29105  1  0  0  0
 33 34  1  0  0  0
 33 66  1  0  0  0
 33 70  2  0  0  0
 34 36  1  0  0  0
 34 59  1  0  0  0
 34106  1  0  0  0
 35 44  2  0  0  0
 35 45  1  0  0  0
 35 68  1  0  0  0
 36 56  1  0  0  0
 36107  1  0  0  0
 37 39  1  0  0  0
 37 47  1  0  0  0
 37 66  1  0  0  0
 37108  1  0  0  0
 38 43  2  0  0  0
 38 46  1  0  0  0
 38 47  1  0  0  0
 39 64  1  0  0  0
 39 67  2  0  0  0
 40 52  1  0  0  0
 40 53  2  0  0  0
 40 58  1  0  0  0
 41109  1  0  0  0
 41110  1  0  0  0
 41111  1  0  0  0
 41 48  1  0  0  0
 42 43  1  0  0  0
 42 66  1  0  0  0
 42112  1  0  0  0
 42113  1  0  0  0
 43 44  1  0  0  0
 44114  1  0  0  0
 45 46  2  0  0  0
 45115  1  0  0  0
 46116  1  0  0  0
 47117  1  0  0  0
 47118  1  0  0  0
 48 56  1  0  0  0
 48 65  1  0  0  0
 48119  1  0  0  0
 49 50  1  0  0  0
 49 53  1  0  0  0
 49 64  1  0  0  0
 49120  1  0  0  0
 50 51  1  0  0  0
 50121  1  0  0  0
 50122  1  0  0  0
 51 52  1  0  0  0
 51123  1  0  0  0
 51124  1  0  0  0
 52125  1  0  0  0
 52126  1  0  0  0
 53 54  1  0  0  0
 54 55  2  0  0  0
 54127  1  0  0  0
 55 57  1  0  0  0
 55128  1  0  0  0
 56 69  2  0  0  0
 57 58  2  0  0  0
 57129  1  0  0  0
 58130  1  0  0  0
 59 60  1  0  0  0
 59 61  1  0  0  0
 59 62  1  0  0  0
 60131  1  0  0  0
 60132  1  0  0  0
 60133  1  0  0  0
 61134  1  0  0  0
 61135  1  0  0  0
 61136  1  0  0  0
 62137  1  0  0  0
 62138  1  0  0  0
 62139  1  0  0  0
 63 65  1  0  0  0
 63140  1  0  0  0
 63141  1  0  0  0
 63142  1  0  0  0
 64143  1  0  0  0
 65144  1  0  0  0
 68 79  1  0  0  0
 71 72  2  0  0  0
 71 74  1  0  0  0
 71145  1  0  0  0
 72 75  1  0  0  0
 72 81  1  0  0  0
 73 75  2  0  0  0
 73 76  1  0  0  0
 73 80  1  0  0  0
 74 76  2  0  0  0
 74 83  1  0  0  0
 75 84  1  0  0  0
 76 85  1  0  0  0
 77 79  1  0  0  0
 77 81  1  0  0  0
 77 82  2  0  0  0
 78 81  1  0  0  0
 78146  1  0  0  0
 78147  1  0  0  0
 78148  1  0  0  0
 79149  1  0  0  0
 79150  1  0  0  0
 80151  1  0  0  0
M  ISO  4   1 100  68 101  79 101  80 100
M  END
> <chiral flag>
0

> <version>
0

> <s_m_source_file>
/data/baiqing/PycharmProjects/Reinvent-master-3.2/result/LINK_invent/BTK/process_docking_weight1_custom_sum_contain_oxygen_bond_distance_aromatic_linkinvent_7_9_3/rearranged_h_0011.sdf

> <i_m_source_file_index>
31

> <r_mmod_Potential_Energy-OPLS-2005>
696.08447265625

> <r_mmod_Stretch_Energy-OPLS-2005>
361.058959960938

> <r_mmod_Bend_Energy-OPLS-2005>
275.677673339844

> <r_mmod_Torsional_Energy-OPLS-2005>
239.944152832031

> <r_mmod_Improper_Torsional_Energy-OPLS-2005>
5.94076442718506

> <r_mmod_Van_der_Waal_Energy-OPLS-2005>
146.292266845703

> <r_mmod_Electrostatic_Energy-OPLS-2005>
-368.987396240234

> <r_mmod_Solvation_Energy-OPLS-2005>
-227.0546875

> <b_mmod_Minimization_Converged-OPLS-2005>
0

> <r_mmod_RMS_Derivative-OPLS-2005>
0.704809010028839

$$$$
31
                    3D
 Structure written by MMmdl.
165172  0  0  1  0            999 V2000
  -30.7322  -14.4937   20.5444 C   0  0  0  0  0  0
  -30.4055  -12.3110   19.4499 C   0  0  0  0  0  0
  -29.4957  -12.4942   18.2195 C   0  0  0  0  0  0
  -28.0176  -12.3537   18.6291 C   0  0  0  0  0  0
  -27.6557  -13.2149   19.8702 C   0  0  2  0  0  0
  -28.6963  -13.0500   21.0015 C   0  0  0  0  0  0
  -25.2560  -13.8163   20.5694 C   0  0  0  0  0  0
  -24.1813  -13.0443   20.9227 C   0  0  0  0  0  0
  -24.6374  -11.6909   20.8758 C   0  0  0  0  0  0
  -23.9016  -10.4298   21.0408 C   0  0  0  0  0  0
  -24.3572   -9.4212   21.9184 C   0  0  0  0  0  0
  -23.6282   -8.2222   22.0714 C   0  0  0  0  0  0
  -22.4260   -8.0266   21.3502 C   0  0  0  0  0  0
  -21.9894   -9.0240   20.4604 C   0  0  0  0  0  0
  -22.7187  -10.2151   20.3036 C   0  0  0  0  0  0
  -21.6840   -6.0751   22.5290 C   0  0  0  0  0  0
  -21.4004   -6.5648   23.8242 C   0  0  0  0  0  0
  -21.3666   -5.6787   24.9204 C   0  0  0  0  0  0
  -21.6060   -4.3053   24.7236 C   0  0  0  0  0  0
  -21.8810   -3.8149   23.4342 C   0  0  0  0  0  0
  -21.9186   -4.6985   22.3414 C   0  0  0  0  0  0
  -22.7844  -13.5246   21.1926 C   0  0  0  0  0  0
  -22.1646   -4.2173   21.0980 F   0  0  0  0  0  0
  -21.5647   -3.4529   25.7740 F   0  0  0  0  0  0
  -30.0227  -13.3332   20.4397 N   0  0  0  0  0  0
  -26.2988  -12.9347   20.3348 N   0  0  0  0  0  0
  -25.9301  -11.6508   20.5778 N   0  0  0  0  0  0
  -22.0451  -12.8238   22.0465 N   0  0  0  0  0  0
  -25.4328  -15.1874   20.4097 N   0  0  0  0  0  0
  -31.8819  -14.5920   20.1125 O   0  0  0  0  0  0
  -21.6595   -6.8892   21.4240 O   0  0  0  0  0  0
  -22.3552  -14.5592   20.6818 O   0  0  0  0  0  0
  -24.6206  -31.8653   23.2074 C   0  0  0  0  0  0
  -25.9081  -32.4801   23.8380 C   0  0  1  0  0  0
  -27.2079  -27.3579   20.1190 C   0  0  0  0  0  0
  -25.5946  -33.8595   24.2306 N   0  0  0  0  0  0
  -23.4100  -30.4901   21.5523 C   0  0  2  0  0  0
  -24.8530  -28.9603   20.1110 C   0  0  0  0  0  0
  -22.7445  -29.4641   22.4976 C   0  0  0  0  0  0
  -18.0277  -28.1365   22.8496 C   0  0  0  0  0  0
  -24.1492  -36.7296   23.2633 C   0  0  0  0  0  0
  -25.9476  -30.8091   21.3738 C   0  0  0  0  0  0
  -26.0201  -29.4411   20.7164 C   0  0  0  0  0  0
  -27.2015  -28.6491   20.7182 C   0  0  0  0  0  0
  -26.0201  -26.9327   19.4724 C   0  0  0  0  0  0
  -24.8528  -27.7105   19.4800 C   0  0  0  0  0  0
  -23.6176  -29.8290   20.1657 C   0  0  0  0  0  0
  -25.4118  -36.3091   24.0334 C   0  0  1  0  0  0
  -20.5877  -28.3652   23.1315 C   0  0  2  0  0  0
  -20.6765  -26.9387   22.5407 C   0  0  0  0  0  0
  -19.5738  -26.6374   21.5213 C   0  0  0  0  0  0
  -18.1922  -26.7915   22.1628 C   0  0  0  0  0  0
  -19.1529  -28.8834   23.2900 C   0  0  0  0  0  0
  -18.9453  -30.1445   23.8894 C   0  0  0  0  0  0
  -17.6454  -30.6580   24.0553 C   0  0  0  0  0  0
  -25.9051  -34.9460   23.5115 C   0  0  0  0  0  0
  -16.5346  -29.9067   23.6334 C   0  0  0  0  0  0
  -16.7270  -28.6481   23.0371 C   0  0  0  0  0  0
  -26.4490  -31.6585   25.0711 C   0  0  0  0  0  0
  -25.3740  -31.3731   26.1453 C   0  0  0  0  0  0
  -27.0303  -30.3007   24.6117 C   0  0  0  0  0  0
  -27.6057  -32.4308   25.7491 C   0  0  0  0  0  0
  -27.5591  -37.1800   24.8467 C   0  0  0  0  0  0
  -21.4168  -29.3024   22.3738 N   0  0  0  0  0  0
  -26.4293  -37.3785   23.9420 N   0  0  0  0  0  0
  -24.6782  -31.0706   22.1005 N   0  0  0  0  0  0
  -23.4192  -28.8177   23.3039 O   0  0  0  0  0  0
  -28.3167  -26.5123   20.2030 O   0  0  0  0  0  0
  -26.5595  -34.8918   22.4660 O   0  0  0  0  0  0
  -23.5391  -32.1439   23.7432 O   0  0  0  0  0  0
  -29.8224  -18.2346   20.9021 C   0  0  0  0  0  0
  -28.6018  -20.5805   18.1652 C   0  0  0  0  0  0
  -29.4884  -24.1694   22.0478 C   0  0  0  0  0  0
  -30.7647  -21.5461   20.0470 C   0  0  0  0  0  0
  -28.6890  -17.7782   18.8238 C   0  0  0  0  0  0
  -30.6903  -16.9519   20.7331 C   0  0  0  0  0  0
  -28.0080  -25.0807   20.1391 C   0  0  0  0  0  0
  -28.6154  -20.1598   19.6689 C   0  0  2  0  0  0
  -29.0520  -23.9883   20.5768 C   0  0  2  0  0  0
  -29.2918  -21.3483   20.4757 C   0  0  2  0  0  0
  -30.0848  -15.6091   20.9485 N   0  0  0  0  0  0
  -29.1680  -18.7560   19.8219 N   0  0  0  0  0  0
  -28.4745  -22.6102   20.3345 N   0  3  0  0  0  0
  -29.8312  -18.7928   21.9980 O   0  0  0  0  0  0
  -31.4542  -12.3749   19.1595 H   0  0  0  0  0  0
  -30.2812  -11.3134   19.8718 H   0  0  0  0  0  0
  -29.7452  -11.7575   17.4557 H   0  0  0  0  0  0
  -29.6699  -13.4755   17.7749 H   0  0  0  0  0  0
  -27.8429  -11.3008   18.8516 H   0  0  0  0  0  0
  -27.3621  -12.6008   17.7925 H   0  0  0  0  0  0
  -27.6896  -14.2541   19.5457 H   0  0  0  0  0  0
  -28.6697  -12.0327   21.3974 H   0  0  0  0  0  0
  -28.4625  -13.7024   21.8438 H   0  0  0  0  0  0
  -25.2712   -9.5742   22.4759 H   0  0  0  0  0  0
  -24.0044   -7.4607   22.7402 H   0  0  0  0  0  0
  -21.0835   -8.8729   19.8884 H   0  0  0  0  0  0
  -22.3621  -10.9690   19.6145 H   0  0  0  0  0  0
  -21.1951   -7.6151   23.9779 H   0  0  0  0  0  0
  -21.1509   -6.0497   25.9137 H   0  0  0  0  0  0
  -22.0576   -2.7613   23.2823 H   0  0  0  0  0  0
  -22.3998  -11.9865   22.4859 H   0  0  0  0  0  0
  -21.1063  -13.1279   22.2612 H   0  0  0  0  0  0
  -24.6720  -15.8466   20.5197 H   0  0  0  0  0  0
  -26.2848  -15.6199   20.0760 H   0  0  0  0  0  0
  -26.7131  -32.5479   23.1123 H   0  0  0  0  0  0
  -25.0148  -33.9755   25.0496 H   0  0  0  0  0  0
  -22.7006  -31.3083   21.4147 H   0  0  0  0  0  0
  -23.3757  -35.9624   23.3295 H   0  0  0  0  0  0
  -24.3598  -36.8902   22.2046 H   0  0  0  0  0  0
  -23.7228  -37.6497   23.6643 H   0  0  0  0  0  0
  -26.0711  -31.5728   20.6057 H   0  0  0  0  0  0
  -26.8323  -30.8575   21.9967 H   0  0  0  0  0  0
  -28.0910  -29.0057   21.2188 H   0  0  0  0  0  0
  -25.9447  -25.9851   18.9609 H   0  0  0  0  0  0
  -23.9589  -27.3385   18.9988 H   0  0  0  0  0  0
  -23.7214  -30.6023   19.4045 H   0  0  0  0  0  0
  -22.7418  -29.2462   19.8725 H   0  0  0  0  0  0
  -25.1287  -36.1962   25.0825 H   0  0  0  0  0  0
  -20.9954  -28.3203   24.1447 H   0  0  0  0  0  0
  -20.5687  -26.2253   23.3592 H   0  0  0  0  0  0
  -21.6633  -26.7450   22.1196 H   0  0  0  0  0  0
  -19.6904  -25.6292   21.1235 H   0  0  0  0  0  0
  -19.6682  -27.3183   20.6745 H   0  0  0  0  0  0
  -17.4201  -26.6678   21.4022 H   0  0  0  0  0  0
  -18.0323  -26.0050   22.9014 H   0  0  0  0  0  0
  -19.7932  -30.7266   24.2248 H   0  0  0  0  0  0
  -17.5015  -31.6265   24.5135 H   0  0  0  0  0  0
  -15.5347  -30.2971   23.7668 H   0  0  0  0  0  0
  -15.8669  -28.0797   22.7100 H   0  0  0  0  0  0
  -24.5931  -30.7038   25.7823 H   0  0  0  0  0  0
  -24.8900  -32.2886   26.4849 H   0  0  0  0  0  0
  -25.8082  -30.8963   27.0245 H   0  0  0  0  0  0
  -26.2837  -29.6785   24.1147 H   0  0  0  0  0  0
  -27.4025  -29.7230   25.4594 H   0  0  0  0  0  0
  -27.8718  -30.4304   23.9301 H   0  0  0  0  0  0
  -27.2671  -33.3625   26.2044 H   0  0  0  0  0  0
  -28.3890  -32.6830   25.0327 H   0  0  0  0  0  0
  -28.0688  -31.8428   26.5427 H   0  0  0  0  0  0
  -28.2592  -38.0106   24.7532 H   0  0  0  0  0  0
  -28.1090  -36.2641   24.6270 H   0  0  0  0  0  0
  -27.2313  -37.1428   25.8864 H   0  0  0  0  0  0
  -20.9335  -29.8761   21.6975 H   0  0  0  0  0  0
  -26.0184  -38.2862   24.1416 H   0  0  0  0  0  0
  -28.2697  -21.6066   18.0074 H   0  0  0  0  0  0
  -27.9254  -19.9888   17.5505 H   0  0  0  0  0  0
  -29.5953  -20.5024   17.7213 H   0  0  0  0  0  0
  -29.9598  -25.1418   22.1930 H   0  0  0  0  0  0
  -30.2135  -23.4146   22.3515 H   0  0  0  0  0  0
  -28.6470  -24.1086   22.7383 H   0  0  0  0  0  0
  -31.2928  -20.5945   19.9843 H   0  0  0  0  0  0
  -31.3123  -22.1635   20.7559 H   0  0  0  0  0  0
  -30.8437  -22.0163   19.0685 H   0  0  0  0  0  0
  -28.4507  -16.8130   19.2717 H   0  0  0  0  0  0
  -29.4283  -17.6093   18.0407 H   0  0  0  0  0  0
  -27.7506  -18.0673   18.3565 H   0  0  0  0  0  0
  -31.5285  -17.0429   21.4248 H   0  0  0  0  0  0
  -31.1483  -16.9976   19.7422 H   0  0  0  0  0  0
  -27.1051  -24.8978   20.7276 H   0  0  0  0  0  0
  -27.7573  -24.8596   19.1012 H   0  0  0  0  0  0
  -27.5799  -20.0928   20.0053 H   0  0  0  0  0  0
  -29.9254  -24.1095   19.9345 H   0  0  0  0  0  0
  -29.2777  -21.1225   21.5411 H   0  0  0  0  0  0
  -29.1374  -15.5484   21.2859 H   0  0  0  0  0  0
  -28.1438  -22.5956   19.3810 H   0  0  0  0  0  0
  -27.6525  -22.4939   20.9108 H   0  0  0  0  0  0
  1 25  1  0  0  0
  1 30  2  0  0  0
  1 81  1  0  0  0
  2  3  1  0  0  0
  2 25  1  0  0  0
  2 85  1  0  0  0
  2 86  1  0  0  0
  3  4  1  0  0  0
  3 87  1  0  0  0
  3 88  1  0  0  0
  4  5  1  0  0  0
  4 89  1  0  0  0
  4 90  1  0  0  0
  5  6  1  0  0  0
  5 26  1  0  0  0
  5 91  1  0  0  0
  6 25  1  0  0  0
  6 92  1  0  0  0
  6 93  1  0  0  0
  7  8  2  0  0  0
  7 26  1  0  0  0
  7 29  1  0  0  0
  8  9  1  0  0  0
  8 22  1  0  0  0
  9 10  1  0  0  0
  9 27  2  0  0  0
 10 11  2  0  0  0
 10 15  1  0  0  0
 11 12  1  0  0  0
 11 94  1  0  0  0
 12 13  2  0  0  0
 12 95  1  0  0  0
 13 14  1  0  0  0
 13 31  1  0  0  0
 14 15  2  0  0  0
 14 96  1  0  0  0
 15 97  1  0  0  0
 16 17  2  0  0  0
 16 21  1  0  0  0
 16 31  1  0  0  0
 17 18  1  0  0  0
 17 98  1  0  0  0
 18 19  2  0  0  0
 18 99  1  0  0  0
 19 20  1  0  0  0
 19 24  1  0  0  0
 20 21  2  0  0  0
 20100  1  0  0  0
 21 23  1  0  0  0
 22 28  1  0  0  0
 22 32  2  0  0  0
 26 27  1  0  0  0
 28101  1  0  0  0
 28102  1  0  0  0
 29103  1  0  0  0
 29104  1  0  0  0
 33 34  1  0  0  0
 33 66  1  0  0  0
 33 70  2  0  0  0
 34 36  1  0  0  0
 34 59  1  0  0  0
 34105  1  0  0  0
 35 44  2  0  0  0
 35 45  1  0  0  0
 35 68  1  0  0  0
 36 56  1  0  0  0
 36106  1  0  0  0
 37 39  1  0  0  0
 37 47  1  0  0  0
 37 66  1  0  0  0
 37107  1  0  0  0
 38 43  2  0  0  0
 38 46  1  0  0  0
 38 47  1  0  0  0
 39 64  1  0  0  0
 39 67  2  0  0  0
 40 52  1  0  0  0
 40 53  2  0  0  0
 40 58  1  0  0  0
 41108  1  0  0  0
 41109  1  0  0  0
 41110  1  0  0  0
 41 48  1  0  0  0
 42 43  1  0  0  0
 42 66  1  0  0  0
 42111  1  0  0  0
 42112  1  0  0  0
 43 44  1  0  0  0
 44113  1  0  0  0
 45 46  2  0  0  0
 45114  1  0  0  0
 46115  1  0  0  0
 47116  1  0  0  0
 47117  1  0  0  0
 48 56  1  0  0  0
 48 65  1  0  0  0
 48118  1  0  0  0
 49 50  1  0  0  0
 49 53  1  0  0  0
 49 64  1  0  0  0
 49119  1  0  0  0
 50 51  1  0  0  0
 50120  1  0  0  0
 50121  1  0  0  0
 51 52  1  0  0  0
 51122  1  0  0  0
 51123  1  0  0  0
 52124  1  0  0  0
 52125  1  0  0  0
 53 54  1  0  0  0
 54 55  2  0  0  0
 54126  1  0  0  0
 55 57  1  0  0  0
 55127  1  0  0  0
 56 69  2  0  0  0
 57 58  2  0  0  0
 57128  1  0  0  0
 58129  1  0  0  0
 59 60  1  0  0  0
 59 61  1  0  0  0
 59 62  1  0  0  0
 60130  1  0  0  0
 60131  1  0  0  0
 60132  1  0  0  0
 61133  1  0  0  0
 61134  1  0  0  0
 61135  1  0  0  0
 62136  1  0  0  0
 62137  1  0  0  0
 62138  1  0  0  0
 63 65  1  0  0  0
 63139  1  0  0  0
 63140  1  0  0  0
 63141  1  0  0  0
 64142  1  0  0  0
 65143  1  0  0  0
 68 77  1  0  0  0
 71 76  1  0  0  0
 71 82  1  0  0  0
 71 84  2  0  0  0
 72144  1  0  0  0
 72145  1  0  0  0
 72146  1  0  0  0
 72 78  1  0  0  0
 73147  1  0  0  0
 73148  1  0  0  0
 73149  1  0  0  0
 73 79  1  0  0  0
 74150  1  0  0  0
 74151  1  0  0  0
 74152  1  0  0  0
 74 80  1  0  0  0
 75 82  1  0  0  0
 75153  1  0  0  0
 75154  1  0  0  0
 75155  1  0  0  0
 76 81  1  0  0  0
 76156  1  0  0  0
 76157  1  0  0  0
 77 79  1  0  0  0
 77158  1  0  0  0
 77159  1  0  0  0
 78 80  1  0  0  0
 78 82  1  0  0  0
 78160  1  0  0  0
 79 83  1  0  0  0
 79161  1  0  0  0
 80 83  1  0  0  0
 80162  1  0  0  0
 81163  1  0  0  0
 83164  1  0  0  0
 83165  1  0  0  0
M  CHG  1  83   1
M  ISO  4   1 100  68 101  77 101  81 100
M  END
> <chiral flag>
0

> <version>
0

> <s_m_source_file>
/data/baiqing/PycharmProjects/Reinvent-master-3.2/result/LINK_invent/BTK/process_docking_weight1_custom_sum_contain_oxygen_bond_distance_aromatic_linkinvent_7_9_3/rearranged_h_0011.sdf

> <i_m_source_file_index>
32

> <r_mmod_Potential_Energy-OPLS-2005>
-113.232200622559

> <r_mmod_Stretch_Energy-OPLS-2005>
64.5100326538086

> <r_mmod_Bend_Energy-OPLS-2005>
142.298431396484

> <r_mmod_Torsional_Energy-OPLS-2005>
280.301818847656

> <r_mmod_Improper_Torsional_Energy-OPLS-2005>
5.75730037689209

> <r_mmod_Van_der_Waal_Energy-OPLS-2005>
156.915603637695

> <r_mmod_Electrostatic_Energy-OPLS-2005>
-336.328430175781

> <r_mmod_Solvation_Energy-OPLS-2005>
-457.030975341797

> <b_mmod_Minimization_Converged-OPLS-2005>
0

> <r_mmod_RMS_Derivative-OPLS-2005>
3.5257670879364

$$$$
32
                    3D
 Structure written by MMmdl.
148156  0  0  1  0            999 V2000
  -30.5204  -14.9199   20.4222 C   0  0  0  0  0  0
  -30.4515  -12.5657   19.4868 C   0  0  0  0  0  0
  -29.5236  -12.5307   18.2487 C   0  0  0  0  0  0
  -28.0538  -12.3214   18.6644 C   0  0  0  0  0  0
  -27.6358  -13.2383   19.8430 C   0  0  2  0  0  0
  -28.6827  -13.2292   20.9784 C   0  0  0  0  0  0
  -25.2489  -13.8181   20.5712 C   0  0  0  0  0  0
  -24.1800  -13.0421   20.9241 C   0  0  0  0  0  0
  -24.6404  -11.6904   20.8754 C   0  0  0  0  0  0
  -23.9080  -10.4284   21.0408 C   0  0  0  0  0  0
  -24.3626   -9.4198   21.9185 C   0  0  0  0  0  0
  -23.6297   -8.2235   22.0755 C   0  0  0  0  0  0
  -22.4278   -8.0277   21.3545 C   0  0  0  0  0  0
  -21.9916   -9.0254   20.4649 C   0  0  0  0  0  0
  -22.7250  -10.2130   20.3057 C   0  0  0  0  0  0
  -21.6851   -6.0737   22.5278 C   0  0  0  0  0  0
  -21.4014   -6.5641   23.8214 C   0  0  0  0  0  0
  -21.3660   -5.6791   24.9176 C   0  0  0  0  0  0
  -21.6043   -4.3055   24.7223 C   0  0  0  0  0  0
  -21.8820   -3.8148   23.4346 C   0  0  0  0  0  0
  -21.9193   -4.6965   22.3403 C   0  0  0  0  0  0
  -22.7820  -13.5206   21.1890 C   0  0  0  0  0  0
  -22.1662   -4.2150   21.0980 F   0  0  0  0  0  0
  -21.5629   -3.4539   25.7736 F   0  0  0  0  0  0
  -29.9649  -13.6441   20.3892 N   0  0  0  0  0  0
  -26.2915  -12.9403   20.3242 N   0  0  0  0  0  0
  -25.9332  -11.6539   20.5729 N   0  0  0  0  0  0
  -22.0461  -12.8197   22.0442 N   0  0  0  0  0  0
  -25.4114  -15.1902   20.4139 N   0  0  0  0  0  0
  -31.7178  -15.0422   20.1410 O   0  0  0  0  0  0
  -21.6639   -6.8879   21.4241 O   0  0  0  0  0  0
  -22.3500  -14.5507   20.6728 O   0  0  0  0  0  0
  -24.6431  -31.8451   23.1896 C   0  0  0  0  0  0
  -25.9206  -32.4699   23.8283 C   0  0  1  0  0  0
  -27.2188  -27.1416   20.1447 C   0  0  0  0  0  0
  -25.5957  -33.8507   24.2196 N   0  0  0  0  0  0
  -23.4468  -30.4657   21.5351 C   0  0  2  0  0  0
  -24.8974  -28.8966   20.1088 C   0  0  0  0  0  0
  -22.7569  -29.4555   22.4859 C   0  0  0  0  0  0
  -18.0306  -28.1397   22.8478 C   0  0  0  0  0  0
  -24.1494  -36.7255   23.2641 C   0  0  0  0  0  0
  -26.0038  -30.7192   21.3905 C   0  0  0  0  0  0
  -26.0752  -29.3319   20.7295 C   0  0  0  0  0  0
  -27.2360  -28.4701   20.7331 C   0  0  0  0  0  0
  -26.0152  -26.8138   19.4783 C   0  0  0  0  0  0
  -24.8803  -27.6505   19.4680 C   0  0  0  0  0  0
  -23.6736  -29.7977   20.1535 C   0  0  0  0  0  0
  -25.4126  -36.3031   24.0313 C   0  0  1  0  0  0
  -20.5922  -28.3723   23.1234 C   0  0  2  0  0  0
  -20.6790  -26.9425   22.5403 C   0  0  0  0  0  0
  -19.5764  -26.6380   21.5214 C   0  0  0  0  0  0
  -18.1946  -26.7932   22.1625 C   0  0  0  0  0  0
  -19.1563  -28.8878   23.2849 C   0  0  0  0  0  0
  -18.9477  -30.1475   23.8873 C   0  0  0  0  0  0
  -17.6473  -30.6592   24.0557 C   0  0  0  0  0  0
  -25.9079  -34.9407   23.5063 C   0  0  0  0  0  0
  -16.5366  -29.9084   23.6335 C   0  0  0  0  0  0
  -16.7290  -28.6504   23.0356 C   0  0  0  0  0  0
  -26.4524  -31.6567   25.0725 C   0  0  0  0  0  0
  -25.3704  -31.3766   26.1417 C   0  0  0  0  0  0
  -27.0384  -30.2955   24.6321 C   0  0  0  0  0  0
  -27.6058  -32.4330   25.7508 C   0  0  0  0  0  0
  -27.5578  -37.1785   24.8463 C   0  0  0  0  0  0
  -21.4261  -29.3050   22.3607 N   0  0  0  0  0  0
  -26.4288  -37.3744   23.9408 N   0  0  0  0  0  0
  -24.7176  -31.0309   22.0932 N   0  0  0  0  0  0
  -23.4213  -28.8097   23.3004 O   0  0  0  0  0  0
  -28.2607  -26.1444   20.2251 O   0  0  0  0  0  0
  -26.5661  -34.8902   22.4641 O   0  0  0  0  0  0
  -23.5549  -32.1327   23.7117 O   0  0  0  0  0  0
  -30.3742  -18.5716   21.0472 C   0  0  0  0  0  0
  -28.3104  -19.5434   19.4964 C   0  0  0  0  0  0
  -29.6173  -17.5396   20.3780 C   0  0  0  0  0  0
  -29.0270  -20.5814   20.1784 C   0  0  0  0  0  0
  -30.1020  -20.0113   20.9566 C   0  0  0  0  0  0
  -28.5751  -18.1237   19.5870 C   0  0  0  0  0  0
  -28.8990  -23.3619   20.3678 C   0  0  0  0  0  0
  -27.9302  -24.6454   19.9634 C   0  0  0  0  0  0
  -28.5429  -22.0341   20.0205 N   0  0  0  0  0  0
  -29.6499  -16.0201   20.5959 N   0  0  0  0  0  0
  -29.9434  -23.5919   20.9810 O   0  0  0  0  0  0
  -30.8881  -20.8451   21.6767 F   0  0  0  0  0  0
  -27.5405  -17.0677   18.6940 Cl  0  0  0  0  0  0
  -31.4837  -12.7359   19.1751 H   0  0  0  0  0  0
  -30.4487  -11.6032   20.0010 H   0  0  0  0  0  0
  -29.8358  -11.7410   17.5638 H   0  0  0  0  0  0
  -29.6165  -13.4680   17.6977 H   0  0  0  0  0  0
  -27.9394  -11.2759   18.9532 H   0  0  0  0  0  0
  -27.3927  -12.4748   17.8108 H   0  0  0  0  0  0
  -27.6078  -14.2465   19.4316 H   0  0  0  0  0  0
  -28.7619  -12.2388   21.4292 H   0  0  0  0  0  0
  -28.3870  -13.9065   21.7810 H   0  0  0  0  0  0
  -25.2772   -9.5671   22.4762 H   0  0  0  0  0  0
  -24.0003   -7.4626   22.7474 H   0  0  0  0  0  0
  -21.0845   -8.8777   19.8956 H   0  0  0  0  0  0
  -22.3711  -10.9672   19.6169 H   0  0  0  0  0  0
  -21.2004   -7.6149   23.9716 H   0  0  0  0  0  0
  -21.1483   -6.0523   25.9077 H   0  0  0  0  0  0
  -22.0598   -2.7610   23.2844 H   0  0  0  0  0  0
  -22.4081  -11.9869   22.4846 H   0  0  0  0  0  0
  -21.1075  -13.1219   22.2640 H   0  0  0  0  0  0
  -24.6243  -15.8231   20.5020 H   0  0  0  0  0  0
  -26.2129  -15.6260   19.9748 H   0  0  0  0  0  0
  -26.7274  -32.5306   23.1016 H   0  0  0  0  0  0
  -25.0077  -33.9628   25.0323 H   0  0  0  0  0  0
  -22.7488  -31.2912   21.3819 H   0  0  0  0  0  0
  -23.3761  -35.9584   23.3290 H   0  0  0  0  0  0
  -24.3577  -36.8901   22.2059 H   0  0  0  0  0  0
  -23.7248  -37.6446   23.6686 H   0  0  0  0  0  0
  -26.1626  -31.4762   20.6213 H   0  0  0  0  0  0
  -26.8728  -30.7664   22.0353 H   0  0  0  0  0  0
  -28.1301  -28.7959   21.2461 H   0  0  0  0  0  0
  -25.9071  -25.8657   18.9743 H   0  0  0  0  0  0
  -23.9823  -27.3132   18.9686 H   0  0  0  0  0  0
  -23.8092  -30.5740   19.3993 H   0  0  0  0  0  0
  -22.7886  -29.2398   19.8415 H   0  0  0  0  0  0
  -25.1319  -36.1857   25.0804 H   0  0  0  0  0  0
  -21.0013  -28.3311   24.1358 H   0  0  0  0  0  0
  -20.5687  -26.2336   23.3625 H   0  0  0  0  0  0
  -21.6655  -26.7433   22.1201 H   0  0  0  0  0  0
  -19.6925  -25.6285   21.1262 H   0  0  0  0  0  0
  -19.6700  -27.3175   20.6734 H   0  0  0  0  0  0
  -17.4215  -26.6675   21.4031 H   0  0  0  0  0  0
  -18.0348  -26.0084   22.9030 H   0  0  0  0  0  0
  -19.7953  -30.7299   24.2228 H   0  0  0  0  0  0
  -17.5025  -31.6270   24.5164 H   0  0  0  0  0  0
  -15.5363  -30.2977   23.7674 H   0  0  0  0  0  0
  -15.8690  -28.0812   22.7084 H   0  0  0  0  0  0
  -24.5887  -30.7113   25.7735 H   0  0  0  0  0  0
  -24.8892  -32.2953   26.4780 H   0  0  0  0  0  0
  -25.7980  -30.8975   27.0235 H   0  0  0  0  0  0
  -26.3006  -29.6679   24.1309 H   0  0  0  0  0  0
  -27.3962  -29.7257   25.4909 H   0  0  0  0  0  0
  -27.8933  -30.4175   23.9664 H   0  0  0  0  0  0
  -27.2650  -33.3641   26.2047 H   0  0  0  0  0  0
  -28.3887  -32.6875   25.0351 H   0  0  0  0  0  0
  -28.0707  -31.8482   26.5456 H   0  0  0  0  0  0
  -28.2587  -38.0087   24.7508 H   0  0  0  0  0  0
  -28.1081  -36.2619   24.6293 H   0  0  0  0  0  0
  -27.2295  -37.1432   25.8864 H   0  0  0  0  0  0
  -20.9470  -29.8755   21.6782 H   0  0  0  0  0  0
  -26.0154  -38.2813   24.1406 H   0  0  0  0  0  0
  -31.1722  -18.2607   21.7043 H   0  0  0  0  0  0
  -27.4796  -19.8367   18.8716 H   0  0  0  0  0  0
  -26.9800  -24.4371   20.4570 H   0  0  0  0  0  0
  -27.7409  -24.5441   18.8946 H   0  0  0  0  0  0
  -27.6810  -22.0689   19.4953 H   0  0  0  0  0  0
  -28.7152  -15.6589   20.7092 H   0  0  0  0  0  0
  1 25  1  0  0  0
  1 30  2  0  0  0
  1 80  1  0  0  0
  2  3  1  0  0  0
  2 25  1  0  0  0
  2 84  1  0  0  0
  2 85  1  0  0  0
  3  4  1  0  0  0
  3 86  1  0  0  0
  3 87  1  0  0  0
  4  5  1  0  0  0
  4 88  1  0  0  0
  4 89  1  0  0  0
  5  6  1  0  0  0
  5 26  1  0  0  0
  5 90  1  0  0  0
  6 25  1  0  0  0
  6 91  1  0  0  0
  6 92  1  0  0  0
  7  8  2  0  0  0
  7 26  1  0  0  0
  7 29  1  0  0  0
  8  9  1  0  0  0
  8 22  1  0  0  0
  9 10  1  0  0  0
  9 27  2  0  0  0
 10 11  2  0  0  0
 10 15  1  0  0  0
 11 12  1  0  0  0
 11 93  1  0  0  0
 12 13  2  0  0  0
 12 94  1  0  0  0
 13 14  1  0  0  0
 13 31  1  0  0  0
 14 15  2  0  0  0
 14 95  1  0  0  0
 15 96  1  0  0  0
 16 17  2  0  0  0
 16 21  1  0  0  0
 16 31  1  0  0  0
 17 18  1  0  0  0
 17 97  1  0  0  0
 18 19  2  0  0  0
 18 98  1  0  0  0
 19 20  1  0  0  0
 19 24  1  0  0  0
 20 21  2  0  0  0
 20 99  1  0  0  0
 21 23  1  0  0  0
 22 28  1  0  0  0
 22 32  2  0  0  0
 26 27  1  0  0  0
 28100  1  0  0  0
 28101  1  0  0  0
 29102  1  0  0  0
 29103  1  0  0  0
 33 34  1  0  0  0
 33 66  1  0  0  0
 33 70  2  0  0  0
 34 36  1  0  0  0
 34 59  1  0  0  0
 34104  1  0  0  0
 35 44  2  0  0  0
 35 45  1  0  0  0
 35 68  1  0  0  0
 36 56  1  0  0  0
 36105  1  0  0  0
 37 39  1  0  0  0
 37 47  1  0  0  0
 37 66  1  0  0  0
 37106  1  0  0  0
 38 43  2  0  0  0
 38 46  1  0  0  0
 38 47  1  0  0  0
 39 64  1  0  0  0
 39 67  2  0  0  0
 40 52  1  0  0  0
 40 53  2  0  0  0
 40 58  1  0  0  0
 41107  1  0  0  0
 41108  1  0  0  0
 41109  1  0  0  0
 41 48  1  0  0  0
 42 43  1  0  0  0
 42 66  1  0  0  0
 42110  1  0  0  0
 42111  1  0  0  0
 43 44  1  0  0  0
 44112  1  0  0  0
 45 46  2  0  0  0
 45113  1  0  0  0
 46114  1  0  0  0
 47115  1  0  0  0
 47116  1  0  0  0
 48 56  1  0  0  0
 48 65  1  0  0  0
 48117  1  0  0  0
 49 50  1  0  0  0
 49 53  1  0  0  0
 49 64  1  0  0  0
 49118  1  0  0  0
 50 51  1  0  0  0
 50119  1  0  0  0
 50120  1  0  0  0
 51 52  1  0  0  0
 51121  1  0  0  0
 51122  1  0  0  0
 52123  1  0  0  0
 52124  1  0  0  0
 53 54  1  0  0  0
 54 55  2  0  0  0
 54125  1  0  0  0
 55 57  1  0  0  0
 55126  1  0  0  0
 56 69  2  0  0  0
 57 58  2  0  0  0
 57127  1  0  0  0
 58128  1  0  0  0
 59 60  1  0  0  0
 59 61  1  0  0  0
 59 62  1  0  0  0
 60129  1  0  0  0
 60130  1  0  0  0
 60131  1  0  0  0
 61132  1  0  0  0
 61133  1  0  0  0
 61134  1  0  0  0
 62135  1  0  0  0
 62136  1  0  0  0
 62137  1  0  0  0
 63 65  1  0  0  0
 63138  1  0  0  0
 63139  1  0  0  0
 63140  1  0  0  0
 64141  1  0  0  0
 65142  1  0  0  0
 68 78  1  0  0  0
 71 73  2  0  0  0
 71 75  1  0  0  0
 71143  1  0  0  0
 72 74  1  0  0  0
 72 76  2  0  0  0
 72144  1  0  0  0
 73 76  1  0  0  0
 73 80  1  0  0  0
 74 75  2  0  0  0
 74 79  1  0  0  0
 75 82  1  0  0  0
 76 83  1  0  0  0
 77 78  1  0  0  0
 77 79  1  0  0  0
 77 81  2  0  0  0
 78145  1  0  0  0
 78146  1  0  0  0
 79147  1  0  0  0
 80148  1  0  0  0
M  ISO  4   1 100  68 101  78 101  80 100
M  END
> <chiral flag>
0

> <version>
0

> <s_m_source_file>
/data/baiqing/PycharmProjects/Reinvent-master-3.2/result/LINK_invent/BTK/process_docking_weight1_custom_sum_contain_oxygen_bond_distance_aromatic_linkinvent_7_9_3/rearranged_h_0011.sdf

> <i_m_source_file_index>
33

> <r_mmod_Potential_Energy-OPLS-2005>
384.859466552734

> <r_mmod_Stretch_Energy-OPLS-2005>
220.520233154297

> <r_mmod_Bend_Energy-OPLS-2005>
267.625915527344

> <r_mmod_Torsional_Energy-OPLS-2005>
240.501495361328

> <r_mmod_Improper_Torsional_Energy-OPLS-2005>
6.81895685195923

> <r_mmod_Van_der_Waal_Energy-OPLS-2005>
126.908294677734

> <r_mmod_Electrostatic_Energy-OPLS-2005>
-404.080993652344

> <r_mmod_Solvation_Energy-OPLS-2005>
-256.457611083984

> <b_mmod_Minimization_Converged-OPLS-2005>
0

> <r_mmod_RMS_Derivative-OPLS-2005>
0.821168065071106

$$$$
33
                    3D
 Structure written by MMmdl.
155163  0  0  1  0            999 V2000
  -30.5804  -14.7342   20.4050 C   0  0  0  0  0  0
  -30.4273  -12.4486   19.4287 C   0  0  0  0  0  0
  -29.4835  -12.5117   18.2085 C   0  0  0  0  0  0
  -28.0123  -12.3487   18.6261 C   0  0  0  0  0  0
  -27.6408  -13.2283   19.8480 C   0  0  2  0  0  0
  -28.6945  -13.1252   20.9708 C   0  0  0  0  0  0
  -25.2507  -13.8206   20.5664 C   0  0  0  0  0  0
  -24.1806  -13.0471   20.9162 C   0  0  0  0  0  0
  -24.6379  -11.6933   20.8729 C   0  0  0  0  0  0
  -23.9070  -10.4322   21.0395 C   0  0  0  0  0  0
  -24.3638   -9.4253   21.9180 C   0  0  0  0  0  0
  -23.6323   -8.2279   22.0739 C   0  0  0  0  0  0
  -22.4299   -8.0300   21.3529 C   0  0  0  0  0  0
  -21.9937   -9.0259   20.4627 C   0  0  0  0  0  0
  -22.7242  -10.2152   20.3042 C   0  0  0  0  0  0
  -21.6895   -6.0743   22.5256 C   0  0  0  0  0  0
  -21.4038   -6.5654   23.8191 C   0  0  0  0  0  0
  -21.3665   -5.6797   24.9148 C   0  0  0  0  0  0
  -21.6056   -4.3052   24.7216 C   0  0  0  0  0  0
  -21.8824   -3.8155   23.4324 C   0  0  0  0  0  0
  -21.9215   -4.6962   22.3385 C   0  0  0  0  0  0
  -22.7817  -13.5207   21.1831 C   0  0  0  0  0  0
  -22.1668   -4.2161   21.0958 F   0  0  0  0  0  0
  -21.5643   -3.4535   25.7721 F   0  0  0  0  0  0
  -29.9891  -13.4907   20.3872 N   0  0  0  0  0  0
  -26.2939  -12.9412   20.3281 N   0  0  0  0  0  0
  -25.9319  -11.6554   20.5748 N   0  0  0  0  0  0
  -22.0494  -12.8176   22.0390 N   0  0  0  0  0  0
  -25.4244  -15.1941   20.4029 N   0  0  0  0  0  0
  -31.7691  -14.8508   20.0876 O   0  0  0  0  0  0
  -21.6670   -6.8877   21.4222 O   0  0  0  0  0  0
  -22.3475  -14.5513   20.6671 O   0  0  0  0  0  0
  -24.6314  -31.8597   23.2031 C   0  0  0  0  0  0
  -25.9157  -32.4762   23.8364 C   0  0  1  0  0  0
  -27.2006  -27.2649   20.1188 C   0  0  0  0  0  0
  -25.5991  -33.8576   24.2299 N   0  0  0  0  0  0
  -23.4209  -30.4909   21.5477 C   0  0  2  0  0  0
  -24.8626  -28.9441   20.1061 C   0  0  0  0  0  0
  -22.7479  -29.4660   22.4908 C   0  0  0  0  0  0
  -18.0301  -28.1409   22.8476 C   0  0  0  0  0  0
  -24.1502  -36.7276   23.2625 C   0  0  0  0  0  0
  -25.9680  -30.7744   21.3790 C   0  0  0  0  0  0
  -26.0359  -29.3968   20.7220 C   0  0  0  0  0  0
  -27.2024  -28.5680   20.7238 C   0  0  0  0  0  0
  -26.0096  -26.8949   19.4486 C   0  0  0  0  0  0
  -24.8538  -27.6988   19.4640 C   0  0  0  0  0  0
  -23.6348  -29.8332   20.1611 C   0  0  0  0  0  0
  -25.4119  -36.3052   24.0320 C   0  0  1  0  0  0
  -20.5910  -28.3720   23.1259 C   0  0  2  0  0  0
  -20.6810  -26.9438   22.5408 C   0  0  0  0  0  0
  -19.5783  -26.6393   21.5231 C   0  0  0  0  0  0
  -18.1956  -26.7951   22.1632 C   0  0  0  0  0  0
  -19.1552  -28.8884   23.2873 C   0  0  0  0  0  0
  -18.9474  -30.1493   23.8878 C   0  0  0  0  0  0
  -17.6462  -30.6600   24.0573 C   0  0  0  0  0  0
  -25.9075  -34.9436   23.5091 C   0  0  0  0  0  0
  -16.5359  -29.9093   23.6329 C   0  0  0  0  0  0
  -16.7284  -28.6534   23.0307 C   0  0  0  0  0  0
  -26.4506  -31.6546   25.0733 C   0  0  0  0  0  0
  -25.3704  -31.3725   26.1436 C   0  0  0  0  0  0
  -27.0353  -30.2955   24.6212 C   0  0  0  0  0  0
  -27.6083  -32.4211   25.7524 C   0  0  0  0  0  0
  -27.5574  -37.1783   24.8446 C   0  0  0  0  0  0
  -21.4200  -29.3062   22.3624 N   0  0  0  0  0  0
  -26.4276  -37.3752   23.9402 N   0  0  0  0  0  0
  -24.6938  -31.0566   22.1014 N   0  0  0  0  0  0
  -23.4196  -28.8190   23.2981 O   0  0  0  0  0  0
  -28.2878  -26.3604   20.2054 O   0  0  0  0  0  0
  -26.5606  -34.8888   22.4632 O   0  0  0  0  0  0
  -23.5472  -32.1440   23.7331 O   0  0  0  0  0  0
  -29.5742  -18.4612   20.5952 C   0  0  0  0  0  0
  -29.8794  -19.6767   18.5227 C   0  0  0  0  0  0
  -29.5700  -19.7444   19.8969 C   0  0  0  0  0  0
  -29.8054  -17.1775   19.9332 C   0  0  0  0  0  0
  -29.9416  -17.2080   18.5125 C   0  0  0  0  0  0
  -30.0500  -18.4605   17.8455 C   0  0  0  0  0  0
  -28.9257  -22.2720   19.8827 C   0  0  0  0  0  0
  -29.6404  -15.9998   16.4332 C   0  0  0  0  0  0
  -28.9633  -23.7176   20.5656 C   0  0  0  0  0  0
  -28.1066  -24.9049   19.8621 C   0  0  0  0  0  0
  -29.3464  -21.0926   20.4990 N   0  0  0  0  0  0
  -29.7809  -15.8527   20.6165 N   0  0  0  0  0  0
  -28.4636  -22.2411   18.7407 O   0  0  0  0  0  0
  -29.9286  -16.0007   17.8333 O   0  0  0  0  0  0
  -30.3306  -18.5424   16.5214 F   0  0  0  0  0  0
  -31.4534  -12.6013   19.0898 H   0  0  0  0  0  0
  -30.4012  -11.4579   19.8851 H   0  0  0  0  0  0
  -29.7435  -11.7564   17.4665 H   0  0  0  0  0  0
  -29.6061  -13.4708   17.7121 H   0  0  0  0  0  0
  -27.8455  -11.2945   18.8529 H   0  0  0  0  0  0
  -27.3582  -12.5843   17.7865 H   0  0  0  0  0  0
  -27.6436  -14.2565   19.4840 H   0  0  0  0  0  0
  -28.7383  -12.1087   21.3677 H   0  0  0  0  0  0
  -28.4402  -13.7741   21.8093 H   0  0  0  0  0  0
  -25.2798   -9.5763   22.4734 H   0  0  0  0  0  0
  -24.0074   -7.4689   22.7442 H   0  0  0  0  0  0
  -21.0899   -8.8763   19.8916 H   0  0  0  0  0  0
  -22.3702  -10.9692   19.6143 H   0  0  0  0  0  0
  -21.2027   -7.6154   23.9685 H   0  0  0  0  0  0
  -21.1476   -6.0526   25.9046 H   0  0  0  0  0  0
  -22.0601   -2.7616   23.2814 H   0  0  0  0  0  0
  -22.4147  -11.9874   22.4827 H   0  0  0  0  0  0
  -21.1055  -13.1096   22.2498 H   0  0  0  0  0  0
  -24.6591  -15.8535   20.4942 H   0  0  0  0  0  0
  -26.2795  -15.6328   20.0904 H   0  0  0  0  0  0
  -26.7215  -32.5401   23.1103 H   0  0  0  0  0  0
  -25.0121  -33.9736   25.0430 H   0  0  0  0  0  0
  -22.7152  -31.3151   21.4097 H   0  0  0  0  0  0
  -23.3770  -35.9601   23.3246 H   0  0  0  0  0  0
  -24.3594  -36.8951   22.2049 H   0  0  0  0  0  0
  -23.7272  -37.6473   23.6671 H   0  0  0  0  0  0
  -26.0918  -31.5334   20.6054 H   0  0  0  0  0  0
  -26.8519  -30.8315   22.0021 H   0  0  0  0  0  0
  -28.0946  -28.9125   21.2268 H   0  0  0  0  0  0
  -25.9304  -25.9630   18.9106 H   0  0  0  0  0  0
  -23.9526  -27.3543   18.9738 H   0  0  0  0  0  0
  -23.7573  -30.6183   19.4138 H   0  0  0  0  0  0
  -22.7499  -29.2724   19.8498 H   0  0  0  0  0  0
  -25.1294  -36.1893   25.0814 H   0  0  0  0  0  0
  -21.0026  -28.3346   24.1374 H   0  0  0  0  0  0
  -20.5787  -26.2339   23.3624 H   0  0  0  0  0  0
  -21.6664  -26.7504   22.1159 H   0  0  0  0  0  0
  -19.6951  -25.6299   21.1281 H   0  0  0  0  0  0
  -19.6736  -27.3194   20.6757 H   0  0  0  0  0  0
  -17.4231  -26.6703   21.4015 H   0  0  0  0  0  0
  -18.0340  -26.0109   22.9047 H   0  0  0  0  0  0
  -19.7936  -30.7346   24.2221 H   0  0  0  0  0  0
  -17.4996  -31.6276   24.5180 H   0  0  0  0  0  0
  -15.5355  -30.2981   23.7666 H   0  0  0  0  0  0
  -15.8695  -28.0884   22.6948 H   0  0  0  0  0  0
  -24.5877  -30.7087   25.7725 H   0  0  0  0  0  0
  -24.8909  -32.2938   26.4770 H   0  0  0  0  0  0
  -25.7985  -30.8932   27.0263 H   0  0  0  0  0  0
  -26.2961  -29.6677   24.1232 H   0  0  0  0  0  0
  -27.4039  -29.7201   25.4721 H   0  0  0  0  0  0
  -27.8819  -30.4191   23.9454 H   0  0  0  0  0  0
  -27.2740  -33.3490   26.2162 H   0  0  0  0  0  0
  -28.3920  -32.6791   25.0385 H   0  0  0  0  0  0
  -28.0735  -31.8288   26.5423 H   0  0  0  0  0  0
  -28.2540  -38.0113   24.7496 H   0  0  0  0  0  0
  -28.1118  -36.2651   24.6254 H   0  0  0  0  0  0
  -27.2285  -37.1397   25.8838 H   0  0  0  0  0  0
  -20.9376  -29.8757   21.6808 H   0  0  0  0  0  0
  -26.0158  -38.2812   24.1429 H   0  0  0  0  0  0
  -29.3732  -18.4549   21.6580 H   0  0  0  0  0  0
  -29.9822  -20.5713   17.9272 H   0  0  0  0  0  0
  -29.3437  -15.0064   16.0973 H   0  0  0  0  0  0
  -30.5236  -16.2697   15.8542 H   0  0  0  0  0  0
  -28.8227  -16.6750   16.1739 H   0  0  0  0  0  0
  -30.0107  -24.0217   20.6311 H   0  0  0  0  0  0
  -28.6257  -23.6080   21.5974 H   0  0  0  0  0  0
  -27.0722  -24.6079   20.0540 H   0  0  0  0  0  0
  -28.2280  -24.8377   18.7751 H   0  0  0  0  0  0
  -29.5781  -21.1804   21.4803 H   0  0  0  0  0  0
  -28.9246  -15.6565   21.1131 H   0  0  0  0  0  0
  1 25  1  0  0  0
  1 30  2  0  0  0
  1 82  1  0  0  0
  2  3  1  0  0  0
  2 25  1  0  0  0
  2 86  1  0  0  0
  2 87  1  0  0  0
  3  4  1  0  0  0
  3 88  1  0  0  0
  3 89  1  0  0  0
  4  5  1  0  0  0
  4 90  1  0  0  0
  4 91  1  0  0  0
  5  6  1  0  0  0
  5 26  1  0  0  0
  5 92  1  0  0  0
  6 25  1  0  0  0
  6 93  1  0  0  0
  6 94  1  0  0  0
  7  8  2  0  0  0
  7 26  1  0  0  0
  7 29  1  0  0  0
  8  9  1  0  0  0
  8 22  1  0  0  0
  9 10  1  0  0  0
  9 27  2  0  0  0
 10 11  2  0  0  0
 10 15  1  0  0  0
 11 12  1  0  0  0
 11 95  1  0  0  0
 12 13  2  0  0  0
 12 96  1  0  0  0
 13 14  1  0  0  0
 13 31  1  0  0  0
 14 15  2  0  0  0
 14 97  1  0  0  0
 15 98  1  0  0  0
 16 17  2  0  0  0
 16 21  1  0  0  0
 16 31  1  0  0  0
 17 18  1  0  0  0
 17 99  1  0  0  0
 18 19  2  0  0  0
 18100  1  0  0  0
 19 20  1  0  0  0
 19 24  1  0  0  0
 20 21  2  0  0  0
 20101  1  0  0  0
 21 23  1  0  0  0
 22 28  1  0  0  0
 22 32  2  0  0  0
 26 27  1  0  0  0
 28102  1  0  0  0
 28103  1  0  0  0
 29104  1  0  0  0
 29105  1  0  0  0
 33 34  1  0  0  0
 33 66  1  0  0  0
 33 70  2  0  0  0
 34 36  1  0  0  0
 34 59  1  0  0  0
 34106  1  0  0  0
 35 44  2  0  0  0
 35 45  1  0  0  0
 35 68  1  0  0  0
 36 56  1  0  0  0
 36107  1  0  0  0
 37 39  1  0  0  0
 37 47  1  0  0  0
 37 66  1  0  0  0
 37108  1  0  0  0
 38 43  2  0  0  0
 38 46  1  0  0  0
 38 47  1  0  0  0
 39 64  1  0  0  0
 39 67  2  0  0  0
 40 52  1  0  0  0
 40 53  2  0  0  0
 40 58  1  0  0  0
 41109  1  0  0  0
 41110  1  0  0  0
 41111  1  0  0  0
 41 48  1  0  0  0
 42 43  1  0  0  0
 42 66  1  0  0  0
 42112  1  0  0  0
 42113  1  0  0  0
 43 44  1  0  0  0
 44114  1  0  0  0
 45 46  2  0  0  0
 45115  1  0  0  0
 46116  1  0  0  0
 47117  1  0  0  0
 47118  1  0  0  0
 48 56  1  0  0  0
 48 65  1  0  0  0
 48119  1  0  0  0
 49 50  1  0  0  0
 49 53  1  0  0  0
 49 64  1  0  0  0
 49120  1  0  0  0
 50 51  1  0  0  0
 50121  1  0  0  0
 50122  1  0  0  0
 51 52  1  0  0  0
 51123  1  0  0  0
 51124  1  0  0  0
 52125  1  0  0  0
 52126  1  0  0  0
 53 54  1  0  0  0
 54 55  2  0  0  0
 54127  1  0  0  0
 55 57  1  0  0  0
 55128  1  0  0  0
 56 69  2  0  0  0
 57 58  2  0  0  0
 57129  1  0  0  0
 58130  1  0  0  0
 59 60  1  0  0  0
 59 61  1  0  0  0
 59 62  1  0  0  0
 60131  1  0  0  0
 60132  1  0  0  0
 60133  1  0  0  0
 61134  1  0  0  0
 61135  1  0  0  0
 61136  1  0  0  0
 62137  1  0  0  0
 62138  1  0  0  0
 62139  1  0  0  0
 63 65  1  0  0  0
 63140  1  0  0  0
 63141  1  0  0  0
 63142  1  0  0  0
 64143  1  0  0  0
 65144  1  0  0  0
 68 80  1  0  0  0
 71 73  2  0  0  0
 71 74  1  0  0  0
 71145  1  0  0  0
 72 73  1  0  0  0
 72 76  2  0  0  0
 72146  1  0  0  0
 73 81  1  0  0  0
 74 75  2  0  0  0
 74 82  1  0  0  0
 75 76  1  0  0  0
 75 84  1  0  0  0
 76 85  1  0  0  0
 77 79  1  0  0  0
 77 81  1  0  0  0
 77 83  2  0  0  0
 78 84  1  0  0  0
 78147  1  0  0  0
 78148  1  0  0  0
 78149  1  0  0  0
 79 80  1  0  0  0
 79150  1  0  0  0
 79151  1  0  0  0
 80152  1  0  0  0
 80153  1  0  0  0
 81154  1  0  0  0
 82155  1  0  0  0
M  ISO  4   1 100  68 101  80 101  82 100
M  END
> <chiral flag>
0

> <version>
0

> <s_m_source_file>
/data/baiqing/PycharmProjects/Reinvent-master-3.2/result/LINK_invent/BTK/process_docking_weight1_custom_sum_contain_oxygen_bond_distance_aromatic_linkinvent_7_9_3/rearranged_h_0011.sdf

> <i_m_source_file_index>
34

> <r_mmod_Potential_Energy-OPLS-2005>
172.527404785156

> <r_mmod_Stretch_Energy-OPLS-2005>
129.769714355469

> <r_mmod_Bend_Energy-OPLS-2005>
161.616714477539

> <r_mmod_Torsional_Energy-OPLS-2005>
264.168548583984

> <r_mmod_Improper_Torsional_Energy-OPLS-2005>
5.31105661392212

> <r_mmod_Van_der_Waal_Energy-OPLS-2005>
160.736938476562

> <r_mmod_Electrostatic_Energy-OPLS-2005>
-393.389801025391

> <r_mmod_Solvation_Energy-OPLS-2005>
-240.561508178711

> <b_mmod_Minimization_Converged-OPLS-2005>
0

> <r_mmod_RMS_Derivative-OPLS-2005>
5.22943830490112

$$$$
34
                    3D
 Structure written by MMmdl.
154162  0  0  1  0            999 V2000
  -30.5241  -15.0460   20.3850 C   0  0  0  0  0  0
  -30.4372  -12.6555   19.5210 C   0  0  0  0  0  0
  -29.5214  -12.5354   18.2805 C   0  0  0  0  0  0
  -28.0721  -12.2745   18.7237 C   0  0  0  0  0  0
  -27.6203  -13.2513   19.8383 C   0  0  2  0  0  0
  -28.6545  -13.3459   20.9791 C   0  0  0  0  0  0
  -25.2427  -13.8226   20.5729 C   0  0  0  0  0  0
  -24.1735  -13.0428   20.9238 C   0  0  0  0  0  0
  -24.6346  -11.6931   20.8776 C   0  0  0  0  0  0
  -23.9050  -10.4283   21.0437 C   0  0  0  0  0  0
  -24.3600   -9.4188   21.9200 C   0  0  0  0  0  0
  -23.6268   -8.2225   22.0748 C   0  0  0  0  0  0
  -22.4260   -8.0271   21.3525 C   0  0  0  0  0  0
  -21.9917   -9.0252   20.4628 C   0  0  0  0  0  0
  -22.7250  -10.2121   20.3056 C   0  0  0  0  0  0
  -21.6839   -6.0732   22.5286 C   0  0  0  0  0  0
  -21.4004   -6.5636   23.8217 C   0  0  0  0  0  0
  -21.3666   -5.6781   24.9182 C   0  0  0  0  0  0
  -21.6047   -4.3046   24.7224 C   0  0  0  0  0  0
  -21.8816   -3.8139   23.4347 C   0  0  0  0  0  0
  -21.9184   -4.6964   22.3402 C   0  0  0  0  0  0
  -22.7767  -13.5210   21.1867 C   0  0  0  0  0  0
  -22.1651   -4.2140   21.0975 F   0  0  0  0  0  0
  -21.5646   -3.4536   25.7742 F   0  0  0  0  0  0
  -29.9216  -13.7775   20.3755 N   0  0  0  0  0  0
  -26.2822  -12.9431   20.3280 N   0  0  0  0  0  0
  -25.9276  -11.6575   20.5776 N   0  0  0  0  0  0
  -22.0369  -12.8190   22.0415 N   0  0  0  0  0  0
  -25.4137  -15.1939   20.4149 N   0  0  0  0  0  0
  -31.7377  -15.0432   20.1381 O   0  0  0  0  0  0
  -21.6631   -6.8868   21.4229 O   0  0  0  0  0  0
  -22.3452  -14.5502   20.6706 O   0  0  0  0  0  0
  -24.6527  -31.8308   23.1790 C   0  0  0  0  0  0
  -25.9241  -32.4613   23.8220 C   0  0  1  0  0  0
  -27.2032  -27.0321   20.1924 C   0  0  0  0  0  0
  -25.5941  -33.8428   24.2112 N   0  0  0  0  0  0
  -23.4624  -30.4507   21.5231 C   0  0  2  0  0  0
  -24.9183  -28.8610   20.1109 C   0  0  0  0  0  0
  -22.7603  -29.4494   22.4776 C   0  0  0  0  0  0
  -18.0303  -28.1439   22.8469 C   0  0  0  0  0  0
  -24.1512  -36.7219   23.2652 C   0  0  0  0  0  0
  -26.0268  -30.6720   21.4036 C   0  0  0  0  0  0
  -26.0981  -29.2765   20.7437 C   0  0  0  0  0  0
  -27.2431  -28.3794   20.7615 C   0  0  0  0  0  0
  -26.0006  -26.7430   19.5102 C   0  0  0  0  0  0
  -24.8879  -27.6108   19.4790 C   0  0  0  0  0  0
  -23.6991  -29.7726   20.1460 C   0  0  0  0  0  0
  -25.4143  -36.2973   24.0302 C   0  0  1  0  0  0
  -20.5933  -28.3758   23.1179 C   0  0  2  0  0  0
  -20.6794  -26.9439   22.5392 C   0  0  0  0  0  0
  -19.5763  -26.6362   21.5233 C   0  0  0  0  0  0
  -18.1946  -26.7968   22.1622 C   0  0  0  0  0  0
  -19.1572  -28.8916   23.2799 C   0  0  0  0  0  0
  -18.9506  -30.1501   23.8827 C   0  0  0  0  0  0
  -17.6512  -30.6629   24.0560 C   0  0  0  0  0  0
  -25.9091  -34.9347   23.5029 C   0  0  0  0  0  0
  -16.5372  -29.9135   23.6370 C   0  0  0  0  0  0
  -16.7288  -28.6553   23.0378 C   0  0  0  0  0  0
  -26.4551  -31.6547   25.0707 C   0  0  0  0  0  0
  -25.3711  -31.3754   26.1381 C   0  0  0  0  0  0
  -27.0475  -30.2909   24.6423 C   0  0  0  0  0  0
  -27.6050  -32.4385   25.7483 C   0  0  0  0  0  0
  -27.5585  -37.1759   24.8464 C   0  0  0  0  0  0
  -21.4293  -29.3043   22.3508 N   0  0  0  0  0  0
  -26.4281  -37.3705   23.9412 N   0  0  0  0  0  0
  -24.7337  -31.0075   22.0888 N   0  0  0  0  0  0
  -23.4184  -28.8047   23.2990 O   0  0  0  0  0  0
  -28.2209  -25.9864   20.2607 O   0  0  0  0  0  0
  -26.5720  -34.8859   22.4634 O   0  0  0  0  0  0
  -23.5623  -32.1231   23.6938 O   0  0  0  0  0  0
  -30.0861  -19.8869   18.5224 C   0  0  0  0  0  0
  -30.4393  -17.1634   18.3089 C   0  0  0  0  0  0
  -29.6632  -19.1263   19.6525 C   0  0  0  0  0  0
  -29.9551  -17.5997   19.5817 C   0  0  0  0  0  0
  -30.6094  -19.3623   17.3421 C   0  0  0  0  0  0
  -30.7584  -17.9851   17.2251 C   0  0  0  0  0  0
  -28.3513  -21.3986   20.3804 C   0  0  0  0  0  0
  -28.8000  -19.5951   21.9643 C   0  0  0  0  0  0
  -28.8795  -22.9985   20.3101 C   0  0  0  0  0  0
  -27.8887  -24.4237   20.3725 C   0  0  0  0  0  0
  -29.7999  -16.3087   20.4479 N   0  0  0  0  0  0
  -29.0796  -20.1579   20.6448 N   0  0  0  0  0  0
  -27.1278  -21.2842   20.2406 O   0  0  0  0  0  0
  -30.9354  -20.1905   16.3194 F   0  0  0  0  0  0
  -31.3296  -17.2921   15.7498 Cl  0  0  0  0  0  0
  -31.4651  -12.8174   19.1940 H   0  0  0  0  0  0
  -30.4603  -11.7192   20.0785 H   0  0  0  0  0  0
  -29.8670  -11.7325   17.6256 H   0  0  0  0  0  0
  -29.5699  -13.4574   17.6972 H   0  0  0  0  0  0
  -28.0297  -11.2514   19.1049 H   0  0  0  0  0  0
  -27.3936  -12.3054   17.8709 H   0  0  0  0  0  0
  -27.5656  -14.2320   19.3643 H   0  0  0  0  0  0
  -28.7604  -12.3881   21.4913 H   0  0  0  0  0  0
  -28.3252  -14.0649   21.7310 H   0  0  0  0  0  0
  -25.2737   -9.5668   22.4794 H   0  0  0  0  0  0
  -23.9996   -7.4604   22.7455 H   0  0  0  0  0  0
  -21.0875   -8.8753   19.8907 H   0  0  0  0  0  0
  -22.3723  -10.9655   19.6167 H   0  0  0  0  0  0
  -21.1977   -7.6135   23.9713 H   0  0  0  0  0  0
  -21.1510   -6.0512   25.9075 H   0  0  0  0  0  0
  -22.0590   -2.7598   23.2844 H   0  0  0  0  0  0
  -22.3973  -11.9914   22.4921 H   0  0  0  0  0  0
  -21.0929  -13.1189   22.2484 H   0  0  0  0  0  0
  -24.6467  -15.8515   20.5053 H   0  0  0  0  0  0
  -26.2792  -15.6317   20.1271 H   0  0  0  0  0  0
  -26.7280  -32.5191   23.0932 H   0  0  0  0  0  0
  -24.9990  -33.9553   25.0180 H   0  0  0  0  0  0
  -22.7695  -31.2773   21.3554 H   0  0  0  0  0  0
  -23.3773  -35.9558   23.3296 H   0  0  0  0  0  0
  -24.3565  -36.8882   22.2067 H   0  0  0  0  0  0
  -23.7280  -37.6401   23.6723 H   0  0  0  0  0  0
  -26.2110  -31.4276   20.6414 H   0  0  0  0  0  0
  -26.8825  -30.7122   22.0638 H   0  0  0  0  0  0
  -28.1432  -28.6826   21.2780 H   0  0  0  0  0  0
  -25.8643  -25.7963   19.0072 H   0  0  0  0  0  0
  -23.9851  -27.2807   18.9823 H   0  0  0  0  0  0
  -23.8547  -30.5405   19.3866 H   0  0  0  0  0  0
  -22.8117  -29.2191   19.8318 H   0  0  0  0  0  0
  -25.1362  -36.1794   25.0793 H   0  0  0  0  0  0
  -21.0002  -28.3399   24.1309 H   0  0  0  0  0  0
  -20.5743  -26.2379   23.3656 H   0  0  0  0  0  0
  -21.6645  -26.7478   22.1138 H   0  0  0  0  0  0
  -19.6906  -25.6225   21.1393 H   0  0  0  0  0  0
  -19.6738  -27.3080   20.6702 H   0  0  0  0  0  0
  -17.4222  -26.6725   21.4019 H   0  0  0  0  0  0
  -18.0279  -26.0143   22.9035 H   0  0  0  0  0  0
  -19.7981  -30.7353   24.2154 H   0  0  0  0  0  0
  -17.5064  -31.6317   24.5167 H   0  0  0  0  0  0
  -15.5375  -30.3035   23.7733 H   0  0  0  0  0  0
  -15.8670  -28.0875   22.7135 H   0  0  0  0  0  0
  -24.5869  -30.7155   25.7659 H   0  0  0  0  0  0
  -24.8942  -32.2953   26.4765 H   0  0  0  0  0  0
  -25.7960  -30.8906   27.0178 H   0  0  0  0  0  0
  -26.3135  -29.6533   24.1451 H   0  0  0  0  0  0
  -27.4050  -29.7333   25.5100 H   0  0  0  0  0  0
  -27.9088  -30.4082   23.9829 H   0  0  0  0  0  0
  -27.2575  -33.3689   26.1987 H   0  0  0  0  0  0
  -28.3872  -32.6942   25.0321 H   0  0  0  0  0  0
  -28.0717  -31.8571   26.5452 H   0  0  0  0  0  0
  -28.2595  -38.0063   24.7517 H   0  0  0  0  0  0
  -28.1104  -36.2591   24.6319 H   0  0  0  0  0  0
  -27.2289  -37.1431   25.8860 H   0  0  0  0  0  0
  -20.9543  -29.8613   21.6550 H   0  0  0  0  0  0
  -26.0154  -38.2773   24.1419 H   0  0  0  0  0  0
  -29.9952  -20.9588   18.4979 H   0  0  0  0  0  0
  -30.5758  -16.1169   18.0925 H   0  0  0  0  0  0
  -27.8633  -19.0367   21.9445 H   0  0  0  0  0  0
  -28.6985  -20.3602   22.7345 H   0  0  0  0  0  0
  -29.6116  -18.9346   22.2769 H   0  0  0  0  0  0
  -29.4174  -23.0462   19.3629 H   0  0  0  0  0  0
  -29.6614  -23.0972   21.0641 H   0  0  0  0  0  0
  -27.3720  -24.3464   21.3304 H   0  0  0  0  0  0
  -27.1056  -24.2248   19.6469 H   0  0  0  0  0  0
  -28.9138  -16.2464   20.9261 H   0  0  0  0  0  0
  1 25  1  0  0  0
  1 30  2  0  0  0
  1 81  1  0  0  0
  2  3  1  0  0  0
  2 25  1  0  0  0
  2 86  1  0  0  0
  2 87  1  0  0  0
  3  4  1  0  0  0
  3 88  1  0  0  0
  3 89  1  0  0  0
  4  5  1  0  0  0
  4 90  1  0  0  0
  4 91  1  0  0  0
  5  6  1  0  0  0
  5 26  1  0  0  0
  5 92  1  0  0  0
  6 25  1  0  0  0
  6 93  1  0  0  0
  6 94  1  0  0  0
  7  8  2  0  0  0
  7 26  1  0  0  0
  7 29  1  0  0  0
  8  9  1  0  0  0
  8 22  1  0  0  0
  9 10  1  0  0  0
  9 27  2  0  0  0
 10 11  2  0  0  0
 10 15  1  0  0  0
 11 12  1  0  0  0
 11 95  1  0  0  0
 12 13  2  0  0  0
 12 96  1  0  0  0
 13 14  1  0  0  0
 13 31  1  0  0  0
 14 15  2  0  0  0
 14 97  1  0  0  0
 15 98  1  0  0  0
 16 17  2  0  0  0
 16 21  1  0  0  0
 16 31  1  0  0  0
 17 18  1  0  0  0
 17 99  1  0  0  0
 18 19  2  0  0  0
 18100  1  0  0  0
 19 20  1  0  0  0
 19 24  1  0  0  0
 20 21  2  0  0  0
 20101  1  0  0  0
 21 23  1  0  0  0
 22 28  1  0  0  0
 22 32  2  0  0  0
 26 27  1  0  0  0
 28102  1  0  0  0
 28103  1  0  0  0
 29104  1  0  0  0
 29105  1  0  0  0
 33 34  1  0  0  0
 33 66  1  0  0  0
 33 70  2  0  0  0
 34 36  1  0  0  0
 34 59  1  0  0  0
 34106  1  0  0  0
 35 44  2  0  0  0
 35 45  1  0  0  0
 35 68  1  0  0  0
 36 56  1  0  0  0
 36107  1  0  0  0
 37 39  1  0  0  0
 37 47  1  0  0  0
 37 66  1  0  0  0
 37108  1  0  0  0
 38 43  2  0  0  0
 38 46  1  0  0  0
 38 47  1  0  0  0
 39 64  1  0  0  0
 39 67  2  0  0  0
 40 52  1  0  0  0
 40 53  2  0  0  0
 40 58  1  0  0  0
 41109  1  0  0  0
 41110  1  0  0  0
 41111  1  0  0  0
 41 48  1  0  0  0
 42 43  1  0  0  0
 42 66  1  0  0  0
 42112  1  0  0  0
 42113  1  0  0  0
 43 44  1  0  0  0
 44114  1  0  0  0
 45 46  2  0  0  0
 45115  1  0  0  0
 46116  1  0  0  0
 47117  1  0  0  0
 47118  1  0  0  0
 48 56  1  0  0  0
 48 65  1  0  0  0
 48119  1  0  0  0
 49 50  1  0  0  0
 49 53  1  0  0  0
 49 64  1  0  0  0
 49120  1  0  0  0
 50 51  1  0  0  0
 50121  1  0  0  0
 50122  1  0  0  0
 51 52  1  0  0  0
 51123  1  0  0  0
 51124  1  0  0  0
 52125  1  0  0  0
 52126  1  0  0  0
 53 54  1  0  0  0
 54 55  2  0  0  0
 54127  1  0  0  0
 55 57  1  0  0  0
 55128  1  0  0  0
 56 69  2  0  0  0
 57 58  2  0  0  0
 57129  1  0  0  0
 58130  1  0  0  0
 59 60  1  0  0  0
 59 61  1  0  0  0
 59 62  1  0  0  0
 60131  1  0  0  0
 60132  1  0  0  0
 60133  1  0  0  0
 61134  1  0  0  0
 61135  1  0  0  0
 61136  1  0  0  0
 62137  1  0  0  0
 62138  1  0  0  0
 62139  1  0  0  0
 63 65  1  0  0  0
 63140  1  0  0  0
 63141  1  0  0  0
 63142  1  0  0  0
 64143  1  0  0  0
 65144  1  0  0  0
 68 80  1  0  0  0
 71 73  2  0  0  0
 71 75  1  0  0  0
 71145  1  0  0  0
 72 74  2  0  0  0
 72 76  1  0  0  0
 72146  1  0  0  0
 73 74  1  0  0  0
 73 82  1  0  0  0
 74 81  1  0  0  0
 75 76  2  0  0  0
 75 84  1  0  0  0
 76 85  1  0  0  0
 77 79  1  0  0  0
 77 82  1  0  0  0
 77 83  2  0  0  0
 78 82  1  0  0  0
 78147  1  0  0  0
 78148  1  0  0  0
 78149  1  0  0  0
 79 80  1  0  0  0
 79150  1  0  0  0
 79151  1  0  0  0
 80152  1  0  0  0
 80153  1  0  0  0
 81154  1  0  0  0
M  ISO  4   1 100  68 101  80 101  81 100
M  END
> <chiral flag>
0

> <version>
0

> <s_m_source_file>
/data/baiqing/PycharmProjects/Reinvent-master-3.2/result/LINK_invent/BTK/process_docking_weight1_custom_sum_contain_oxygen_bond_distance_aromatic_linkinvent_7_9_3/rearranged_h_0011.sdf

> <i_m_source_file_index>
35

> <r_mmod_Potential_Energy-OPLS-2005>
956.812622070312

> <r_mmod_Stretch_Energy-OPLS-2005>
393.594451904297

> <r_mmod_Bend_Energy-OPLS-2005>
382.391693115234

> <r_mmod_Torsional_Energy-OPLS-2005>
338.906494140625

> <r_mmod_Improper_Torsional_Energy-OPLS-2005>
7.60151052474976

> <r_mmod_Van_der_Waal_Energy-OPLS-2005>
146.536590576172

> <r_mmod_Electrostatic_Energy-OPLS-2005>
-367.768005371094

> <r_mmod_Solvation_Energy-OPLS-2005>
-229.215744018555

> <b_mmod_Minimization_Converged-OPLS-2005>
0

> <r_mmod_RMS_Derivative-OPLS-2005>
5.62096786499023

$$$$
35
                    3D
 Structure written by MMmdl.
151159  0  0  1  0            999 V2000
  -30.5693  -14.9292   20.5009 C   0  0  0  0  0  0
  -30.4394  -12.5946   19.4966 C   0  0  0  0  0  0
  -29.5129  -12.5276   18.2598 C   0  0  0  0  0  0
  -28.0520  -12.3033   18.6848 C   0  0  0  0  0  0
  -27.6333  -13.2417   19.8426 C   0  0  2  0  0  0
  -28.6683  -13.2393   20.9838 C   0  0  0  0  0  0
  -25.2455  -13.8191   20.5648 C   0  0  0  0  0  0
  -24.1772  -13.0428   20.9204 C   0  0  0  0  0  0
  -24.6391  -11.6920   20.8777 C   0  0  0  0  0  0
  -23.9072  -10.4294   21.0415 C   0  0  0  0  0  0
  -24.3622   -9.4210   21.9176 C   0  0  0  0  0  0
  -23.6302   -8.2242   22.0748 C   0  0  0  0  0  0
  -22.4282   -8.0287   21.3542 C   0  0  0  0  0  0
  -21.9917   -9.0263   20.4650 C   0  0  0  0  0  0
  -22.7244  -10.2141   20.3067 C   0  0  0  0  0  0
  -21.6856   -6.0740   22.5264 C   0  0  0  0  0  0
  -21.4007   -6.5636   23.8201 C   0  0  0  0  0  0
  -21.3665   -5.6788   24.9158 C   0  0  0  0  0  0
  -21.6047   -4.3059   24.7212 C   0  0  0  0  0  0
  -21.8822   -3.8149   23.4338 C   0  0  0  0  0  0
  -21.9200   -4.6965   22.3390 C   0  0  0  0  0  0
  -22.7806  -13.5210   21.1838 C   0  0  0  0  0  0
  -22.1674   -4.2158   21.0970 F   0  0  0  0  0  0
  -21.5635   -3.4541   25.7726 F   0  0  0  0  0  0
  -29.9592  -13.6707   20.4178 N   0  0  0  0  0  0
  -26.2903  -12.9415   20.3282 N   0  0  0  0  0  0
  -25.9329  -11.6562   20.5814 N   0  0  0  0  0  0
  -22.0488  -12.8226   22.0459 N   0  0  0  0  0  0
  -25.4021  -15.1895   20.3920 N   0  0  0  0  0  0
  -31.7072  -15.0290   20.0249 O   0  0  0  0  0  0
  -21.6641   -6.8886   21.4226 O   0  0  0  0  0  0
  -22.3473  -14.5482   20.6643 O   0  0  0  0  0  0
  -24.6420  -31.8460   23.1923 C   0  0  0  0  0  0
  -25.9194  -32.4708   23.8304 C   0  0  1  0  0  0
  -27.2114  -27.1378   20.1457 C   0  0  0  0  0  0
  -25.5920  -33.8514   24.2206 N   0  0  0  0  0  0
  -23.4436  -30.4696   21.5370 C   0  0  2  0  0  0
  -24.8910  -28.8973   20.1072 C   0  0  0  0  0  0
  -22.7555  -29.4598   22.4879 C   0  0  0  0  0  0
  -18.0314  -28.1416   22.8488 C   0  0  0  0  0  0
  -24.1461  -36.7263   23.2646 C   0  0  0  0  0  0
  -25.9996  -30.7192   21.3897 C   0  0  0  0  0  0
  -26.0696  -29.3311   20.7278 C   0  0  0  0  0  0
  -27.2291  -28.4680   20.7318 C   0  0  0  0  0  0
  -26.0097  -26.8101   19.4786 C   0  0  0  0  0  0
  -24.8759  -27.6492   19.4678 C   0  0  0  0  0  0
  -23.6660  -29.7990   20.1566 C   0  0  0  0  0  0
  -25.4092  -36.3039   24.0329 C   0  0  1  0  0  0
  -20.5921  -28.3758   23.1233 C   0  0  2  0  0  0
  -20.6796  -26.9453   22.5419 C   0  0  0  0  0  0
  -19.5770  -26.6398   21.5227 C   0  0  0  0  0  0
  -18.1941  -26.7967   22.1627 C   0  0  0  0  0  0
  -19.1569  -28.8902   23.2848 C   0  0  0  0  0  0
  -18.9496  -30.1491   23.8885 C   0  0  0  0  0  0
  -17.6493  -30.6604   24.0574 C   0  0  0  0  0  0
  -25.9065  -34.9419   23.5083 C   0  0  0  0  0  0
  -16.5384  -29.9102   23.6338 C   0  0  0  0  0  0
  -16.7305  -28.6519   23.0372 C   0  0  0  0  0  0
  -26.4498  -31.6579   25.0764 C   0  0  0  0  0  0
  -25.3651  -31.3794   26.1452 C   0  0  0  0  0  0
  -27.0373  -30.2952   24.6395 C   0  0  0  0  0  0
  -27.6086  -32.4338   25.7486 C   0  0  0  0  0  0
  -27.5581  -37.1750   24.8456 C   0  0  0  0  0  0
  -21.4263  -29.3068   22.3591 N   0  0  0  0  0  0
  -26.4256  -37.3761   23.9440 N   0  0  0  0  0  0
  -24.7152  -31.0330   22.0947 N   0  0  0  0  0  0
  -23.4184  -28.8152   23.3051 O   0  0  0  0  0  0
  -28.2566  -26.1473   20.2295 O   0  0  0  0  0  0
  -26.5683  -34.8930   22.4683 O   0  0  0  0  0  0
  -23.5544  -32.1365   23.7139 O   0  0  0  0  0  0
  -30.0906  -18.6542   21.5787 C   0  0  0  0  0  0
  -28.7653  -19.3989   19.3082 C   0  0  0  0  0  0
  -29.7728  -17.5302   20.7182 C   0  0  0  0  0  0
  -29.0496  -20.5143   20.1819 C   0  0  0  0  0  0
  -29.7652  -20.0553   21.3366 C   0  0  0  0  0  0
  -29.1105  -18.0013   19.5394 C   0  0  0  0  0  0
  -29.8361  -15.8479   22.5873 C   0  0  0  0  0  0
  -27.9743  -24.6298   19.9998 C   0  0  0  0  0  0
  -28.8770  -23.2626   20.4266 C   0  0  0  0  0  0
  -29.9462  -16.0481   21.1298 N   0  0  0  0  0  0
  -28.5741  -21.8662   19.8484 O   0  0  0  0  0  0
  -30.1263  -20.9666   22.2726 F   0  0  0  0  0  0
  -28.7355  -17.0841   18.6150 F   0  0  0  0  0  0
  -31.4644  -12.7662   19.1664 H   0  0  0  0  0  0
  -30.4602  -11.6383   20.0173 H   0  0  0  0  0  0
  -29.8309  -11.7220   17.5966 H   0  0  0  0  0  0
  -29.5898  -13.4495   17.6826 H   0  0  0  0  0  0
  -27.9645  -11.2651   19.0090 H   0  0  0  0  0  0
  -27.3764  -12.4142   17.8356 H   0  0  0  0  0  0
  -27.6089  -14.2489   19.4247 H   0  0  0  0  0  0
  -28.7546  -12.2486   21.4355 H   0  0  0  0  0  0
  -28.3216  -13.8999   21.7755 H   0  0  0  0  0  0
  -25.2768   -9.5690   22.4753 H   0  0  0  0  0  0
  -24.0021   -7.4631   22.7454 H   0  0  0  0  0  0
  -21.0855   -8.8786   19.8948 H   0  0  0  0  0  0
  -22.3696  -10.9691   19.6199 H   0  0  0  0  0  0
  -21.1991   -7.6141   23.9702 H   0  0  0  0  0  0
  -21.1478   -6.0518   25.9067 H   0  0  0  0  0  0
  -22.0596   -2.7611   23.2823 H   0  0  0  0  0  0
  -22.4158  -11.9961   22.4910 H   0  0  0  0  0  0
  -21.1125  -13.1260   22.2675 H   0  0  0  0  0  0
  -24.5897  -15.7972   20.3703 H   0  0  0  0  0  0
  -26.2309  -15.6223   20.0002 H   0  0  0  0  0  0
  -26.7275  -32.5298   23.1068 H   0  0  0  0  0  0
  -24.9929  -33.9623   25.0256 H   0  0  0  0  0  0
  -22.7456  -31.2973   21.3867 H   0  0  0  0  0  0
  -23.3754  -35.9556   23.3236 H   0  0  0  0  0  0
  -24.3558  -36.8986   22.2069 H   0  0  0  0  0  0
  -23.7189  -37.6433   23.6736 H   0  0  0  0  0  0
  -26.1539  -31.4738   20.6177 H   0  0  0  0  0  0
  -26.8716  -30.7680   22.0314 H   0  0  0  0  0  0
  -28.1205  -28.7953   21.2470 H   0  0  0  0  0  0
  -25.9103  -25.8600   18.9760 H   0  0  0  0  0  0
  -23.9767  -27.3117   18.9686 H   0  0  0  0  0  0
  -23.7903  -30.5773   19.4013 H   0  0  0  0  0  0
  -22.7777  -29.2423   19.8529 H   0  0  0  0  0  0
  -25.1254  -36.1868   25.0813 H   0  0  0  0  0  0
  -21.0037  -28.3376   24.1347 H   0  0  0  0  0  0
  -20.5694  -26.2391   23.3643 H   0  0  0  0  0  0
  -21.6662  -26.7447   22.1223 H   0  0  0  0  0  0
  -19.6935  -25.6309   21.1274 H   0  0  0  0  0  0
  -19.6711  -27.3188   20.6734 H   0  0  0  0  0  0
  -17.4228  -26.6765   21.3994 H   0  0  0  0  0  0
  -18.0297  -26.0075   22.8976 H   0  0  0  0  0  0
  -19.7971  -30.7308   24.2247 H   0  0  0  0  0  0
  -17.5052  -31.6282   24.5196 H   0  0  0  0  0  0
  -15.5394  -30.3004   23.7679 H   0  0  0  0  0  0
  -15.8708  -28.0839   22.7100 H   0  0  0  0  0  0
  -24.5945  -30.6986   25.7806 H   0  0  0  0  0  0
  -24.8672  -32.2946   26.4658 H   0  0  0  0  0  0
  -25.7915  -30.9189   27.0371 H   0  0  0  0  0  0
  -26.3024  -29.6655   24.1382 H   0  0  0  0  0  0
  -27.3918  -29.7288   25.5026 H   0  0  0  0  0  0
  -27.8938  -30.4158   23.9775 H   0  0  0  0  0  0
  -27.2792  -33.3744   26.1920 H   0  0  0  0  0  0
  -28.3936  -32.6733   25.0288 H   0  0  0  0  0  0
  -28.0701  -31.8533   26.5495 H   0  0  0  0  0  0
  -28.2557  -38.0077   24.7572 H   0  0  0  0  0  0
  -28.1133  -36.2645   24.6182 H   0  0  0  0  0  0
  -27.2344  -37.1283   25.8864 H   0  0  0  0  0  0
  -20.9493  -29.8733   21.6719 H   0  0  0  0  0  0
  -26.0137  -38.2828   24.1494 H   0  0  0  0  0  0
  -30.6092  -18.4627   22.5044 H   0  0  0  0  0  0
  -28.2206  -19.6145   18.4020 H   0  0  0  0  0  0
  -30.5615  -16.4451   23.1386 H   0  0  0  0  0  0
  -30.0089  -14.8224   22.9172 H   0  0  0  0  0  0
  -28.8412  -16.1292   22.9321 H   0  0  0  0  0  0
  -26.9858  -24.4444   20.4194 H   0  0  0  0  0  0
  -27.8421  -24.5446   18.9229 H   0  0  0  0  0  0
  -28.8735  -23.1860   21.5122 H   0  0  0  0  0  0
  -29.9107  -23.4709   20.1496 H   0  0  0  0  0  0
  1 25  1  0  0  0
  1 30  2  0  0  0
  1 80  1  0  0  0
  2  3  1  0  0  0
  2 25  1  0  0  0
  2 84  1  0  0  0
  2 85  1  0  0  0
  3  4  1  0  0  0
  3 86  1  0  0  0
  3 87  1  0  0  0
  4  5  1  0  0  0
  4 88  1  0  0  0
  4 89  1  0  0  0
  5  6  1  0  0  0
  5 26  1  0  0  0
  5 90  1  0  0  0
  6 25  1  0  0  0
  6 91  1  0  0  0
  6 92  1  0  0  0
  7  8  2  0  0  0
  7 26  1  0  0  0
  7 29  1  0  0  0
  8  9  1  0  0  0
  8 22  1  0  0  0
  9 10  1  0  0  0
  9 27  2  0  0  0
 10 11  2  0  0  0
 10 15  1  0  0  0
 11 12  1  0  0  0
 11 93  1  0  0  0
 12 13  2  0  0  0
 12 94  1  0  0  0
 13 14  1  0  0  0
 13 31  1  0  0  0
 14 15  2  0  0  0
 14 95  1  0  0  0
 15 96  1  0  0  0
 16 17  2  0  0  0
 16 21  1  0  0  0
 16 31  1  0  0  0
 17 18  1  0  0  0
 17 97  1  0  0  0
 18 19  2  0  0  0
 18 98  1  0  0  0
 19 20  1  0  0  0
 19 24  1  0  0  0
 20 21  2  0  0  0
 20 99  1  0  0  0
 21 23  1  0  0  0
 22 28  1  0  0  0
 22 32  2  0  0  0
 26 27  1  0  0  0
 28100  1  0  0  0
 28101  1  0  0  0
 29102  1  0  0  0
 29103  1  0  0  0
 33 34  1  0  0  0
 33 66  1  0  0  0
 33 70  2  0  0  0
 34 36  1  0  0  0
 34 59  1  0  0  0
 34104  1  0  0  0
 35 44  2  0  0  0
 35 45  1  0  0  0
 35 68  1  0  0  0
 36 56  1  0  0  0
 36105  1  0  0  0
 37 39  1  0  0  0
 37 47  1  0  0  0
 37 66  1  0  0  0
 37106  1  0  0  0
 38 43  2  0  0  0
 38 46  1  0  0  0
 38 47  1  0  0  0
 39 64  1  0  0  0
 39 67  2  0  0  0
 40 52  1  0  0  0
 40 53  2  0  0  0
 40 58  1  0  0  0
 41107  1  0  0  0
 41108  1  0  0  0
 41109  1  0  0  0
 41 48  1  0  0  0
 42 43  1  0  0  0
 42 66  1  0  0  0
 42110  1  0  0  0
 42111  1  0  0  0
 43 44  1  0  0  0
 44112  1  0  0  0
 45 46  2  0  0  0
 45113  1  0  0  0
 46114  1  0  0  0
 47115  1  0  0  0
 47116  1  0  0  0
 48 56  1  0  0  0
 48 65  1  0  0  0
 48117  1  0  0  0
 49 50  1  0  0  0
 49 53  1  0  0  0
 49 64  1  0  0  0
 49118  1  0  0  0
 50 51  1  0  0  0
 50119  1  0  0  0
 50120  1  0  0  0
 51 52  1  0  0  0
 51121  1  0  0  0
 51122  1  0  0  0
 52123  1  0  0  0
 52124  1  0  0  0
 53 54  1  0  0  0
 54 55  2  0  0  0
 54125  1  0  0  0
 55 57  1  0  0  0
 55126  1  0  0  0
 56 69  2  0  0  0
 57 58  2  0  0  0
 57127  1  0  0  0
 58128  1  0  0  0
 59 60  1  0  0  0
 59 61  1  0  0  0
 59 62  1  0  0  0
 60129  1  0  0  0
 60130  1  0  0  0
 60131  1  0  0  0
 61132  1  0  0  0
 61133  1  0  0  0
 61134  1  0  0  0
 62135  1  0  0  0
 62136  1  0  0  0
 62137  1  0  0  0
 63 65  1  0  0  0
 63138  1  0  0  0
 63139  1  0  0  0
 63140  1  0  0  0
 64141  1  0  0  0
 65142  1  0  0  0
 68 78  1  0  0  0
 71 73  2  0  0  0
 71 75  1  0  0  0
 71143  1  0  0  0
 72 74  1  0  0  0
 72 76  2  0  0  0
 72144  1  0  0  0
 73 76  1  0  0  0
 73 80  1  0  0  0
 74 75  2  0  0  0
 74 81  1  0  0  0
 75 82  1  0  0  0
 76 83  1  0  0  0
 77 80  1  0  0  0
 77145  1  0  0  0
 77146  1  0  0  0
 77147  1  0  0  0
 78 79  1  0  0  0
 78148  1  0  0  0
 78149  1  0  0  0
 79 81  1  0  0  0
 79150  1  0  0  0
 79151  1  0  0  0
M  ISO  4   1 100  68 101  78 101  80 100
M  END
> <chiral flag>
0

> <version>
0

> <s_m_source_file>
/data/baiqing/PycharmProjects/Reinvent-master-3.2/result/LINK_invent/BTK/process_docking_weight1_custom_sum_contain_oxygen_bond_distance_aromatic_linkinvent_7_9_3/rearranged_h_0011.sdf

> <i_m_source_file_index>
36

> <r_mmod_Potential_Energy-OPLS-2005>
631.009521484375

> <r_mmod_Stretch_Energy-OPLS-2005>
245.0986328125

> <r_mmod_Bend_Energy-OPLS-2005>
282.762634277344

> <r_mmod_Torsional_Energy-OPLS-2005>
289.382995605469

> <r_mmod_Improper_Torsional_Energy-OPLS-2005>
5.00044012069702

> <r_mmod_Van_der_Waal_Energy-OPLS-2005>
140.583038330078

> <r_mmod_Electrostatic_Energy-OPLS-2005>
-323.543609619141

> <r_mmod_Solvation_Energy-OPLS-2005>
-191.440536499023

> <b_mmod_Minimization_Converged-OPLS-2005>
0

> <r_mmod_RMS_Derivative-OPLS-2005>
3.62766981124878

$$$$
36
                    3D
 Structure written by MMmdl.
148156  0  0  1  0            999 V2000
  -30.5139  -14.9320   20.4225 C   0  0  0  0  0  0
  -30.4561  -12.5754   19.4915 C   0  0  0  0  0  0
  -29.5251  -12.5263   18.2556 C   0  0  0  0  0  0
  -28.0586  -12.3111   18.6776 C   0  0  0  0  0  0
  -27.6372  -13.2392   19.8467 C   0  0  2  0  0  0
  -28.6834  -13.2341   20.9827 C   0  0  0  0  0  0
  -25.2477  -13.8167   20.5710 C   0  0  0  0  0  0
  -24.1781  -13.0399   20.9188 C   0  0  0  0  0  0
  -24.6406  -11.6892   20.8744 C   0  0  0  0  0  0
  -23.9086  -10.4273   21.0408 C   0  0  0  0  0  0
  -24.3629   -9.4190   21.9191 C   0  0  0  0  0  0
  -23.6294   -8.2232   22.0760 C   0  0  0  0  0  0
  -22.4274   -8.0281   21.3551 C   0  0  0  0  0  0
  -21.9918   -9.0256   20.4650 C   0  0  0  0  0  0
  -22.7255  -10.2125   20.3058 C   0  0  0  0  0  0
  -21.6853   -6.0741   22.5281 C   0  0  0  0  0  0
  -21.4009   -6.5642   23.8215 C   0  0  0  0  0  0
  -21.3656   -5.6793   24.9174 C   0  0  0  0  0  0
  -21.6041   -4.3057   24.7223 C   0  0  0  0  0  0
  -21.8819   -3.8150   23.4345 C   0  0  0  0  0  0
  -21.9189   -4.6968   22.3402 C   0  0  0  0  0  0
  -22.7804  -13.5189   21.1853 C   0  0  0  0  0  0
  -22.1659   -4.2157   21.0980 F   0  0  0  0  0  0
  -21.5627   -3.4539   25.7734 F   0  0  0  0  0  0
  -29.9654  -13.6519   20.3948 N   0  0  0  0  0  0
  -26.2932  -12.9404   20.3295 N   0  0  0  0  0  0
  -25.9347  -11.6538   20.5766 N   0  0  0  0  0  0
  -22.0455  -12.8194   22.0420 N   0  0  0  0  0  0
  -25.4058  -15.1894   20.4205 N   0  0  0  0  0  0
  -31.7048  -15.0619   20.1184 O   0  0  0  0  0  0
  -21.6632   -6.8886   21.4246 O   0  0  0  0  0  0
  -22.3485  -14.5503   20.6711 O   0  0  0  0  0  0
  -24.6435  -31.8447   23.1887 C   0  0  0  0  0  0
  -25.9209  -32.4705   23.8274 C   0  0  1  0  0  0
  -27.2232  -27.1462   20.1370 C   0  0  0  0  0  0
  -25.5956  -33.8509   24.2195 N   0  0  0  0  0  0
  -23.4469  -30.4647   21.5343 C   0  0  2  0  0  0
  -24.8978  -28.8965   20.1082 C   0  0  0  0  0  0
  -22.7576  -29.4550   22.4866 C   0  0  0  0  0  0
  -18.0308  -28.1393   22.8475 C   0  0  0  0  0  0
  -24.1491  -36.7252   23.2644 C   0  0  0  0  0  0
  -26.0038  -30.7206   21.3879 C   0  0  0  0  0  0
  -26.0757  -29.3333   20.7277 C   0  0  0  0  0  0
  -27.2384  -28.4735   20.7272 C   0  0  0  0  0  0
  -26.0176  -26.8159   19.4747 C   0  0  0  0  0  0
  -24.8821  -27.6513   19.4655 C   0  0  0  0  0  0
  -23.6727  -29.7952   20.1536 C   0  0  0  0  0  0
  -25.4120  -36.3037   24.0322 C   0  0  1  0  0  0
  -20.5925  -28.3717   23.1236 C   0  0  2  0  0  0
  -20.6795  -26.9420   22.5404 C   0  0  0  0  0  0
  -19.5767  -26.6377   21.5213 C   0  0  0  0  0  0
  -18.1945  -26.7934   22.1619 C   0  0  0  0  0  0
  -19.1566  -28.8871   23.2851 C   0  0  0  0  0  0
  -18.9484  -30.1468   23.8877 C   0  0  0  0  0  0
  -17.6480  -30.6591   24.0557 C   0  0  0  0  0  0
  -25.9071  -34.9415   23.5065 C   0  0  0  0  0  0
  -16.5372  -29.9082   23.6340 C   0  0  0  0  0  0
  -16.7292  -28.6502   23.0357 C   0  0  0  0  0  0
  -26.4531  -31.6567   25.0707 C   0  0  0  0  0  0
  -25.3722  -31.3762   26.1405 C   0  0  0  0  0  0
  -27.0389  -30.2966   24.6275 C   0  0  0  0  0  0
  -27.6064  -32.4333   25.7489 C   0  0  0  0  0  0
  -27.5575  -37.1780   24.8472 C   0  0  0  0  0  0
  -21.4270  -29.3052   22.3615 N   0  0  0  0  0  0
  -26.4287  -37.3747   23.9415 N   0  0  0  0  0  0
  -24.7179  -31.0304   22.0921 N   0  0  0  0  0  0
  -23.4227  -28.8096   23.3007 O   0  0  0  0  0  0
  -28.2711  -26.1546   20.2082 O   0  0  0  0  0  0
  -26.5650  -34.8913   22.4642 O   0  0  0  0  0  0
  -23.5553  -32.1317   23.7099 O   0  0  0  0  0  0
  -28.0059  -19.5685   20.5470 C   0  0  0  0  0  0
  -30.5654  -18.5633   20.2486 C   0  0  0  0  0  0
  -28.9779  -20.5918   20.3075 C   0  0  0  0  0  0
  -29.5642  -17.5518   20.4933 C   0  0  0  0  0  0
  -30.2926  -20.0052   20.1605 C   0  0  0  0  0  0
  -28.2776  -18.1541   20.6436 C   0  0  0  0  0  0
  -28.9381  -23.3768   20.2856 C   0  0  0  0  0  0
  -27.9406  -24.6572   19.9475 C   0  0  0  0  0  0
  -28.4904  -22.0408   20.1371 N   0  0  0  0  0  0
  -29.6392  -16.0241   20.6251 N   0  0  0  0  0  0
  -30.0842  -23.6136   20.6744 O   0  0  0  0  0  0
  -31.3335  -20.8283   19.8910 F   0  0  0  0  0  0
  -27.2343  -17.3246   20.8792 F   0  0  0  0  0  0
  -31.4848  -12.7552   19.1740 H   0  0  0  0  0  0
  -30.4673  -11.6158   20.0110 H   0  0  0  0  0  0
  -29.8407  -11.7315   17.5784 H   0  0  0  0  0  0
  -29.6109  -13.4579   17.6942 H   0  0  0  0  0  0
  -27.9584  -11.2697   18.9853 H   0  0  0  0  0  0
  -27.3917  -12.4410   17.8248 H   0  0  0  0  0  0
  -27.6067  -14.2460   19.4299 H   0  0  0  0  0  0
  -28.7661  -12.2440   21.4341 H   0  0  0  0  0  0
  -28.3845  -13.9107   21.7850 H   0  0  0  0  0  0
  -25.2776   -9.5660   22.4769 H   0  0  0  0  0  0
  -23.9995   -7.4624   22.7485 H   0  0  0  0  0  0
  -21.0849   -8.8787   19.8959 H   0  0  0  0  0  0
  -22.3729  -10.9670   19.6168 H   0  0  0  0  0  0
  -21.2002   -7.6152   23.9724 H   0  0  0  0  0  0
  -21.1475   -6.0520   25.9079 H   0  0  0  0  0  0
  -22.0600   -2.7614   23.2839 H   0  0  0  0  0  0
  -22.4061  -11.9846   22.4801 H   0  0  0  0  0  0
  -21.1082  -13.1241   22.2638 H   0  0  0  0  0  0
  -24.6392  -15.8300   20.5888 H   0  0  0  0  0  0
  -26.2733  -15.6760   20.2276 H   0  0  0  0  0  0
  -26.7270  -32.5314   23.1001 H   0  0  0  0  0  0
  -25.0110  -33.9627   25.0348 H   0  0  0  0  0  0
  -22.7488  -31.2903   21.3795 H   0  0  0  0  0  0
  -23.3764  -35.9577   23.3307 H   0  0  0  0  0  0
  -24.3568  -36.8869   22.2059 H   0  0  0  0  0  0
  -23.7239  -37.6448   23.6668 H   0  0  0  0  0  0
  -26.1576  -31.4751   20.6156 H   0  0  0  0  0  0
  -26.8762  -30.7701   22.0276 H   0  0  0  0  0  0
  -28.1343  -28.8019   21.2353 H   0  0  0  0  0  0
  -25.9095  -25.8691   18.9684 H   0  0  0  0  0  0
  -23.9849  -27.3150   18.9638 H   0  0  0  0  0  0
  -23.8038  -30.5693   19.3963 H   0  0  0  0  0  0
  -22.7895  -29.2326   19.8450 H   0  0  0  0  0  0
  -25.1308  -36.1866   25.0816 H   0  0  0  0  0  0
  -21.0011  -28.3297   24.1359 H   0  0  0  0  0  0
  -20.5682  -26.2331   23.3620 H   0  0  0  0  0  0
  -21.6655  -26.7419   22.1197 H   0  0  0  0  0  0
  -19.6928  -25.6280   21.1249 H   0  0  0  0  0  0
  -19.6702  -27.3187   20.6740 H   0  0  0  0  0  0
  -17.4215  -26.6686   21.4024 H   0  0  0  0  0  0
  -18.0335  -26.0078   22.9016 H   0  0  0  0  0  0
  -19.7964  -30.7285   24.2235 H   0  0  0  0  0  0
  -17.5039  -31.6271   24.5157 H   0  0  0  0  0  0
  -15.5373  -30.2976   23.7677 H   0  0  0  0  0  0
  -15.8696  -28.0809   22.7092 H   0  0  0  0  0  0
  -24.5921  -30.7076   25.7733 H   0  0  0  0  0  0
  -24.8892  -32.2951   26.4747 H   0  0  0  0  0  0
  -25.8015  -30.8998   27.0234 H   0  0  0  0  0  0
  -26.2999  -29.6689   24.1277 H   0  0  0  0  0  0
  -27.4011  -29.7245   25.4830 H   0  0  0  0  0  0
  -27.8905  -30.4201   23.9581 H   0  0  0  0  0  0
  -27.2665  -33.3669   26.1986 H   0  0  0  0  0  0
  -28.3919  -32.6832   25.0345 H   0  0  0  0  0  0
  -28.0686  -31.8512   26.5471 H   0  0  0  0  0  0
  -28.2590  -38.0077   24.7499 H   0  0  0  0  0  0
  -28.1068  -36.2601   24.6316 H   0  0  0  0  0  0
  -27.2289  -37.1451   25.8874 H   0  0  0  0  0  0
  -20.9481  -29.8759   21.6789 H   0  0  0  0  0  0
  -26.0155  -38.2818   24.1413 H   0  0  0  0  0  0
  -26.9753  -19.8694   20.6600 H   0  0  0  0  0  0
  -31.5854  -18.2383   20.1117 H   0  0  0  0  0  0
  -27.0072  -24.4368   20.4654 H   0  0  0  0  0  0
  -27.7232  -24.5690   18.8826 H   0  0  0  0  0  0
  -27.5140  -22.0631   19.8784 H   0  0  0  0  0  0
  -28.7273  -15.6613   20.8607 H   0  0  0  0  0  0
  1 25  1  0  0  0
  1 30  2  0  0  0
  1 80  1  0  0  0
  2  3  1  0  0  0
  2 25  1  0  0  0
  2 84  1  0  0  0
  2 85  1  0  0  0
  3  4  1  0  0  0
  3 86  1  0  0  0
  3 87  1  0  0  0
  4  5  1  0  0  0
  4 88  1  0  0  0
  4 89  1  0  0  0
  5  6  1  0  0  0
  5 26  1  0  0  0
  5 90  1  0  0  0
  6 25  1  0  0  0
  6 91  1  0  0  0
  6 92  1  0  0  0
  7  8  2  0  0  0
  7 26  1  0  0  0
  7 29  1  0  0  0
  8  9  1  0  0  0
  8 22  1  0  0  0
  9 10  1  0  0  0
  9 27  2  0  0  0
 10 11  2  0  0  0
 10 15  1  0  0  0
 11 12  1  0  0  0
 11 93  1  0  0  0
 12 13  2  0  0  0
 12 94  1  0  0  0
 13 14  1  0  0  0
 13 31  1  0  0  0
 14 15  2  0  0  0
 14 95  1  0  0  0
 15 96  1  0  0  0
 16 17  2  0  0  0
 16 21  1  0  0  0
 16 31  1  0  0  0
 17 18  1  0  0  0
 17 97  1  0  0  0
 18 19  2  0  0  0
 18 98  1  0  0  0
 19 20  1  0  0  0
 19 24  1  0  0  0
 20 21  2  0  0  0
 20 99  1  0  0  0
 21 23  1  0  0  0
 22 28  1  0  0  0
 22 32  2  0  0  0
 26 27  1  0  0  0
 28100  1  0  0  0
 28101  1  0  0  0
 29102  1  0  0  0
 29103  1  0  0  0
 33 34  1  0  0  0
 33 66  1  0  0  0
 33 70  2  0  0  0
 34 36  1  0  0  0
 34 59  1  0  0  0
 34104  1  0  0  0
 35 44  2  0  0  0
 35 45  1  0  0  0
 35 68  1  0  0  0
 36 56  1  0  0  0
 36105  1  0  0  0
 37 39  1  0  0  0
 37 47  1  0  0  0
 37 66  1  0  0  0
 37106  1  0  0  0
 38 43  2  0  0  0
 38 46  1  0  0  0
 38 47  1  0  0  0
 39 64  1  0  0  0
 39 67  2  0  0  0
 40 52  1  0  0  0
 40 53  2  0  0  0
 40 58  1  0  0  0
 41107  1  0  0  0
 41108  1  0  0  0
 41109  1  0  0  0
 41 48  1  0  0  0
 42 43  1  0  0  0
 42 66  1  0  0  0
 42110  1  0  0  0
 42111  1  0  0  0
 43 44  1  0  0  0
 44112  1  0  0  0
 45 46  2  0  0  0
 45113  1  0  0  0
 46114  1  0  0  0
 47115  1  0  0  0
 47116  1  0  0  0
 48 56  1  0  0  0
 48 65  1  0  0  0
 48117  1  0  0  0
 49 50  1  0  0  0
 49 53  1  0  0  0
 49 64  1  0  0  0
 49118  1  0  0  0
 50 51  1  0  0  0
 50119  1  0  0  0
 50120  1  0  0  0
 51 52  1  0  0  0
 51121  1  0  0  0
 51122  1  0  0  0
 52123  1  0  0  0
 52124  1  0  0  0
 53 54  1  0  0  0
 54 55  2  0  0  0
 54125  1  0  0  0
 55 57  1  0  0  0
 55126  1  0  0  0
 56 69  2  0  0  0
 57 58  2  0  0  0
 57127  1  0  0  0
 58128  1  0  0  0
 59 60  1  0  0  0
 59 61  1  0  0  0
 59 62  1  0  0  0
 60129  1  0  0  0
 60130  1  0  0  0
 60131  1  0  0  0
 61132  1  0  0  0
 61133  1  0  0  0
 61134  1  0  0  0
 62135  1  0  0  0
 62136  1  0  0  0
 62137  1  0  0  0
 63 65  1  0  0  0
 63138  1  0  0  0
 63139  1  0  0  0
 63140  1  0  0  0
 64141  1  0  0  0
 65142  1  0  0  0
 68 78  1  0  0  0
 71 73  2  0  0  0
 71 76  1  0  0  0
 71143  1  0  0  0
 72 74  1  0  0  0
 72 75  2  0  0  0
 72144  1  0  0  0
 73 75  1  0  0  0
 73 79  1  0  0  0
 74 76  2  0  0  0
 74 80  1  0  0  0
 75 82  1  0  0  0
 76 83  1  0  0  0
 77 78  1  0  0  0
 77 79  1  0  0  0
 77 81  2  0  0  0
 78145  1  0  0  0
 78146  1  0  0  0
 79147  1  0  0  0
 80148  1  0  0  0
M  ISO  4   1 100  68 101  78 101  80 100
M  END
> <chiral flag>
0

> <version>
0

> <s_m_source_file>
/data/baiqing/PycharmProjects/Reinvent-master-3.2/result/LINK_invent/BTK/process_docking_weight1_custom_sum_contain_oxygen_bond_distance_aromatic_linkinvent_7_9_3/rearranged_h_0011.sdf

> <i_m_source_file_index>
37

> <r_mmod_Potential_Energy-OPLS-2005>
375.099822998047

> <r_mmod_Stretch_Energy-OPLS-2005>
218.905670166016

> <r_mmod_Bend_Energy-OPLS-2005>
280.480804443359

> <r_mmod_Torsional_Energy-OPLS-2005>
222.252456665039

> <r_mmod_Improper_Torsional_Energy-OPLS-2005>
4.32098627090454

> <r_mmod_Van_der_Waal_Energy-OPLS-2005>
131.061950683594

> <r_mmod_Electrostatic_Energy-OPLS-2005>
-415.764801025391

> <r_mmod_Solvation_Energy-OPLS-2005>
-251.328079223633

> <b_mmod_Minimization_Converged-OPLS-2005>
0

> <r_mmod_RMS_Derivative-OPLS-2005>
1.27985036373138

$$$$
37
                    3D
 Structure written by MMmdl.
160168  0  0  1  0            999 V2000
  -30.4952  -15.0321   20.4188 C   0  0  0  0  0  0
  -30.4645  -12.6615   19.4834 C   0  0  0  0  0  0
  -29.5394  -12.5300   18.2535 C   0  0  0  0  0  0
  -28.0730  -12.3033   18.6790 C   0  0  0  0  0  0
  -27.6277  -13.2473   19.8270 C   0  0  2  0  0  0
  -28.6737  -13.3126   20.9565 C   0  0  0  0  0  0
  -25.2505  -13.8191   20.5769 C   0  0  0  0  0  0
  -24.1792  -13.0434   20.9234 C   0  0  0  0  0  0
  -24.6394  -11.6901   20.8756 C   0  0  0  0  0  0
  -23.9057  -10.4292   21.0422 C   0  0  0  0  0  0
  -24.3603   -9.4211   21.9204 C   0  0  0  0  0  0
  -23.6286   -8.2239   22.0759 C   0  0  0  0  0  0
  -22.4272   -8.0276   21.3536 C   0  0  0  0  0  0
  -21.9907   -9.0256   20.4648 C   0  0  0  0  0  0
  -22.7235  -10.2139   20.3067 C   0  0  0  0  0  0
  -21.6855   -6.0742   22.5276 C   0  0  0  0  0  0
  -21.4008   -6.5647   23.8208 C   0  0  0  0  0  0
  -21.3649   -5.6793   24.9165 C   0  0  0  0  0  0
  -21.6040   -4.3060   24.7221 C   0  0  0  0  0  0
  -21.8826   -3.8147   23.4343 C   0  0  0  0  0  0
  -21.9199   -4.6963   22.3398 C   0  0  0  0  0  0
  -22.7808  -13.5225   21.1866 C   0  0  0  0  0  0
  -22.1674   -4.2158   21.0977 F   0  0  0  0  0  0
  -21.5618   -3.4543   25.7732 F   0  0  0  0  0  0
  -29.9270  -13.7596   20.3361 N   0  0  0  0  0  0
  -26.2893  -12.9405   20.3209 N   0  0  0  0  0  0
  -25.9318  -11.6543   20.5699 N   0  0  0  0  0  0
  -22.0405  -12.8245   22.0397 N   0  0  0  0  0  0
  -25.4235  -15.1932   20.4273 N   0  0  0  0  0  0
  -31.7210  -15.0978   20.2715 O   0  0  0  0  0  0
  -21.6631   -6.8875   21.4227 O   0  0  0  0  0  0
  -22.3531  -14.5551   20.6705 O   0  0  0  0  0  0
  -24.6485  -31.8414   23.1800 C   0  0  0  0  0  0
  -25.9202  -32.4705   23.8240 C   0  0  1  0  0  0
  -27.2175  -27.0896   20.1673 C   0  0  0  0  0  0
  -25.5912  -33.8506   24.2173 N   0  0  0  0  0  0
  -23.4574  -30.4528   21.5299 C   0  0  2  0  0  0
  -24.9061  -28.8740   20.1131 C   0  0  0  0  0  0
  -22.7626  -29.4468   22.4843 C   0  0  0  0  0  0
  -18.0299  -28.1383   22.8496 C   0  0  0  0  0  0
  -24.1496  -36.7267   23.2652 C   0  0  0  0  0  0
  -26.0150  -30.7032   21.3851 C   0  0  0  0  0  0
  -26.0865  -29.3092   20.7290 C   0  0  0  0  0  0
  -27.2440  -28.4352   20.7326 C   0  0  0  0  0  0
  -26.0114  -26.7665   19.5092 C   0  0  0  0  0  0
  -24.8849  -27.6197   19.4848 C   0  0  0  0  0  0
  -23.6912  -29.7869   20.1493 C   0  0  0  0  0  0
  -25.4139  -36.3063   24.0322 C   0  0  1  0  0  0
  -20.5924  -28.3705   23.1249 C   0  0  2  0  0  0
  -20.6757  -26.9407   22.5409 C   0  0  0  0  0  0
  -19.5723  -26.6375   21.5218 C   0  0  0  0  0  0
  -18.1910  -26.7909   22.1648 C   0  0  0  0  0  0
  -19.1567  -28.8870   23.2855 C   0  0  0  0  0  0
  -18.9476  -30.1449   23.8888 C   0  0  0  0  0  0
  -17.6478  -30.6574   24.0568 C   0  0  0  0  0  0
  -25.9086  -34.9420   23.5086 C   0  0  0  0  0  0
  -16.5372  -29.9082   23.6322 C   0  0  0  0  0  0
  -16.7289  -28.6492   23.0361 C   0  0  0  0  0  0
  -26.4497  -31.6565   25.0692 C   0  0  0  0  0  0
  -25.3671  -31.3752   26.1391 C   0  0  0  0  0  0
  -27.0332  -30.2950   24.6254 C   0  0  0  0  0  0
  -27.6035  -32.4342   25.7465 C   0  0  0  0  0  0
  -27.5597  -37.1794   24.8481 C   0  0  0  0  0  0
  -21.4305  -29.3044   22.3657 N   0  0  0  0  0  0
  -26.4300  -37.3774   23.9440 N   0  0  0  0  0  0
  -24.7269  -31.0214   22.0873 N   0  0  0  0  0  0
  -23.4239  -28.8016   23.3018 O   0  0  0  0  0  0
  -28.2526  -26.0716   20.2488 O   0  0  0  0  0  0
  -26.5701  -34.8920   22.4677 O   0  0  0  0  0  0
  -23.5587  -32.1300   23.6995 O   0  0  0  0  0  0
  -30.0659  -17.9029   22.1255 C   0  0  0  0  0  0
  -29.2602  -18.9585   20.1032 C   0  0  0  0  0  0
  -29.7190  -17.6941   20.7763 C   0  0  0  0  0  0
  -29.9282  -19.1578   22.7891 C   0  0  0  0  0  0
  -29.1709  -20.3414   20.6991 C   0  0  0  0  0  0
  -29.5116  -20.3306   22.0830 C   0  0  0  0  0  0
  -29.0646  -19.7660   25.0021 C   0  0  0  0  0  0
  -31.0086  -18.2240   24.8136 C   0  0  0  0  0  0
  -28.4421  -21.4642   18.6389 C   0  0  0  0  0  0
  -28.9766  -23.1763   20.4529 C   0  0  0  0  0  0
  -27.9664  -24.5238   20.1009 C   0  0  0  0  0  0
  -29.6714  -16.2106   20.3120 N   0  0  0  0  0  0
  -30.1641  -19.2383   24.1884 N   0  0  0  0  0  0
  -28.7253  -21.6496   20.0603 N   0  0  0  0  0  0
  -29.4112  -21.4834   22.7879 F   0  0  0  0  0  0
  -31.4832  -12.8727   19.1494 H   0  0  0  0  0  0
  -30.5234  -11.7274   20.0440 H   0  0  0  0  0  0
  -29.8776  -11.7081   17.6213 H   0  0  0  0  0  0
  -29.6132  -13.4340   17.6472 H   0  0  0  0  0  0
  -27.9948  -11.2680   19.0110 H   0  0  0  0  0  0
  -27.4087  -12.4091   17.8197 H   0  0  0  0  0  0
  -27.5744  -14.2403   19.3784 H   0  0  0  0  0  0
  -28.7946  -12.3455   21.4477 H   0  0  0  0  0  0
  -28.3609  -14.0222   21.7251 H   0  0  0  0  0  0
  -25.2753   -9.5699   22.4794 H   0  0  0  0  0  0
  -24.0002   -7.4636   22.7485 H   0  0  0  0  0  0
  -21.0837   -8.8765   19.8967 H   0  0  0  0  0  0
  -22.3686  -10.9673   19.6179 H   0  0  0  0  0  0
  -21.1991   -7.6157   23.9709 H   0  0  0  0  0  0
  -21.1462   -6.0528   25.9074 H   0  0  0  0  0  0
  -22.0617   -2.7615   23.2835 H   0  0  0  0  0  0
  -22.3981  -11.9949   22.4886 H   0  0  0  0  0  0
  -21.1001  -13.1283   22.2477 H   0  0  0  0  0  0
  -24.6690  -15.8554   20.5727 H   0  0  0  0  0  0
  -26.2743  -15.6356   20.1123 H   0  0  0  0  0  0
  -26.7280  -32.5310   23.0984 H   0  0  0  0  0  0
  -24.9972  -33.9611   25.0270 H   0  0  0  0  0  0
  -22.7620  -31.2783   21.3688 H   0  0  0  0  0  0
  -23.3775  -35.9580   23.3309 H   0  0  0  0  0  0
  -24.3602  -36.8904   22.2069 H   0  0  0  0  0  0
  -23.7199  -37.6442   23.6685 H   0  0  0  0  0  0
  -26.1770  -31.4586   20.6153 H   0  0  0  0  0  0
  -26.8821  -30.7538   22.0312 H   0  0  0  0  0  0
  -28.1450  -28.7676   21.2282 H   0  0  0  0  0  0
  -25.9092  -25.8047   19.0294 H   0  0  0  0  0  0
  -23.9867  -27.2779   18.9899 H   0  0  0  0  0  0
  -23.8570  -30.5641   19.4017 H   0  0  0  0  0  0
  -22.8082  -29.2423   19.8162 H   0  0  0  0  0  0
  -25.1315  -36.1895   25.0801 H   0  0  0  0  0  0
  -20.9983  -28.3241   24.1386 H   0  0  0  0  0  0
  -20.5604  -26.2335   23.3631 H   0  0  0  0  0  0
  -21.6623  -26.7355   22.1253 H   0  0  0  0  0  0
  -19.6880  -25.6280   21.1260 H   0  0  0  0  0  0
  -19.6640  -27.3184   20.6735 H   0  0  0  0  0  0
  -17.4183  -26.6686   21.4040 H   0  0  0  0  0  0
  -18.0285  -26.0027   22.9020 H   0  0  0  0  0  0
  -19.7957  -30.7250   24.2273 H   0  0  0  0  0  0
  -17.5039  -31.6244   24.5184 H   0  0  0  0  0  0
  -15.5376  -30.3010   23.7594 H   0  0  0  0  0  0
  -15.8684  -28.0795   22.7112 H   0  0  0  0  0  0
  -24.5879  -30.7066   25.7715 H   0  0  0  0  0  0
  -24.8818  -32.2917   26.4739 H   0  0  0  0  0  0
  -25.7943  -30.8986   27.0220 H   0  0  0  0  0  0
  -26.2894  -29.6711   24.1276 H   0  0  0  0  0  0
  -27.3963  -29.7210   25.4788 H   0  0  0  0  0  0
  -27.8815  -30.4214   23.9533 H   0  0  0  0  0  0
  -27.2620  -33.3687   26.1935 H   0  0  0  0  0  0
  -28.3840  -32.6831   25.0262 H   0  0  0  0  0  0
  -28.0679  -31.8530   26.5446 H   0  0  0  0  0  0
  -28.2608  -38.0097   24.7542 H   0  0  0  0  0  0
  -28.1083  -36.2626   24.6271 H   0  0  0  0  0  0
  -27.2332  -37.1393   25.8885 H   0  0  0  0  0  0
  -20.9513  -29.8916   21.6984 H   0  0  0  0  0  0
  -26.0181  -38.2858   24.1408 H   0  0  0  0  0  0
  -30.3672  -17.0331   22.6871 H   0  0  0  0  0  0
  -28.9583  -18.8502   19.0732 H   0  0  0  0  0  0
  -28.0975  -19.6330   24.5182 H   0  0  0  0  0  0
  -29.1930  -20.8318   25.1958 H   0  0  0  0  0  0
  -28.9976  -19.2668   25.9740 H   0  0  0  0  0  0
  -31.8828  -18.0030   24.1966 H   0  0  0  0  0  0
  -30.4467  -17.2995   24.9605 H   0  0  0  0  0  0
  -31.3555  -18.5528   25.7958 H   0  0  0  0  0  0
  -29.2695  -20.9650   18.1322 H   0  0  0  0  0  0
  -28.2829  -22.4125   18.1255 H   0  0  0  0  0  0
  -27.5431  -20.8649   18.4932 H   0  0  0  0  0  0
  -29.1885  -23.2383   21.5173 H   0  0  0  0  0  0
  -29.9322  -23.4107   19.9836 H   0  0  0  0  0  0
  -27.0645  -24.3606   20.6907 H   0  0  0  0  0  0
  -27.6455  -24.3977   19.0678 H   0  0  0  0  0  0
  -28.7501  -15.9458   20.0021 H   0  0  0  0  0  0
  1 25  1  0  0  0
  1 30  2  0  0  0
  1 82  1  0  0  0
  2  3  1  0  0  0
  2 25  1  0  0  0
  2 86  1  0  0  0
  2 87  1  0  0  0
  3  4  1  0  0  0
  3 88  1  0  0  0
  3 89  1  0  0  0
  4  5  1  0  0  0
  4 90  1  0  0  0
  4 91  1  0  0  0
  5  6  1  0  0  0
  5 26  1  0  0  0
  5 92  1  0  0  0
  6 25  1  0  0  0
  6 93  1  0  0  0
  6 94  1  0  0  0
  7  8  2  0  0  0
  7 26  1  0  0  0
  7 29  1  0  0  0
  8  9  1  0  0  0
  8 22  1  0  0  0
  9 10  1  0  0  0
  9 27  2  0  0  0
 10 11  2  0  0  0
 10 15  1  0  0  0
 11 12  1  0  0  0
 11 95  1  0  0  0
 12 13  2  0  0  0
 12 96  1  0  0  0
 13 14  1  0  0  0
 13 31  1  0  0  0
 14 15  2  0  0  0
 14 97  1  0  0  0
 15 98  1  0  0  0
 16 17  2  0  0  0
 16 21  1  0  0  0
 16 31  1  0  0  0
 17 18  1  0  0  0
 17 99  1  0  0  0
 18 19  2  0  0  0
 18100  1  0  0  0
 19 20  1  0  0  0
 19 24  1  0  0  0
 20 21  2  0  0  0
 20101  1  0  0  0
 21 23  1  0  0  0
 22 28  1  0  0  0
 22 32  2  0  0  0
 26 27  1  0  0  0
 28102  1  0  0  0
 28103  1  0  0  0
 29104  1  0  0  0
 29105  1  0  0  0
 33 34  1  0  0  0
 33 66  1  0  0  0
 33 70  2  0  0  0
 34 36  1  0  0  0
 34 59  1  0  0  0
 34106  1  0  0  0
 35 44  2  0  0  0
 35 45  1  0  0  0
 35 68  1  0  0  0
 36 56  1  0  0  0
 36107  1  0  0  0
 37 39  1  0  0  0
 37 47  1  0  0  0
 37 66  1  0  0  0
 37108  1  0  0  0
 38 43  2  0  0  0
 38 46  1  0  0  0
 38 47  1  0  0  0
 39 64  1  0  0  0
 39 67  2  0  0  0
 40 52  1  0  0  0
 40 53  2  0  0  0
 40 58  1  0  0  0
 41109  1  0  0  0
 41110  1  0  0  0
 41111  1  0  0  0
 41 48  1  0  0  0
 42 43  1  0  0  0
 42 66  1  0  0  0
 42112  1  0  0  0
 42113  1  0  0  0
 43 44  1  0  0  0
 44114  1  0  0  0
 45 46  2  0  0  0
 45115  1  0  0  0
 46116  1  0  0  0
 47117  1  0  0  0
 47118  1  0  0  0
 48 56  1  0  0  0
 48 65  1  0  0  0
 48119  1  0  0  0
 49 50  1  0  0  0
 49 53  1  0  0  0
 49 64  1  0  0  0
 49120  1  0  0  0
 50 51  1  0  0  0
 50121  1  0  0  0
 50122  1  0  0  0
 51 52  1  0  0  0
 51123  1  0  0  0
 51124  1  0  0  0
 52125  1  0  0  0
 52126  1  0  0  0
 53 54  1  0  0  0
 54 55  2  0  0  0
 54127  1  0  0  0
 55 57  1  0  0  0
 55128  1  0  0  0
 56 69  2  0  0  0
 57 58  2  0  0  0
 57129  1  0  0  0
 58130  1  0  0  0
 59 60  1  0  0  0
 59 61  1  0  0  0
 59 62  1  0  0  0
 60131  1  0  0  0
 60132  1  0  0  0
 60133  1  0  0  0
 61134  1  0  0  0
 61135  1  0  0  0
 61136  1  0  0  0
 62137  1  0  0  0
 62138  1  0  0  0
 62139  1  0  0  0
 63 65  1  0  0  0
 63140  1  0  0  0
 63141  1  0  0  0
 63142  1  0  0  0
 64143  1  0  0  0
 65144  1  0  0  0
 68 81  1  0  0  0
 71 73  2  0  0  0
 71 74  1  0  0  0
 71145  1  0  0  0
 72 73  1  0  0  0
 72 75  2  0  0  0
 72146  1  0  0  0
 73 82  1  0  0  0
 74 76  2  0  0  0
 74 83  1  0  0  0
 75 76  1  0  0  0
 75 84  1  0  0  0
 76 85  1  0  0  0
 77 83  1  0  0  0
 77147  1  0  0  0
 77148  1  0  0  0
 77149  1  0  0  0
 78 83  1  0  0  0
 78150  1  0  0  0
 78151  1  0  0  0
 78152  1  0  0  0
 79 84  1  0  0  0
 79153  1  0  0  0
 79154  1  0  0  0
 79155  1  0  0  0
 80 81  1  0  0  0
 80 84  1  0  0  0
 80156  1  0  0  0
 80157  1  0  0  0
 81158  1  0  0  0
 81159  1  0  0  0
 82160  1  0  0  0
M  ISO  4   1 100  68 101  81 101  82 100
M  END
> <chiral flag>
0

> <version>
0

> <s_m_source_file>
/data/baiqing/PycharmProjects/Reinvent-master-3.2/result/LINK_invent/BTK/process_docking_weight1_custom_sum_contain_oxygen_bond_distance_aromatic_linkinvent_7_9_3/rearranged_h_0011.sdf

> <i_m_source_file_index>
38

> <r_mmod_Potential_Energy-OPLS-2005>
842.419555664062

> <r_mmod_Stretch_Energy-OPLS-2005>
327.592254638672

> <r_mmod_Bend_Energy-OPLS-2005>
295.306121826172

> <r_mmod_Torsional_Energy-OPLS-2005>
234.380599975586

> <r_mmod_Improper_Torsional_Energy-OPLS-2005>
14.7429237365723

> <r_mmod_Van_der_Waal_Energy-OPLS-2005>
144.852554321289

> <r_mmod_Electrostatic_Energy-OPLS-2005>
-173.491546630859

> <r_mmod_Solvation_Energy-OPLS-2005>
-256.683654785156

> <b_mmod_Minimization_Converged-OPLS-2005>
0

> <r_mmod_RMS_Derivative-OPLS-2005>
4.56792449951172

$$$$
38
                    3D
 Structure written by MMmdl.
151159  0  0  1  0            999 V2000
  -30.5160  -15.0517   20.4055 C   0  0  0  0  0  0
  -30.4391  -12.6619   19.4997 C   0  0  0  0  0  0
  -29.5200  -12.5259   18.2630 C   0  0  0  0  0  0
  -28.0641  -12.2829   18.6967 C   0  0  0  0  0  0
  -27.6196  -13.2500   19.8238 C   0  0  2  0  0  0
  -28.6601  -13.3463   20.9599 C   0  0  0  0  0  0
  -25.2433  -13.8209   20.5684 C   0  0  0  0  0  0
  -24.1767  -13.0443   20.9245 C   0  0  0  0  0  0
  -24.6380  -11.6923   20.8772 C   0  0  0  0  0  0
  -23.9075  -10.4292   21.0424 C   0  0  0  0  0  0
  -24.3618   -9.4204   21.9202 C   0  0  0  0  0  0
  -23.6289   -8.2238   22.0764 C   0  0  0  0  0  0
  -22.4278   -8.0272   21.3539 C   0  0  0  0  0  0
  -21.9921   -9.0252   20.4638 C   0  0  0  0  0  0
  -22.7257  -10.2135   20.3056 C   0  0  0  0  0  0
  -21.6849   -6.0740   22.5279 C   0  0  0  0  0  0
  -21.4011   -6.5640   23.8216 C   0  0  0  0  0  0
  -21.3655   -5.6792   24.9172 C   0  0  0  0  0  0
  -21.6046   -4.3056   24.7226 C   0  0  0  0  0  0
  -21.8815   -3.8149   23.4345 C   0  0  0  0  0  0
  -21.9192   -4.6967   22.3399 C   0  0  0  0  0  0
  -22.7786  -13.5206   21.1901 C   0  0  0  0  0  0
  -22.1661   -4.2149   21.0980 F   0  0  0  0  0  0
  -21.5628   -3.4538   25.7740 F   0  0  0  0  0  0
  -29.9210  -13.7828   20.3456 N   0  0  0  0  0  0
  -26.2839  -12.9429   20.3201 N   0  0  0  0  0  0
  -25.9304  -11.6566   20.5739 N   0  0  0  0  0  0
  -22.0423  -12.8186   22.0429 N   0  0  0  0  0  0
  -25.4082  -15.1932   20.4046 N   0  0  0  0  0  0
  -31.7331  -15.0721   20.1842 O   0  0  0  0  0  0
  -21.6637   -6.8880   21.4238 O   0  0  0  0  0  0
  -22.3480  -14.5513   20.6741 O   0  0  0  0  0  0
  -24.6490  -31.8384   23.1792 C   0  0  0  0  0  0
  -25.9238  -32.4678   23.8207 C   0  0  1  0  0  0
  -27.2203  -27.0669   20.1704 C   0  0  0  0  0  0
  -25.5958  -33.8474   24.2142 N   0  0  0  0  0  0
  -23.4575  -30.4531   21.5263 C   0  0  2  0  0  0
  -24.9093  -28.8673   20.1101 C   0  0  0  0  0  0
  -22.7601  -29.4503   22.4804 C   0  0  0  0  0  0
  -18.0309  -28.1399   22.8469 C   0  0  0  0  0  0
  -24.1486  -36.7255   23.2645 C   0  0  0  0  0  0
  -26.0146  -30.6950   21.3804 C   0  0  0  0  0  0
  -26.0892  -29.2934   20.7339 C   0  0  0  0  0  0
  -27.2446  -28.4123   20.7448 C   0  0  0  0  0  0
  -26.0140  -26.7631   19.4990 C   0  0  0  0  0  0
  -24.8889  -27.6182   19.4743 C   0  0  0  0  0  0
  -23.6903  -29.7802   20.1474 C   0  0  0  0  0  0
  -25.4111  -36.3027   24.0315 C   0  0  1  0  0  0
  -20.5927  -28.3736   23.1205 C   0  0  2  0  0  0
  -20.6790  -26.9429   22.5385 C   0  0  0  0  0  0
  -19.5763  -26.6404   21.5195 C   0  0  0  0  0  0
  -18.1947  -26.7944   22.1608 C   0  0  0  0  0  0
  -19.1564  -28.8880   23.2838 C   0  0  0  0  0  0
  -18.9487  -30.1465   23.8883 C   0  0  0  0  0  0
  -17.6490  -30.6603   24.0559 C   0  0  0  0  0  0
  -25.9075  -34.9406   23.5050 C   0  0  0  0  0  0
  -16.5381  -29.9098   23.6330 C   0  0  0  0  0  0
  -16.7294  -28.6513   23.0352 C   0  0  0  0  0  0
  -26.4547  -31.6539   25.0651 C   0  0  0  0  0  0
  -25.3715  -31.3698   26.1329 C   0  0  0  0  0  0
  -27.0420  -30.2953   24.6192 C   0  0  0  0  0  0
  -27.6074  -32.4285   25.7452 C   0  0  0  0  0  0
  -27.5561  -37.1784   24.8469 C   0  0  0  0  0  0
  -21.4282  -29.3076   22.3580 N   0  0  0  0  0  0
  -26.4273  -37.3741   23.9419 N   0  0  0  0  0  0
  -24.7280  -31.0182   22.0852 N   0  0  0  0  0  0
  -23.4221  -28.8033   23.2960 O   0  0  0  0  0  0
  -28.2484  -26.0319   20.2504 O   0  0  0  0  0  0
  -26.5676  -34.8925   22.4646 O   0  0  0  0  0  0
  -23.5595  -32.1264   23.6998 O   0  0  0  0  0  0
  -30.9685  -20.6061   20.7687 C   0  0  0  0  0  0
  -31.3999  -18.1592   20.8222 C   0  0  0  0  0  0
  -29.1859  -19.0226   20.3662 C   0  0  0  0  0  0
  -31.8393  -19.4997   20.9489 C   0  0  0  0  0  0
  -29.5906  -20.4761   20.4692 C   0  0  0  0  0  0
  -30.0671  -17.8047   20.5291 C   0  0  0  0  0  0
  -29.0079  -23.2185   20.3913 C   0  0  0  0  0  0
  -27.9136  -24.4792   20.1427 C   0  0  0  0  0  0
  -33.3083  -19.7311   21.2837 C   0  0  0  0  0  0
  -28.7467  -21.7924   20.3012 N   0  0  0  0  0  0
  -29.7419  -16.2736   20.4706 N   0  0  0  0  0  0
  -30.1449  -23.5914   20.6868 O   0  0  0  0  0  0
  -33.5661  -21.0014   21.6009 F   0  0  0  0  0  0
  -33.6679  -18.9689   22.3180 F   0  0  0  0  0  0
  -34.0602  -19.3981   20.2342 F   0  0  0  0  0  0
  -31.4640  -12.8395   19.1713 H   0  0  0  0  0  0
  -30.4666  -11.7322   20.0696 H   0  0  0  0  0  0
  -29.8621  -11.7106   17.6247 H   0  0  0  0  0  0
  -29.5758  -13.4326   17.6595 H   0  0  0  0  0  0
  -28.0018  -11.2549   19.0569 H   0  0  0  0  0  0
  -27.3907  -12.3459   17.8414 H   0  0  0  0  0  0
  -27.5620  -14.2315   19.3519 H   0  0  0  0  0  0
  -28.7759  -12.3911   21.4737 H   0  0  0  0  0  0
  -28.3371  -14.0702   21.7098 H   0  0  0  0  0  0
  -25.2754   -9.5687   22.4795 H   0  0  0  0  0  0
  -23.9991   -7.4633   22.7490 H   0  0  0  0  0  0
  -21.0859   -8.8772   19.8936 H   0  0  0  0  0  0
  -22.3716  -10.9673   19.6160 H   0  0  0  0  0  0
  -21.1995   -7.6147   23.9715 H   0  0  0  0  0  0
  -21.1480   -6.0525   25.9082 H   0  0  0  0  0  0
  -22.0595   -2.7609   23.2847 H   0  0  0  0  0  0
  -22.4035  -11.9837   22.4797 H   0  0  0  0  0  0
  -21.1029  -13.1201   22.2610 H   0  0  0  0  0  0
  -24.6284  -15.8361   20.4864 H   0  0  0  0  0  0
  -26.2341  -15.6244   20.0121 H   0  0  0  0  0  0
  -26.7299  -32.5280   23.0916 H   0  0  0  0  0  0
  -25.0046  -33.9552   25.0255 H   0  0  0  0  0  0
  -22.7635  -31.2798   21.3662 H   0  0  0  0  0  0
  -23.3764  -35.9574   23.3288 H   0  0  0  0  0  0
  -24.3563  -36.8921   22.2069 H   0  0  0  0  0  0
  -23.7217  -37.6425   23.6712 H   0  0  0  0  0  0
  -26.1574  -31.4385   20.5956 H   0  0  0  0  0  0
  -26.8902  -30.7695   22.0136 H   0  0  0  0  0  0
  -28.1399  -28.7343   21.2605 H   0  0  0  0  0  0
  -25.9025  -25.8113   19.0044 H   0  0  0  0  0  0
  -23.9922  -27.2873   18.9694 H   0  0  0  0  0  0
  -23.8348  -30.5536   19.3922 H   0  0  0  0  0  0
  -22.8040  -29.2277   19.8336 H   0  0  0  0  0  0
  -25.1293  -36.1850   25.0804 H   0  0  0  0  0  0
  -21.0018  -28.3354   24.1340 H   0  0  0  0  0  0
  -20.5685  -26.2348   23.3600 H   0  0  0  0  0  0
  -21.6650  -26.7428   22.1172 H   0  0  0  0  0  0
  -19.6926  -25.6309   21.1219 H   0  0  0  0  0  0
  -19.6711  -27.3216   20.6719 H   0  0  0  0  0  0
  -17.4203  -26.6686   21.4029 H   0  0  0  0  0  0
  -18.0351  -26.0077   22.8999 H   0  0  0  0  0  0
  -19.7963  -30.7255   24.2280 H   0  0  0  0  0  0
  -17.5055  -31.6281   24.5165 H   0  0  0  0  0  0
  -15.5375  -30.3014   23.7658 H   0  0  0  0  0  0
  -15.8688  -28.0837   22.7091 H   0  0  0  0  0  0
  -24.5960  -30.6976   25.7623 H   0  0  0  0  0  0
  -24.8807  -32.2851   26.4641 H   0  0  0  0  0  0
  -25.7986  -30.8943   27.0171 H   0  0  0  0  0  0
  -26.3022  -29.6650   24.1233 H   0  0  0  0  0  0
  -27.4122  -29.7253   25.4720 H   0  0  0  0  0  0
  -27.8892  -30.4220   23.9444 H   0  0  0  0  0  0
  -27.2734  -33.3697   26.1824 H   0  0  0  0  0  0
  -28.4006  -32.6633   25.0344 H   0  0  0  0  0  0
  -28.0593  -31.8498   26.5515 H   0  0  0  0  0  0
  -28.2546  -38.0110   24.7527 H   0  0  0  0  0  0
  -28.1089  -36.2630   24.6290 H   0  0  0  0  0  0
  -27.2280  -37.1413   25.8871 H   0  0  0  0  0  0
  -20.9492  -29.8828   21.6789 H   0  0  0  0  0  0
  -26.0145  -38.2812   24.1444 H   0  0  0  0  0  0
  -31.4020  -21.5866   20.8784 H   0  0  0  0  0  0
  -32.1396  -17.3902   20.9813 H   0  0  0  0  0  0
  -28.1462  -18.8319   20.1457 H   0  0  0  0  0  0
  -27.0948  -24.2947   20.8392 H   0  0  0  0  0  0
  -27.4986  -24.3072   19.1503 H   0  0  0  0  0  0
  -27.7770  -21.6182   20.0726 H   0  0  0  0  0  0
  -28.7528  -16.0744   20.4858 H   0  0  0  0  0  0
  1 25  1  0  0  0
  1 30  2  0  0  0
  1 81  1  0  0  0
  2  3  1  0  0  0
  2 25  1  0  0  0
  2 86  1  0  0  0
  2 87  1  0  0  0
  3  4  1  0  0  0
  3 88  1  0  0  0
  3 89  1  0  0  0
  4  5  1  0  0  0
  4 90  1  0  0  0
  4 91  1  0  0  0
  5  6  1  0  0  0
  5 26  1  0  0  0
  5 92  1  0  0  0
  6 25  1  0  0  0
  6 93  1  0  0  0
  6 94  1  0  0  0
  7  8  2  0  0  0
  7 26  1  0  0  0
  7 29  1  0  0  0
  8  9  1  0  0  0
  8 22  1  0  0  0
  9 10  1  0  0  0
  9 27  2  0  0  0
 10 11  2  0  0  0
 10 15  1  0  0  0
 11 12  1  0  0  0
 11 95  1  0  0  0
 12 13  2  0  0  0
 12 96  1  0  0  0
 13 14  1  0  0  0
 13 31  1  0  0  0
 14 15  2  0  0  0
 14 97  1  0  0  0
 15 98  1  0  0  0
 16 17  2  0  0  0
 16 21  1  0  0  0
 16 31  1  0  0  0
 17 18  1  0  0  0
 17 99  1  0  0  0
 18 19  2  0  0  0
 18100  1  0  0  0
 19 20  1  0  0  0
 19 24  1  0  0  0
 20 21  2  0  0  0
 20101  1  0  0  0
 21 23  1  0  0  0
 22 28  1  0  0  0
 22 32  2  0  0  0
 26 27  1  0  0  0
 28102  1  0  0  0
 28103  1  0  0  0
 29104  1  0  0  0
 29105  1  0  0  0
 33 34  1  0  0  0
 33 66  1  0  0  0
 33 70  2  0  0  0
 34 36  1  0  0  0
 34 59  1  0  0  0
 34106  1  0  0  0
 35 44  2  0  0  0
 35 45  1  0  0  0
 35 68  1  0  0  0
 36 56  1  0  0  0
 36107  1  0  0  0
 37 39  1  0  0  0
 37 47  1  0  0  0
 37 66  1  0  0  0
 37108  1  0  0  0
 38 43  2  0  0  0
 38 46  1  0  0  0
 38 47  1  0  0  0
 39 64  1  0  0  0
 39 67  2  0  0  0
 40 52  1  0  0  0
 40 53  2  0  0  0
 40 58  1  0  0  0
 41109  1  0  0  0
 41110  1  0  0  0
 41111  1  0  0  0
 41 48  1  0  0  0
 42 43  1  0  0  0
 42 66  1  0  0  0
 42112  1  0  0  0
 42113  1  0  0  0
 43 44  1  0  0  0
 44114  1  0  0  0
 45 46  2  0  0  0
 45115  1  0  0  0
 46116  1  0  0  0
 47117  1  0  0  0
 47118  1  0  0  0
 48 56  1  0  0  0
 48 65  1  0  0  0
 48119  1  0  0  0
 49 50  1  0  0  0
 49 53  1  0  0  0
 49 64  1  0  0  0
 49120  1  0  0  0
 50 51  1  0  0  0
 50121  1  0  0  0
 50122  1  0  0  0
 51 52  1  0  0  0
 51123  1  0  0  0
 51124  1  0  0  0
 52125  1  0  0  0
 52126  1  0  0  0
 53 54  1  0  0  0
 54 55  2  0  0  0
 54127  1  0  0  0
 55 57  1  0  0  0
 55128  1  0  0  0
 56 69  2  0  0  0
 57 58  2  0  0  0
 57129  1  0  0  0
 58130  1  0  0  0
 59 60  1  0  0  0
 59 61  1  0  0  0
 59 62  1  0  0  0
 60131  1  0  0  0
 60132  1  0  0  0
 60133  1  0  0  0
 61134  1  0  0  0
 61135  1  0  0  0
 61136  1  0  0  0
 62137  1  0  0  0
 62138  1  0  0  0
 62139  1  0  0  0
 63 65  1  0  0  0
 63140  1  0  0  0
 63141  1  0  0  0
 63142  1  0  0  0
 64143  1  0  0  0
 65144  1  0  0  0
 68 78  1  0  0  0
 71 74  2  0  0  0
 71 75  1  0  0  0
 71145  1  0  0  0
 72 74  1  0  0  0
 72 76  2  0  0  0
 72146  1  0  0  0
 73 75  2  0  0  0
 73 76  1  0  0  0
 73147  1  0  0  0
 74 79  1  0  0  0
 75 80  1  0  0  0
 76 81  1  0  0  0
 77 78  1  0  0  0
 77 80  1  0  0  0
 77 82  2  0  0  0
 78148  1  0  0  0
 78149  1  0  0  0
 79 83  1  0  0  0
 79 84  1  0  0  0
 79 85  1  0  0  0
 80150  1  0  0  0
 81151  1  0  0  0
M  ISO  4   1 100  68 101  78 101  81 100
M  END
> <chiral flag>
0

> <version>
0

> <s_m_source_file>
/data/baiqing/PycharmProjects/Reinvent-master-3.2/result/LINK_invent/BTK/process_docking_weight1_custom_sum_contain_oxygen_bond_distance_aromatic_linkinvent_7_9_3/rearranged_h_0011.sdf

> <i_m_source_file_index>
39

> <r_mmod_Potential_Energy-OPLS-2005>
650.012390136719

> <r_mmod_Stretch_Energy-OPLS-2005>
345.354370117188

> <r_mmod_Bend_Energy-OPLS-2005>
271.144104003906

> <r_mmod_Torsional_Energy-OPLS-2005>
220.201370239258

> <r_mmod_Improper_Torsional_Energy-OPLS-2005>
5.48326110839844

> <r_mmod_Van_der_Waal_Energy-OPLS-2005>
136.876434326172

> <r_mmod_Electrostatic_Energy-OPLS-2005>
-349.512634277344

> <r_mmod_Solvation_Energy-OPLS-2005>
-248.878784179688

> <b_mmod_Minimization_Converged-OPLS-2005>
0

> <r_mmod_RMS_Derivative-OPLS-2005>
2.54411911964417

$$$$
39
                    3D
 Structure written by MMmdl.
156164  0  0  1  0            999 V2000
  -30.6644  -14.5197   20.5508 C   0  0  0  0  0  0
  -30.4372  -12.3315   19.4208 C   0  0  0  0  0  0
  -29.4988  -12.5009   18.2064 C   0  0  0  0  0  0
  -28.0213  -12.3472   18.6218 C   0  0  0  0  0  0
  -27.6609  -13.1898   19.8729 C   0  0  2  0  0  0
  -28.7075  -12.9870   20.9917 C   0  0  0  0  0  0
  -25.2601  -13.8101   20.5688 C   0  0  0  0  0  0
  -24.1839  -13.0405   20.9188 C   0  0  0  0  0  0
  -24.6377  -11.6869   20.8746 C   0  0  0  0  0  0
  -23.9034  -10.4273   21.0412 C   0  0  0  0  0  0
  -24.3596   -9.4192   21.9188 C   0  0  0  0  0  0
  -23.6275   -8.2228   22.0755 C   0  0  0  0  0  0
  -22.4258   -8.0271   21.3542 C   0  0  0  0  0  0
  -21.9885   -9.0244   20.4647 C   0  0  0  0  0  0
  -22.7210  -10.2125   20.3061 C   0  0  0  0  0  0
  -21.6845   -6.0727   22.5278 C   0  0  0  0  0  0
  -21.4010   -6.5635   23.8210 C   0  0  0  0  0  0
  -21.3655   -5.6787   24.9173 C   0  0  0  0  0  0
  -21.6043   -4.3051   24.7226 C   0  0  0  0  0  0
  -21.8823   -3.8141   23.4346 C   0  0  0  0  0  0
  -21.9192   -4.6955   22.3401 C   0  0  0  0  0  0
  -22.7868  -13.5233   21.1844 C   0  0  0  0  0  0
  -22.1661   -4.2142   21.0977 F   0  0  0  0  0  0
  -21.5627   -3.4535   25.7738 F   0  0  0  0  0  0
  -30.0328  -13.3163   20.4357 N   0  0  0  0  0  0
  -26.3018  -12.9238   20.3356 N   0  0  0  0  0  0
  -25.9298  -11.6420   20.5774 N   0  0  0  0  0  0
  -22.0495  -12.8247   22.0405 N   0  0  0  0  0  0
  -25.4306  -15.1810   20.4119 N   0  0  0  0  0  0
  -31.8053  -14.7218   20.1249 O   0  0  0  0  0  0
  -21.6627   -6.8868   21.4239 O   0  0  0  0  0  0
  -22.3562  -14.5536   20.6681 O   0  0  0  0  0  0
  -24.6184  -31.8668   23.2090 C   0  0  0  0  0  0
  -25.9065  -32.4816   23.8393 C   0  0  1  0  0  0
  -27.2315  -27.4028   20.1019 C   0  0  0  0  0  0
  -25.5910  -33.8613   24.2321 N   0  0  0  0  0  0
  -23.4076  -30.4916   21.5503 C   0  0  2  0  0  0
  -24.8537  -28.9566   20.1156 C   0  0  0  0  0  0
  -22.7431  -29.4658   22.4974 C   0  0  0  0  0  0
  -18.0280  -28.1381   22.8493 C   0  0  0  0  0  0
  -24.1484  -36.7314   23.2636 C   0  0  0  0  0  0
  -25.9411  -30.8229   21.3679 C   0  0  0  0  0  0
  -26.0179  -29.4560   20.7135 C   0  0  0  0  0  0
  -27.2106  -28.6889   20.6999 C   0  0  0  0  0  0
  -26.0480  -26.9367   19.4830 C   0  0  0  0  0  0
  -24.8658  -27.6977   19.4956 C   0  0  0  0  0  0
  -23.6180  -29.8272   20.1647 C   0  0  0  0  0  0
  -25.4104  -36.3107   24.0336 C   0  0  1  0  0  0
  -20.5874  -28.3674   23.1307 C   0  0  2  0  0  0
  -20.6772  -26.9407   22.5414 C   0  0  0  0  0  0
  -19.5746  -26.6385   21.5214 C   0  0  0  0  0  0
  -18.1926  -26.7926   22.1628 C   0  0  0  0  0  0
  -19.1529  -28.8843   23.2899 C   0  0  0  0  0  0
  -18.9457  -30.1445   23.8916 C   0  0  0  0  0  0
  -17.6459  -30.6585   24.0568 C   0  0  0  0  0  0
  -25.9037  -34.9472   23.5125 C   0  0  0  0  0  0
  -16.5350  -29.9089   23.6324 C   0  0  0  0  0  0
  -16.7269  -28.6504   23.0350 C   0  0  0  0  0  0
  -26.4477  -31.6601   25.0731 C   0  0  0  0  0  0
  -25.3736  -31.3734   26.1480 C   0  0  0  0  0  0
  -27.0298  -30.3032   24.6129 C   0  0  0  0  0  0
  -27.6056  -32.4320   25.7488 C   0  0  0  0  0  0
  -27.5580  -37.1809   24.8462 C   0  0  0  0  0  0
  -21.4156  -29.3038   22.3710 N   0  0  0  0  0  0
  -26.4289  -37.3793   23.9412 N   0  0  0  0  0  0
  -24.6742  -31.0748   22.1005 N   0  0  0  0  0  0
  -23.4188  -28.8198   23.3027 O   0  0  0  0  0  0
  -28.3841  -26.6293   20.1152 O   0  0  0  0  0  0
  -26.5599  -34.8928   22.4687 O   0  0  0  0  0  0
  -23.5368  -32.1428   23.7468 O   0  0  0  0  0  0
  -29.1478  -19.0683   20.0447 C   0  0  0  0  0  0
  -31.0034  -17.6630   21.6144 C   0  0  0  0  0  0
  -30.0794  -19.8073   20.8086 C   0  0  0  0  0  0
  -30.0455  -16.9302   20.8744 C   0  0  0  0  0  0
  -31.0193  -19.0812   21.5838 C   0  0  0  0  0  0
  -29.1289  -17.6564   20.0728 C   0  0  0  0  0  0
  -29.4363  -23.1823   19.3591 C   0  0  0  0  0  0
  -29.0924  -23.6279   17.9515 C   0  0  0  0  0  0
  -30.0301  -21.3513   20.8423 C   0  0  0  0  0  0
  -29.4999  -24.3503   20.3712 C   0  0  0  0  0  0
  -28.2065  -25.2246   20.4392 C   0  0  0  0  0  0
  -29.6487  -21.9281   19.5524 N   0  0  0  0  0  0
  -29.8894  -15.5119   21.0351 N   0  0  0  0  0  0
  -31.9289  -19.7445   22.3370 F   0  0  0  0  0  0
  -27.9514  -16.8411   19.1115 Cl  0  0  0  0  0  0
  -31.4779  -12.4553   19.1147 H   0  0  0  0  0  0
  -30.3634  -11.3218   19.8274 H   0  0  0  0  0  0
  -29.7457  -11.7691   17.4360 H   0  0  0  0  0  0
  -29.6525  -13.4829   17.7556 H   0  0  0  0  0  0
  -27.8425  -11.2904   18.8245 H   0  0  0  0  0  0
  -27.3675  -12.6103   17.7898 H   0  0  0  0  0  0
  -27.6959  -14.2290   19.5617 H   0  0  0  0  0  0
  -28.7006  -11.9497   21.3302 H   0  0  0  0  0  0
  -28.4624  -13.5801   21.8739 H   0  0  0  0  0  0
  -25.2747   -9.5667   22.4755 H   0  0  0  0  0  0
  -23.9981   -7.4618   22.7475 H   0  0  0  0  0  0
  -21.0811   -8.8771   19.8957 H   0  0  0  0  0  0
  -22.3674  -10.9669   19.6170 H   0  0  0  0  0  0
  -21.2004   -7.6144   23.9712 H   0  0  0  0  0  0
  -21.1469   -6.0518   25.9074 H   0  0  0  0  0  0
  -22.0606   -2.7603   23.2852 H   0  0  0  0  0  0
  -22.4096  -11.9912   22.4810 H   0  0  0  0  0  0
  -21.1117  -13.1300   22.2598 H   0  0  0  0  0  0
  -24.6583  -15.8304   20.5084 H   0  0  0  0  0  0
  -26.2678  -15.6181   20.0439 H   0  0  0  0  0  0
  -26.7141  -32.5519   23.1160 H   0  0  0  0  0  0
  -25.0061  -33.9770   25.0467 H   0  0  0  0  0  0
  -22.6978  -31.3097   21.4117 H   0  0  0  0  0  0
  -23.3741  -35.9653   23.3302 H   0  0  0  0  0  0
  -24.3580  -36.8922   22.2049 H   0  0  0  0  0  0
  -23.7240  -37.6522   23.6646 H   0  0  0  0  0  0
  -26.0594  -31.5878   20.5990 H   0  0  0  0  0  0
  -26.8271  -30.8744   21.9891 H   0  0  0  0  0  0
  -28.1077  -29.0702   21.1678 H   0  0  0  0  0  0
  -26.0154  -25.9889   18.9681 H   0  0  0  0  0  0
  -23.9752  -27.3116   19.0190 H   0  0  0  0  0  0
  -23.7319  -30.6040   19.4078 H   0  0  0  0  0  0
  -22.7403  -29.2521   19.8646 H   0  0  0  0  0  0
  -25.1278  -36.1972   25.0828 H   0  0  0  0  0  0
  -20.9967  -28.3247   24.1427 H   0  0  0  0  0  0
  -20.5681  -26.2284   23.3604 H   0  0  0  0  0  0
  -21.6644  -26.7453   22.1205 H   0  0  0  0  0  0
  -19.6910  -25.6301   21.1232 H   0  0  0  0  0  0
  -19.6679  -27.3206   20.6752 H   0  0  0  0  0  0
  -17.4194  -26.6673   21.4033 H   0  0  0  0  0  0
  -18.0329  -26.0066   22.9022 H   0  0  0  0  0  0
  -19.7933  -30.7255   24.2298 H   0  0  0  0  0  0
  -17.5014  -31.6265   24.5168 H   0  0  0  0  0  0
  -15.5352  -30.3000   23.7635 H   0  0  0  0  0  0
  -15.8668  -28.0826   22.7061 H   0  0  0  0  0  0
  -24.5888  -30.7103   25.7824 H   0  0  0  0  0  0
  -24.8955  -32.2904   26.4937 H   0  0  0  0  0  0
  -25.8077  -30.8891   27.0234 H   0  0  0  0  0  0
  -26.2848  -29.6804   24.1163 H   0  0  0  0  0  0
  -27.4028  -29.7265   25.4602 H   0  0  0  0  0  0
  -27.8705  -30.4334   23.9309 H   0  0  0  0  0  0
  -27.2678  -33.3609   26.2096 H   0  0  0  0  0  0
  -28.3847  -32.6897   25.0301 H   0  0  0  0  0  0
  -28.0744  -31.8425   26.5377 H   0  0  0  0  0  0
  -28.2603  -38.0102   24.7510 H   0  0  0  0  0  0
  -28.1069  -36.2635   24.6278 H   0  0  0  0  0  0
  -27.2303  -37.1453   25.8867 H   0  0  0  0  0  0
  -20.9321  -29.8759   21.6929 H   0  0  0  0  0  0
  -26.0176  -38.2871   24.1416 H   0  0  0  0  0  0
  -28.4170  -19.5875   19.4425 H   0  0  0  0  0  0
  -31.7072  -17.1440   22.2485 H   0  0  0  0  0  0
  -29.3134  -24.6859   17.8074 H   0  0  0  0  0  0
  -28.0323  -23.4678   17.7537 H   0  0  0  0  0  0
  -29.6673  -23.0628   17.2171 H   0  0  0  0  0  0
  -31.0058  -21.7343   21.1470 H   0  0  0  0  0  0
  -29.3212  -21.6406   21.6204 H   0  0  0  0  0  0
  -30.3503  -24.9807   20.1112 H   0  0  0  0  0  0
  -29.7197  -23.9676   21.3668 H   0  0  0  0  0  0
  -27.8174  -25.1759   21.4574 H   0  0  0  0  0  0
  -27.4395  -24.7556   19.8269 H   0  0  0  0  0  0
  -28.9535  -15.2086   21.2556 H   0  0  0  0  0  0
  1 25  1  0  0  0
  1 30  2  0  0  0
  1 83  1  0  0  0
  2  3  1  0  0  0
  2 25  1  0  0  0
  2 86  1  0  0  0
  2 87  1  0  0  0
  3  4  1  0  0  0
  3 88  1  0  0  0
  3 89  1  0  0  0
  4  5  1  0  0  0
  4 90  1  0  0  0
  4 91  1  0  0  0
  5  6  1  0  0  0
  5 26  1  0  0  0
  5 92  1  0  0  0
  6 25  1  0  0  0
  6 93  1  0  0  0
  6 94  1  0  0  0
  7  8  2  0  0  0
  7 26  1  0  0  0
  7 29  1  0  0  0
  8  9  1  0  0  0
  8 22  1  0  0  0
  9 10  1  0  0  0
  9 27  2  0  0  0
 10 11  2  0  0  0
 10 15  1  0  0  0
 11 12  1  0  0  0
 11 95  1  0  0  0
 12 13  2  0  0  0
 12 96  1  0  0  0
 13 14  1  0  0  0
 13 31  1  0  0  0
 14 15  2  0  0  0
 14 97  1  0  0  0
 15 98  1  0  0  0
 16 17  2  0  0  0
 16 21  1  0  0  0
 16 31  1  0  0  0
 17 18  1  0  0  0
 17 99  1  0  0  0
 18 19  2  0  0  0
 18100  1  0  0  0
 19 20  1  0  0  0
 19 24  1  0  0  0
 20 21  2  0  0  0
 20101  1  0  0  0
 21 23  1  0  0  0
 22 28  1  0  0  0
 22 32  2  0  0  0
 26 27  1  0  0  0
 28102  1  0  0  0
 28103  1  0  0  0
 29104  1  0  0  0
 29105  1  0  0  0
 33 34  1  0  0  0
 33 66  1  0  0  0
 33 70  2  0  0  0
 34 36  1  0  0  0
 34 59  1  0  0  0
 34106  1  0  0  0
 35 44  2  0  0  0
 35 45  1  0  0  0
 35 68  1  0  0  0
 36 56  1  0  0  0
 36107  1  0  0  0
 37 39  1  0  0  0
 37 47  1  0  0  0
 37 66  1  0  0  0
 37108  1  0  0  0
 38 43  2  0  0  0
 38 46  1  0  0  0
 38 47  1  0  0  0
 39 64  1  0  0  0
 39 67  2  0  0  0
 40 52  1  0  0  0
 40 53  2  0  0  0
 40 58  1  0  0  0
 41109  1  0  0  0
 41110  1  0  0  0
 41111  1  0  0  0
 41 48  1  0  0  0
 42 43  1  0  0  0
 42 66  1  0  0  0
 42112  1  0  0  0
 42113  1  0  0  0
 43 44  1  0  0  0
 44114  1  0  0  0
 45 46  2  0  0  0
 45115  1  0  0  0
 46116  1  0  0  0
 47117  1  0  0  0
 47118  1  0  0  0
 48 56  1  0  0  0
 48 65  1  0  0  0
 48119  1  0  0  0
 49 50  1  0  0  0
 49 53  1  0  0  0
 49 64  1  0  0  0
 49120  1  0  0  0
 50 51  1  0  0  0
 50121  1  0  0  0
 50122  1  0  0  0
 51 52  1  0  0  0
 51123  1  0  0  0
 51124  1  0  0  0
 52125  1  0  0  0
 52126  1  0  0  0
 53 54  1  0  0  0
 54 55  2  0  0  0
 54127  1  0  0  0
 55 57  1  0  0  0
 55128  1  0  0  0
 56 69  2  0  0  0
 57 58  2  0  0  0
 57129  1  0  0  0
 58130  1  0  0  0
 59 60  1  0  0  0
 59 61  1  0  0  0
 59 62  1  0  0  0
 60131  1  0  0  0
 60132  1  0  0  0
 60133  1  0  0  0
 61134  1  0  0  0
 61135  1  0  0  0
 61136  1  0  0  0
 62137  1  0  0  0
 62138  1  0  0  0
 62139  1  0  0  0
 63 65  1  0  0  0
 63140  1  0  0  0
 63141  1  0  0  0
 63142  1  0  0  0
 64143  1  0  0  0
 65144  1  0  0  0
 68 81  1  0  0  0
 71 73  2  0  0  0
 71 76  1  0  0  0
 71145  1  0  0  0
 72 74  1  0  0  0
 72 75  2  0  0  0
 72146  1  0  0  0
 73 75  1  0  0  0
 73 79  1  0  0  0
 74 76  2  0  0  0
 74 83  1  0  0  0
 75 84  1  0  0  0
 76 85  1  0  0  0
 77 78  1  0  0  0
 77 80  1  0  0  0
 77 82  2  0  0  0
 78147  1  0  0  0
 78148  1  0  0  0
 78149  1  0  0  0
 79 82  1  0  0  0
 79150  1  0  0  0
 79151  1  0  0  0
 80 81  1  0  0  0
 80152  1  0  0  0
 80153  1  0  0  0
 81154  1  0  0  0
 81155  1  0  0  0
 83156  1  0  0  0
M  ISO  4   1 100  68 101  81 101  83 100
M  END
> <chiral flag>
0

> <version>
0

> <s_m_source_file>
/data/baiqing/PycharmProjects/Reinvent-master-3.2/result/LINK_invent/BTK/process_docking_weight1_custom_sum_contain_oxygen_bond_distance_aromatic_linkinvent_7_9_3/rearranged_h_0011.sdf

> <i_m_source_file_index>
40

> <r_mmod_Potential_Energy-OPLS-2005>
-39.4466018676758

> <r_mmod_Stretch_Energy-OPLS-2005>
45.8913230895996

> <r_mmod_Bend_Energy-OPLS-2005>
109.414581298828

> <r_mmod_Torsional_Energy-OPLS-2005>
255.249404907227

> <r_mmod_Improper_Torsional_Energy-OPLS-2005>
5.29119300842285

> <r_mmod_Van_der_Waal_Energy-OPLS-2005>
152.012390136719

> <r_mmod_Electrostatic_Energy-OPLS-2005>
-424.351196289062

> <r_mmod_Solvation_Energy-OPLS-2005>
-202.165802001953

> <b_mmod_Minimization_Converged-OPLS-2005>
0

> <r_mmod_RMS_Derivative-OPLS-2005>
0.770605027675629

$$$$
40
                    3D
 Structure written by MMmdl.
148156  0  0  1  0            999 V2000
  -30.5204  -14.9199   20.4222 C   0  0  0  0  0  0
  -30.4515  -12.5657   19.4868 C   0  0  0  0  0  0
  -29.5236  -12.5307   18.2487 C   0  0  0  0  0  0
  -28.0538  -12.3214   18.6644 C   0  0  0  0  0  0
  -27.6358  -13.2383   19.8430 C   0  0  2  0  0  0
  -28.6827  -13.2292   20.9784 C   0  0  0  0  0  0
  -25.2489  -13.8181   20.5712 C   0  0  0  0  0  0
  -24.1800  -13.0421   20.9241 C   0  0  0  0  0  0
  -24.6404  -11.6904   20.8754 C   0  0  0  0  0  0
  -23.9080  -10.4284   21.0408 C   0  0  0  0  0  0
  -24.3626   -9.4198   21.9185 C   0  0  0  0  0  0
  -23.6297   -8.2235   22.0755 C   0  0  0  0  0  0
  -22.4278   -8.0277   21.3545 C   0  0  0  0  0  0
  -21.9916   -9.0254   20.4649 C   0  0  0  0  0  0
  -22.7250  -10.2130   20.3057 C   0  0  0  0  0  0
  -21.6851   -6.0737   22.5278 C   0  0  0  0  0  0
  -21.4014   -6.5641   23.8214 C   0  0  0  0  0  0
  -21.3660   -5.6791   24.9176 C   0  0  0  0  0  0
  -21.6043   -4.3055   24.7223 C   0  0  0  0  0  0
  -21.8820   -3.8148   23.4346 C   0  0  0  0  0  0
  -21.9193   -4.6965   22.3403 C   0  0  0  0  0  0
  -22.7820  -13.5206   21.1890 C   0  0  0  0  0  0
  -22.1662   -4.2150   21.0980 F   0  0  0  0  0  0
  -21.5629   -3.4539   25.7736 F   0  0  0  0  0  0
  -29.9649  -13.6441   20.3892 N   0  0  0  0  0  0
  -26.2915  -12.9403   20.3242 N   0  0  0  0  0  0
  -25.9332  -11.6539   20.5729 N   0  0  0  0  0  0
  -22.0461  -12.8197   22.0442 N   0  0  0  0  0  0
  -25.4114  -15.1902   20.4139 N   0  0  0  0  0  0
  -31.7178  -15.0422   20.1410 O   0  0  0  0  0  0
  -21.6639   -6.8879   21.4241 O   0  0  0  0  0  0
  -22.3500  -14.5507   20.6728 O   0  0  0  0  0  0
  -24.6431  -31.8451   23.1896 C   0  0  0  0  0  0
  -25.9206  -32.4699   23.8283 C   0  0  1  0  0  0
  -27.2188  -27.1416   20.1447 C   0  0  0  0  0  0
  -25.5957  -33.8507   24.2196 N   0  0  0  0  0  0
  -23.4468  -30.4657   21.5351 C   0  0  2  0  0  0
  -24.8974  -28.8966   20.1088 C   0  0  0  0  0  0
  -22.7569  -29.4555   22.4859 C   0  0  0  0  0  0
  -18.0306  -28.1397   22.8478 C   0  0  0  0  0  0
  -24.1494  -36.7255   23.2641 C   0  0  0  0  0  0
  -26.0038  -30.7192   21.3905 C   0  0  0  0  0  0
  -26.0752  -29.3319   20.7295 C   0  0  0  0  0  0
  -27.2360  -28.4701   20.7331 C   0  0  0  0  0  0
  -26.0152  -26.8138   19.4783 C   0  0  0  0  0  0
  -24.8803  -27.6505   19.4680 C   0  0  0  0  0  0
  -23.6736  -29.7977   20.1535 C   0  0  0  0  0  0
  -25.4126  -36.3031   24.0313 C   0  0  1  0  0  0
  -20.5922  -28.3723   23.1234 C   0  0  2  0  0  0
  -20.6790  -26.9425   22.5403 C   0  0  0  0  0  0
  -19.5764  -26.6380   21.5214 C   0  0  0  0  0  0
  -18.1946  -26.7932   22.1625 C   0  0  0  0  0  0
  -19.1563  -28.8878   23.2849 C   0  0  0  0  0  0
  -18.9477  -30.1475   23.8873 C   0  0  0  0  0  0
  -17.6473  -30.6592   24.0557 C   0  0  0  0  0  0
  -25.9079  -34.9407   23.5063 C   0  0  0  0  0  0
  -16.5366  -29.9084   23.6335 C   0  0  0  0  0  0
  -16.7290  -28.6504   23.0356 C   0  0  0  0  0  0
  -26.4524  -31.6567   25.0725 C   0  0  0  0  0  0
  -25.3704  -31.3766   26.1417 C   0  0  0  0  0  0
  -27.0384  -30.2955   24.6321 C   0  0  0  0  0  0
  -27.6058  -32.4330   25.7508 C   0  0  0  0  0  0
  -27.5578  -37.1785   24.8463 C   0  0  0  0  0  0
  -21.4261  -29.3050   22.3607 N   0  0  0  0  0  0
  -26.4288  -37.3744   23.9408 N   0  0  0  0  0  0
  -24.7176  -31.0309   22.0932 N   0  0  0  0  0  0
  -23.4213  -28.8097   23.3004 O   0  0  0  0  0  0
  -28.2607  -26.1444   20.2251 O   0  0  0  0  0  0
  -26.5661  -34.8902   22.4641 O   0  0  0  0  0  0
  -23.5549  -32.1327   23.7117 O   0  0  0  0  0  0
  -30.3742  -18.5716   21.0472 C   0  0  0  0  0  0
  -28.3104  -19.5434   19.4964 C   0  0  0  0  0  0
  -29.6173  -17.5396   20.3780 C   0  0  0  0  0  0
  -29.0270  -20.5814   20.1784 C   0  0  0  0  0  0
  -30.1020  -20.0113   20.9566 C   0  0  0  0  0  0
  -28.5751  -18.1237   19.5870 C   0  0  0  0  0  0
  -28.8990  -23.3619   20.3678 C   0  0  0  0  0  0
  -27.9302  -24.6454   19.9634 C   0  0  0  0  0  0
  -28.5429  -22.0341   20.0205 N   0  0  0  0  0  0
  -29.6499  -16.0201   20.5959 N   0  0  0  0  0  0
  -29.9434  -23.5919   20.9810 O   0  0  0  0  0  0
  -30.8881  -20.8451   21.6767 F   0  0  0  0  0  0
  -27.5405  -17.0677   18.6940 Cl  0  0  0  0  0  0
  -31.4837  -12.7359   19.1751 H   0  0  0  0  0  0
  -30.4487  -11.6032   20.0010 H   0  0  0  0  0  0
  -29.8358  -11.7410   17.5638 H   0  0  0  0  0  0
  -29.6165  -13.4680   17.6977 H   0  0  0  0  0  0
  -27.9394  -11.2759   18.9532 H   0  0  0  0  0  0
  -27.3927  -12.4748   17.8108 H   0  0  0  0  0  0
  -27.6078  -14.2465   19.4316 H   0  0  0  0  0  0
  -28.7619  -12.2388   21.4292 H   0  0  0  0  0  0
  -28.3870  -13.9065   21.7810 H   0  0  0  0  0  0
  -25.2772   -9.5671   22.4762 H   0  0  0  0  0  0
  -24.0003   -7.4626   22.7474 H   0  0  0  0  0  0
  -21.0845   -8.8777   19.8956 H   0  0  0  0  0  0
  -22.3711  -10.9672   19.6169 H   0  0  0  0  0  0
  -21.2004   -7.6149   23.9716 H   0  0  0  0  0  0
  -21.1483   -6.0523   25.9077 H   0  0  0  0  0  0
  -22.0598   -2.7610   23.2844 H   0  0  0  0  0  0
  -22.4081  -11.9869   22.4846 H   0  0  0  0  0  0
  -21.1075  -13.1219   22.2640 H   0  0  0  0  0  0
  -24.6243  -15.8231   20.5020 H   0  0  0  0  0  0
  -26.2129  -15.6260   19.9748 H   0  0  0  0  0  0
  -26.7274  -32.5306   23.1016 H   0  0  0  0  0  0
  -25.0077  -33.9628   25.0323 H   0  0  0  0  0  0
  -22.7488  -31.2912   21.3819 H   0  0  0  0  0  0
  -23.3761  -35.9584   23.3290 H   0  0  0  0  0  0
  -24.3577  -36.8901   22.2059 H   0  0  0  0  0  0
  -23.7248  -37.6446   23.6686 H   0  0  0  0  0  0
  -26.1626  -31.4762   20.6213 H   0  0  0  0  0  0
  -26.8728  -30.7664   22.0353 H   0  0  0  0  0  0
  -28.1301  -28.7959   21.2461 H   0  0  0  0  0  0
  -25.9071  -25.8657   18.9743 H   0  0  0  0  0  0
  -23.9823  -27.3132   18.9686 H   0  0  0  0  0  0
  -23.8092  -30.5740   19.3993 H   0  0  0  0  0  0
  -22.7886  -29.2398   19.8415 H   0  0  0  0  0  0
  -25.1319  -36.1857   25.0804 H   0  0  0  0  0  0
  -21.0013  -28.3311   24.1358 H   0  0  0  0  0  0
  -20.5687  -26.2336   23.3625 H   0  0  0  0  0  0
  -21.6655  -26.7433   22.1201 H   0  0  0  0  0  0
  -19.6925  -25.6285   21.1262 H   0  0  0  0  0  0
  -19.6700  -27.3175   20.6734 H   0  0  0  0  0  0
  -17.4215  -26.6675   21.4031 H   0  0  0  0  0  0
  -18.0348  -26.0084   22.9030 H   0  0  0  0  0  0
  -19.7953  -30.7299   24.2228 H   0  0  0  0  0  0
  -17.5025  -31.6270   24.5164 H   0  0  0  0  0  0
  -15.5363  -30.2977   23.7674 H   0  0  0  0  0  0
  -15.8690  -28.0812   22.7084 H   0  0  0  0  0  0
  -24.5887  -30.7113   25.7735 H   0  0  0  0  0  0
  -24.8892  -32.2953   26.4780 H   0  0  0  0  0  0
  -25.7980  -30.8975   27.0235 H   0  0  0  0  0  0
  -26.3006  -29.6679   24.1309 H   0  0  0  0  0  0
  -27.3962  -29.7257   25.4909 H   0  0  0  0  0  0
  -27.8933  -30.4175   23.9664 H   0  0  0  0  0  0
  -27.2650  -33.3641   26.2047 H   0  0  0  0  0  0
  -28.3887  -32.6875   25.0351 H   0  0  0  0  0  0
  -28.0707  -31.8482   26.5456 H   0  0  0  0  0  0
  -28.2587  -38.0087   24.7508 H   0  0  0  0  0  0
  -28.1081  -36.2619   24.6293 H   0  0  0  0  0  0
  -27.2295  -37.1432   25.8864 H   0  0  0  0  0  0
  -20.9470  -29.8755   21.6782 H   0  0  0  0  0  0
  -26.0154  -38.2813   24.1406 H   0  0  0  0  0  0
  -31.1722  -18.2607   21.7043 H   0  0  0  0  0  0
  -27.4796  -19.8367   18.8716 H   0  0  0  0  0  0
  -26.9800  -24.4371   20.4570 H   0  0  0  0  0  0
  -27.7409  -24.5441   18.8946 H   0  0  0  0  0  0
  -27.6810  -22.0689   19.4953 H   0  0  0  0  0  0
  -28.7152  -15.6589   20.7092 H   0  0  0  0  0  0
  1 25  1  0  0  0
  1 30  2  0  0  0
  1 80  1  0  0  0
  2  3  1  0  0  0
  2 25  1  0  0  0
  2 84  1  0  0  0
  2 85  1  0  0  0
  3  4  1  0  0  0
  3 86  1  0  0  0
  3 87  1  0  0  0
  4  5  1  0  0  0
  4 88  1  0  0  0
  4 89  1  0  0  0
  5  6  1  0  0  0
  5 26  1  0  0  0
  5 90  1  0  0  0
  6 25  1  0  0  0
  6 91  1  0  0  0
  6 92  1  0  0  0
  7  8  2  0  0  0
  7 26  1  0  0  0
  7 29  1  0  0  0
  8  9  1  0  0  0
  8 22  1  0  0  0
  9 10  1  0  0  0
  9 27  2  0  0  0
 10 11  2  0  0  0
 10 15  1  0  0  0
 11 12  1  0  0  0
 11 93  1  0  0  0
 12 13  2  0  0  0
 12 94  1  0  0  0
 13 14  1  0  0  0
 13 31  1  0  0  0
 14 15  2  0  0  0
 14 95  1  0  0  0
 15 96  1  0  0  0
 16 17  2  0  0  0
 16 21  1  0  0  0
 16 31  1  0  0  0
 17 18  1  0  0  0
 17 97  1  0  0  0
 18 19  2  0  0  0
 18 98  1  0  0  0
 19 20  1  0  0  0
 19 24  1  0  0  0
 20 21  2  0  0  0
 20 99  1  0  0  0
 21 23  1  0  0  0
 22 28  1  0  0  0
 22 32  2  0  0  0
 26 27  1  0  0  0
 28100  1  0  0  0
 28101  1  0  0  0
 29102  1  0  0  0
 29103  1  0  0  0
 33 34  1  0  0  0
 33 66  1  0  0  0
 33 70  2  0  0  0
 34 36  1  0  0  0
 34 59  1  0  0  0
 34104  1  0  0  0
 35 44  2  0  0  0
 35 45  1  0  0  0
 35 68  1  0  0  0
 36 56  1  0  0  0
 36105  1  0  0  0
 37 39  1  0  0  0
 37 47  1  0  0  0
 37 66  1  0  0  0
 37106  1  0  0  0
 38 43  2  0  0  0
 38 46  1  0  0  0
 38 47  1  0  0  0
 39 64  1  0  0  0
 39 67  2  0  0  0
 40 52  1  0  0  0
 40 53  2  0  0  0
 40 58  1  0  0  0
 41107  1  0  0  0
 41108  1  0  0  0
 41109  1  0  0  0
 41 48  1  0  0  0
 42 43  1  0  0  0
 42 66  1  0  0  0
 42110  1  0  0  0
 42111  1  0  0  0
 43 44  1  0  0  0
 44112  1  0  0  0
 45 46  2  0  0  0
 45113  1  0  0  0
 46114  1  0  0  0
 47115  1  0  0  0
 47116  1  0  0  0
 48 56  1  0  0  0
 48 65  1  0  0  0
 48117  1  0  0  0
 49 50  1  0  0  0
 49 53  1  0  0  0
 49 64  1  0  0  0
 49118  1  0  0  0
 50 51  1  0  0  0
 50119  1  0  0  0
 50120  1  0  0  0
 51 52  1  0  0  0
 51121  1  0  0  0
 51122  1  0  0  0
 52123  1  0  0  0
 52124  1  0  0  0
 53 54  1  0  0  0
 54 55  2  0  0  0
 54125  1  0  0  0
 55 57  1  0  0  0
 55126  1  0  0  0
 56 69  2  0  0  0
 57 58  2  0  0  0
 57127  1  0  0  0
 58128  1  0  0  0
 59 60  1  0  0  0
 59 61  1  0  0  0
 59 62  1  0  0  0
 60129  1  0  0  0
 60130  1  0  0  0
 60131  1  0  0  0
 61132  1  0  0  0
 61133  1  0  0  0
 61134  1  0  0  0
 62135  1  0  0  0
 62136  1  0  0  0
 62137  1  0  0  0
 63 65  1  0  0  0
 63138  1  0  0  0
 63139  1  0  0  0
 63140  1  0  0  0
 64141  1  0  0  0
 65142  1  0  0  0
 68 78  1  0  0  0
 71 73  2  0  0  0
 71 75  1  0  0  0
 71143  1  0  0  0
 72 74  1  0  0  0
 72 76  2  0  0  0
 72144  1  0  0  0
 73 76  1  0  0  0
 73 80  1  0  0  0
 74 75  2  0  0  0
 74 79  1  0  0  0
 75 82  1  0  0  0
 76 83  1  0  0  0
 77 78  1  0  0  0
 77 79  1  0  0  0
 77 81  2  0  0  0
 78145  1  0  0  0
 78146  1  0  0  0
 79147  1  0  0  0
 80148  1  0  0  0
M  ISO  4   1 100  68 101  78 101  80 100
M  END
> <chiral flag>
0

> <version>
0

> <s_m_source_file>
/data/baiqing/PycharmProjects/Reinvent-master-3.2/result/LINK_invent/BTK/process_docking_weight1_custom_sum_contain_oxygen_bond_distance_aromatic_linkinvent_7_9_3/rearranged_h_0011.sdf

> <i_m_source_file_index>
41

> <r_mmod_Potential_Energy-OPLS-2005>
384.859466552734

> <r_mmod_Stretch_Energy-OPLS-2005>
220.520233154297

> <r_mmod_Bend_Energy-OPLS-2005>
267.625915527344

> <r_mmod_Torsional_Energy-OPLS-2005>
240.501495361328

> <r_mmod_Improper_Torsional_Energy-OPLS-2005>
6.81895685195923

> <r_mmod_Van_der_Waal_Energy-OPLS-2005>
126.908294677734

> <r_mmod_Electrostatic_Energy-OPLS-2005>
-404.080993652344

> <r_mmod_Solvation_Energy-OPLS-2005>
-256.457611083984

> <b_mmod_Minimization_Converged-OPLS-2005>
0

> <r_mmod_RMS_Derivative-OPLS-2005>
0.821168065071106

$$$$
41
                    3D
 Structure written by MMmdl.
151159  0  0  1  0            999 V2000
  -30.5160  -15.0517   20.4055 C   0  0  0  0  0  0
  -30.4391  -12.6619   19.4997 C   0  0  0  0  0  0
  -29.5200  -12.5259   18.2630 C   0  0  0  0  0  0
  -28.0641  -12.2829   18.6967 C   0  0  0  0  0  0
  -27.6196  -13.2500   19.8238 C   0  0  2  0  0  0
  -28.6601  -13.3463   20.9599 C   0  0  0  0  0  0
  -25.2433  -13.8209   20.5684 C   0  0  0  0  0  0
  -24.1767  -13.0443   20.9245 C   0  0  0  0  0  0
  -24.6380  -11.6923   20.8772 C   0  0  0  0  0  0
  -23.9075  -10.4292   21.0424 C   0  0  0  0  0  0
  -24.3618   -9.4204   21.9202 C   0  0  0  0  0  0
  -23.6289   -8.2238   22.0764 C   0  0  0  0  0  0
  -22.4278   -8.0272   21.3539 C   0  0  0  0  0  0
  -21.9921   -9.0252   20.4638 C   0  0  0  0  0  0
  -22.7257  -10.2135   20.3056 C   0  0  0  0  0  0
  -21.6849   -6.0740   22.5279 C   0  0  0  0  0  0
  -21.4011   -6.5640   23.8216 C   0  0  0  0  0  0
  -21.3655   -5.6792   24.9172 C   0  0  0  0  0  0
  -21.6046   -4.3056   24.7226 C   0  0  0  0  0  0
  -21.8815   -3.8149   23.4345 C   0  0  0  0  0  0
  -21.9192   -4.6967   22.3399 C   0  0  0  0  0  0
  -22.7786  -13.5206   21.1901 C   0  0  0  0  0  0
  -22.1661   -4.2149   21.0980 F   0  0  0  0  0  0
  -21.5628   -3.4538   25.7740 F   0  0  0  0  0  0
  -29.9210  -13.7828   20.3456 N   0  0  0  0  0  0
  -26.2839  -12.9429   20.3201 N   0  0  0  0  0  0
  -25.9304  -11.6566   20.5739 N   0  0  0  0  0  0
  -22.0423  -12.8186   22.0429 N   0  0  0  0  0  0
  -25.4082  -15.1932   20.4046 N   0  0  0  0  0  0
  -31.7331  -15.0721   20.1842 O   0  0  0  0  0  0
  -21.6637   -6.8880   21.4238 O   0  0  0  0  0  0
  -22.3480  -14.5513   20.6741 O   0  0  0  0  0  0
  -24.6490  -31.8384   23.1792 C   0  0  0  0  0  0
  -25.9238  -32.4678   23.8207 C   0  0  1  0  0  0
  -27.2203  -27.0669   20.1704 C   0  0  0  0  0  0
  -25.5958  -33.8474   24.2142 N   0  0  0  0  0  0
  -23.4575  -30.4531   21.5263 C   0  0  2  0  0  0
  -24.9093  -28.8673   20.1101 C   0  0  0  0  0  0
  -22.7601  -29.4503   22.4804 C   0  0  0  0  0  0
  -18.0309  -28.1399   22.8469 C   0  0  0  0  0  0
  -24.1486  -36.7255   23.2645 C   0  0  0  0  0  0
  -26.0146  -30.6950   21.3804 C   0  0  0  0  0  0
  -26.0892  -29.2934   20.7339 C   0  0  0  0  0  0
  -27.2446  -28.4123   20.7448 C   0  0  0  0  0  0
  -26.0140  -26.7631   19.4990 C   0  0  0  0  0  0
  -24.8889  -27.6182   19.4743 C   0  0  0  0  0  0
  -23.6903  -29.7802   20.1474 C   0  0  0  0  0  0
  -25.4111  -36.3027   24.0315 C   0  0  1  0  0  0
  -20.5927  -28.3736   23.1205 C   0  0  2  0  0  0
  -20.6790  -26.9429   22.5385 C   0  0  0  0  0  0
  -19.5763  -26.6404   21.5195 C   0  0  0  0  0  0
  -18.1947  -26.7944   22.1608 C   0  0  0  0  0  0
  -19.1564  -28.8880   23.2838 C   0  0  0  0  0  0
  -18.9487  -30.1465   23.8883 C   0  0  0  0  0  0
  -17.6490  -30.6603   24.0559 C   0  0  0  0  0  0
  -25.9075  -34.9406   23.5050 C   0  0  0  0  0  0
  -16.5381  -29.9098   23.6330 C   0  0  0  0  0  0
  -16.7294  -28.6513   23.0352 C   0  0  0  0  0  0
  -26.4547  -31.6539   25.0651 C   0  0  0  0  0  0
  -25.3715  -31.3698   26.1329 C   0  0  0  0  0  0
  -27.0420  -30.2953   24.6192 C   0  0  0  0  0  0
  -27.6074  -32.4285   25.7452 C   0  0  0  0  0  0
  -27.5561  -37.1784   24.8469 C   0  0  0  0  0  0
  -21.4282  -29.3076   22.3580 N   0  0  0  0  0  0
  -26.4273  -37.3741   23.9419 N   0  0  0  0  0  0
  -24.7280  -31.0182   22.0852 N   0  0  0  0  0  0
  -23.4221  -28.8033   23.2960 O   0  0  0  0  0  0
  -28.2484  -26.0319   20.2504 O   0  0  0  0  0  0
  -26.5676  -34.8925   22.4646 O   0  0  0  0  0  0
  -23.5595  -32.1264   23.6998 O   0  0  0  0  0  0
  -30.9685  -20.6061   20.7687 C   0  0  0  0  0  0
  -31.3999  -18.1592   20.8222 C   0  0  0  0  0  0
  -29.1859  -19.0226   20.3662 C   0  0  0  0  0  0
  -31.8393  -19.4997   20.9489 C   0  0  0  0  0  0
  -29.5906  -20.4761   20.4692 C   0  0  0  0  0  0
  -30.0671  -17.8047   20.5291 C   0  0  0  0  0  0
  -29.0079  -23.2185   20.3913 C   0  0  0  0  0  0
  -27.9136  -24.4792   20.1427 C   0  0  0  0  0  0
  -33.3083  -19.7311   21.2837 C   0  0  0  0  0  0
  -28.7467  -21.7924   20.3012 N   0  0  0  0  0  0
  -29.7419  -16.2736   20.4706 N   0  0  0  0  0  0
  -30.1449  -23.5914   20.6868 O   0  0  0  0  0  0
  -33.5661  -21.0014   21.6009 F   0  0  0  0  0  0
  -33.6679  -18.9689   22.3180 F   0  0  0  0  0  0
  -34.0602  -19.3981   20.2342 F   0  0  0  0  0  0
  -31.4640  -12.8395   19.1713 H   0  0  0  0  0  0
  -30.4666  -11.7322   20.0696 H   0  0  0  0  0  0
  -29.8621  -11.7106   17.6247 H   0  0  0  0  0  0
  -29.5758  -13.4326   17.6595 H   0  0  0  0  0  0
  -28.0018  -11.2549   19.0569 H   0  0  0  0  0  0
  -27.3907  -12.3459   17.8414 H   0  0  0  0  0  0
  -27.5620  -14.2315   19.3519 H   0  0  0  0  0  0
  -28.7759  -12.3911   21.4737 H   0  0  0  0  0  0
  -28.3371  -14.0702   21.7098 H   0  0  0  0  0  0
  -25.2754   -9.5687   22.4795 H   0  0  0  0  0  0
  -23.9991   -7.4633   22.7490 H   0  0  0  0  0  0
  -21.0859   -8.8772   19.8936 H   0  0  0  0  0  0
  -22.3716  -10.9673   19.6160 H   0  0  0  0  0  0
  -21.1995   -7.6147   23.9715 H   0  0  0  0  0  0
  -21.1480   -6.0525   25.9082 H   0  0  0  0  0  0
  -22.0595   -2.7609   23.2847 H   0  0  0  0  0  0
  -22.4035  -11.9837   22.4797 H   0  0  0  0  0  0
  -21.1029  -13.1201   22.2610 H   0  0  0  0  0  0
  -24.6284  -15.8361   20.4864 H   0  0  0  0  0  0
  -26.2341  -15.6244   20.0121 H   0  0  0  0  0  0
  -26.7299  -32.5280   23.0916 H   0  0  0  0  0  0
  -25.0046  -33.9552   25.0255 H   0  0  0  0  0  0
  -22.7635  -31.2798   21.3662 H   0  0  0  0  0  0
  -23.3764  -35.9574   23.3288 H   0  0  0  0  0  0
  -24.3563  -36.8921   22.2069 H   0  0  0  0  0  0
  -23.7217  -37.6425   23.6712 H   0  0  0  0  0  0
  -26.1574  -31.4385   20.5956 H   0  0  0  0  0  0
  -26.8902  -30.7695   22.0136 H   0  0  0  0  0  0
  -28.1399  -28.7343   21.2605 H   0  0  0  0  0  0
  -25.9025  -25.8113   19.0044 H   0  0  0  0  0  0
  -23.9922  -27.2873   18.9694 H   0  0  0  0  0  0
  -23.8348  -30.5536   19.3922 H   0  0  0  0  0  0
  -22.8040  -29.2277   19.8336 H   0  0  0  0  0  0
  -25.1293  -36.1850   25.0804 H   0  0  0  0  0  0
  -21.0018  -28.3354   24.1340 H   0  0  0  0  0  0
  -20.5685  -26.2348   23.3600 H   0  0  0  0  0  0
  -21.6650  -26.7428   22.1172 H   0  0  0  0  0  0
  -19.6926  -25.6309   21.1219 H   0  0  0  0  0  0
  -19.6711  -27.3216   20.6719 H   0  0  0  0  0  0
  -17.4203  -26.6686   21.4029 H   0  0  0  0  0  0
  -18.0351  -26.0077   22.8999 H   0  0  0  0  0  0
  -19.7963  -30.7255   24.2280 H   0  0  0  0  0  0
  -17.5055  -31.6281   24.5165 H   0  0  0  0  0  0
  -15.5375  -30.3014   23.7658 H   0  0  0  0  0  0
  -15.8688  -28.0837   22.7091 H   0  0  0  0  0  0
  -24.5960  -30.6976   25.7623 H   0  0  0  0  0  0
  -24.8807  -32.2851   26.4641 H   0  0  0  0  0  0
  -25.7986  -30.8943   27.0171 H   0  0  0  0  0  0
  -26.3022  -29.6650   24.1233 H   0  0  0  0  0  0
  -27.4122  -29.7253   25.4720 H   0  0  0  0  0  0
  -27.8892  -30.4220   23.9444 H   0  0  0  0  0  0
  -27.2734  -33.3697   26.1824 H   0  0  0  0  0  0
  -28.4006  -32.6633   25.0344 H   0  0  0  0  0  0
  -28.0593  -31.8498   26.5515 H   0  0  0  0  0  0
  -28.2546  -38.0110   24.7527 H   0  0  0  0  0  0
  -28.1089  -36.2630   24.6290 H   0  0  0  0  0  0
  -27.2280  -37.1413   25.8871 H   0  0  0  0  0  0
  -20.9492  -29.8828   21.6789 H   0  0  0  0  0  0
  -26.0145  -38.2812   24.1444 H   0  0  0  0  0  0
  -31.4020  -21.5866   20.8784 H   0  0  0  0  0  0
  -32.1396  -17.3902   20.9813 H   0  0  0  0  0  0
  -28.1462  -18.8319   20.1457 H   0  0  0  0  0  0
  -27.0948  -24.2947   20.8392 H   0  0  0  0  0  0
  -27.4986  -24.3072   19.1503 H   0  0  0  0  0  0
  -27.7770  -21.6182   20.0726 H   0  0  0  0  0  0
  -28.7528  -16.0744   20.4858 H   0  0  0  0  0  0
  1 25  1  0  0  0
  1 30  2  0  0  0
  1 81  1  0  0  0
  2  3  1  0  0  0
  2 25  1  0  0  0
  2 86  1  0  0  0
  2 87  1  0  0  0
  3  4  1  0  0  0
  3 88  1  0  0  0
  3 89  1  0  0  0
  4  5  1  0  0  0
  4 90  1  0  0  0
  4 91  1  0  0  0
  5  6  1  0  0  0
  5 26  1  0  0  0
  5 92  1  0  0  0
  6 25  1  0  0  0
  6 93  1  0  0  0
  6 94  1  0  0  0
  7  8  2  0  0  0
  7 26  1  0  0  0
  7 29  1  0  0  0
  8  9  1  0  0  0
  8 22  1  0  0  0
  9 10  1  0  0  0
  9 27  2  0  0  0
 10 11  2  0  0  0
 10 15  1  0  0  0
 11 12  1  0  0  0
 11 95  1  0  0  0
 12 13  2  0  0  0
 12 96  1  0  0  0
 13 14  1  0  0  0
 13 31  1  0  0  0
 14 15  2  0  0  0
 14 97  1  0  0  0
 15 98  1  0  0  0
 16 17  2  0  0  0
 16 21  1  0  0  0
 16 31  1  0  0  0
 17 18  1  0  0  0
 17 99  1  0  0  0
 18 19  2  0  0  0
 18100  1  0  0  0
 19 20  1  0  0  0
 19 24  1  0  0  0
 20 21  2  0  0  0
 20101  1  0  0  0
 21 23  1  0  0  0
 22 28  1  0  0  0
 22 32  2  0  0  0
 26 27  1  0  0  0
 28102  1  0  0  0
 28103  1  0  0  0
 29104  1  0  0  0
 29105  1  0  0  0
 33 34  1  0  0  0
 33 66  1  0  0  0
 33 70  2  0  0  0
 34 36  1  0  0  0
 34 59  1  0  0  0
 34106  1  0  0  0
 35 44  2  0  0  0
 35 45  1  0  0  0
 35 68  1  0  0  0
 36 56  1  0  0  0
 36107  1  0  0  0
 37 39  1  0  0  0
 37 47  1  0  0  0
 37 66  1  0  0  0
 37108  1  0  0  0
 38 43  2  0  0  0
 38 46  1  0  0  0
 38 47  1  0  0  0
 39 64  1  0  0  0
 39 67  2  0  0  0
 40 52  1  0  0  0
 40 53  2  0  0  0
 40 58  1  0  0  0
 41109  1  0  0  0
 41110  1  0  0  0
 41111  1  0  0  0
 41 48  1  0  0  0
 42 43  1  0  0  0
 42 66  1  0  0  0
 42112  1  0  0  0
 42113  1  0  0  0
 43 44  1  0  0  0
 44114  1  0  0  0
 45 46  2  0  0  0
 45115  1  0  0  0
 46116  1  0  0  0
 47117  1  0  0  0
 47118  1  0  0  0
 48 56  1  0  0  0
 48 65  1  0  0  0
 48119  1  0  0  0
 49 50  1  0  0  0
 49 53  1  0  0  0
 49 64  1  0  0  0
 49120  1  0  0  0
 50 51  1  0  0  0
 50121  1  0  0  0
 50122  1  0  0  0
 51 52  1  0  0  0
 51123  1  0  0  0
 51124  1  0  0  0
 52125  1  0  0  0
 52126  1  0  0  0
 53 54  1  0  0  0
 54 55  2  0  0  0
 54127  1  0  0  0
 55 57  1  0  0  0
 55128  1  0  0  0
 56 69  2  0  0  0
 57 58  2  0  0  0
 57129  1  0  0  0
 58130  1  0  0  0
 59 60  1  0  0  0
 59 61  1  0  0  0
 59 62  1  0  0  0
 60131  1  0  0  0
 60132  1  0  0  0
 60133  1  0  0  0
 61134  1  0  0  0
 61135  1  0  0  0
 61136  1  0  0  0
 62137  1  0  0  0
 62138  1  0  0  0
 62139  1  0  0  0
 63 65  1  0  0  0
 63140  1  0  0  0
 63141  1  0  0  0
 63142  1  0  0  0
 64143  1  0  0  0
 65144  1  0  0  0
 68 78  1  0  0  0
 71 74  2  0  0  0
 71 75  1  0  0  0
 71145  1  0  0  0
 72 74  1  0  0  0
 72 76  2  0  0  0
 72146  1  0  0  0
 73 75  2  0  0  0
 73 76  1  0  0  0
 73147  1  0  0  0
 74 79  1  0  0  0
 75 80  1  0  0  0
 76 81  1  0  0  0
 77 78  1  0  0  0
 77 80  1  0  0  0
 77 82  2  0  0  0
 78148  1  0  0  0
 78149  1  0  0  0
 79 83  1  0  0  0
 79 84  1  0  0  0
 79 85  1  0  0  0
 80150  1  0  0  0
 81151  1  0  0  0
M  ISO  4   1 100  68 101  78 101  81 100
M  END
> <chiral flag>
0

> <version>
0

> <s_m_source_file>
/data/baiqing/PycharmProjects/Reinvent-master-3.2/result/LINK_invent/BTK/process_docking_weight1_custom_sum_contain_oxygen_bond_distance_aromatic_linkinvent_7_9_3/rearranged_h_0011.sdf

> <i_m_source_file_index>
42

> <r_mmod_Potential_Energy-OPLS-2005>
650.012390136719

> <r_mmod_Stretch_Energy-OPLS-2005>
345.354370117188

> <r_mmod_Bend_Energy-OPLS-2005>
271.144104003906

> <r_mmod_Torsional_Energy-OPLS-2005>
220.201370239258

> <r_mmod_Improper_Torsional_Energy-OPLS-2005>
5.48326110839844

> <r_mmod_Van_der_Waal_Energy-OPLS-2005>
136.876434326172

> <r_mmod_Electrostatic_Energy-OPLS-2005>
-349.512634277344

> <r_mmod_Solvation_Energy-OPLS-2005>
-248.878784179688

> <b_mmod_Minimization_Converged-OPLS-2005>
0

> <r_mmod_RMS_Derivative-OPLS-2005>
2.54411911964417

$$$$
42
                    3D
 Structure written by MMmdl.
155163  0  0  1  0            999 V2000
  -30.5068  -15.0107   20.3767 C   0  0  0  0  0  0
  -30.4439  -12.6165   19.5199 C   0  0  0  0  0  0
  -29.5376  -12.5424   18.2689 C   0  0  0  0  0  0
  -28.0662  -12.3328   18.6761 C   0  0  0  0  0  0
  -27.6320  -13.2622   19.8405 C   0  0  2  0  0  0
  -28.6707  -13.3032   20.9795 C   0  0  0  0  0  0
  -25.2466  -13.8254   20.5677 C   0  0  0  0  0  0
  -24.1785  -13.0468   20.9196 C   0  0  0  0  0  0
  -24.6425  -11.6957   20.8735 C   0  0  0  0  0  0
  -23.9118  -10.4318   21.0388 C   0  0  0  0  0  0
  -24.3671   -9.4225   21.9141 C   0  0  0  0  0  0
  -23.6326   -8.2270   22.0727 C   0  0  0  0  0  0
  -22.4295   -8.0293   21.3546 C   0  0  0  0  0  0
  -21.9951   -9.0269   20.4644 C   0  0  0  0  0  0
  -22.7302  -10.2135   20.3035 C   0  0  0  0  0  0
  -21.6866   -6.0733   22.5259 C   0  0  0  0  0  0
  -21.4039   -6.5624   23.8202 C   0  0  0  0  0  0
  -21.3677   -5.6763   24.9152 C   0  0  0  0  0  0
  -21.6064   -4.3023   24.7188 C   0  0  0  0  0  0
  -21.8830   -3.8129   23.4301 C   0  0  0  0  0  0
  -21.9205   -4.6966   22.3366 C   0  0  0  0  0  0
  -22.7791  -13.5224   21.1840 C   0  0  0  0  0  0
  -22.1661   -4.2156   21.0934 F   0  0  0  0  0  0
  -21.5665   -3.4508   25.7691 F   0  0  0  0  0  0
  -29.9411  -13.7315   20.3814 N   0  0  0  0  0  0
  -26.2913  -12.9523   20.3250 N   0  0  0  0  0  0
  -25.9361  -11.6643   20.5723 N   0  0  0  0  0  0
  -22.0452  -12.8227   22.0421 N   0  0  0  0  0  0
  -25.4078  -15.1987   20.4081 N   0  0  0  0  0  0
  -31.7138  -15.0585   20.1080 O   0  0  0  0  0  0
  -21.6668   -6.8887   21.4222 O   0  0  0  0  0  0
  -22.3458  -14.5497   20.6646 O   0  0  0  0  0  0
  -24.6505  -31.8362   23.1829 C   0  0  0  0  0  0
  -25.9253  -32.4651   23.8235 C   0  0  1  0  0  0
  -27.2016  -27.0684   20.1791 C   0  0  0  0  0  0
  -25.5971  -33.8451   24.2156 N   0  0  0  0  0  0
  -23.4580  -30.4555   21.5294 C   0  0  2  0  0  0
  -24.9054  -28.8676   20.1157 C   0  0  0  0  0  0
  -22.7611  -29.4518   22.4844 C   0  0  0  0  0  0
  -18.0311  -28.1404   22.8500 C   0  0  0  0  0  0
  -24.1494  -36.7250   23.2641 C   0  0  0  0  0  0
  -26.0178  -30.6918   21.3869 C   0  0  0  0  0  0
  -26.0849  -29.2938   20.7384 C   0  0  0  0  0  0
  -27.2364  -28.4123   20.7476 C   0  0  0  0  0  0
  -25.9973  -26.7527   19.5165 C   0  0  0  0  0  0
  -24.8752  -27.6117   19.4922 C   0  0  0  0  0  0
  -23.6873  -29.7768   20.1509 C   0  0  0  0  0  0
  -25.4128  -36.3006   24.0305 C   0  0  1  0  0  0
  -20.5952  -28.3720   23.1234 C   0  0  2  0  0  0
  -20.6804  -26.9411   22.5420 C   0  0  0  0  0  0
  -19.5764  -26.6376   21.5249 C   0  0  0  0  0  0
  -18.1942  -26.7937   22.1649 C   0  0  0  0  0  0
  -19.1581  -28.8896   23.2856 C   0  0  0  0  0  0
  -18.9474  -30.1494   23.8853 C   0  0  0  0  0  0
  -17.6471  -30.6585   24.0567 C   0  0  0  0  0  0
  -25.9076  -34.9379   23.5049 C   0  0  0  0  0  0
  -16.5366  -29.9075   23.6346 C   0  0  0  0  0  0
  -16.7298  -28.6512   23.0354 C   0  0  0  0  0  0
  -26.4531  -31.6534   25.0707 C   0  0  0  0  0  0
  -25.3691  -31.3771   26.1393 C   0  0  0  0  0  0
  -27.0409  -30.2905   24.6354 C   0  0  0  0  0  0
  -27.6036  -32.4307   25.7527 C   0  0  0  0  0  0
  -27.5573  -37.1784   24.8456 C   0  0  0  0  0  0
  -21.4312  -29.3017   22.3582 N   0  0  0  0  0  0
  -26.4277  -37.3731   23.9404 N   0  0  0  0  0  0
  -24.7295  -31.0183   22.0872 N   0  0  0  0  0  0
  -23.4232  -28.8045   23.2992 O   0  0  0  0  0  0
  -28.2451  -26.0584   20.2084 O   0  0  0  0  0  0
  -26.5679  -34.8906   22.4633 O   0  0  0  0  0  0
  -23.5611  -32.1272   23.7002 O   0  0  0  0  0  0
  -30.1663  -19.1800   18.0475 C   0  0  0  0  0  0
  -29.6914  -20.3440   18.6912 C   0  0  0  0  0  0
  -29.2287  -18.9373   20.6026 C   0  0  0  0  0  0
  -30.2002  -17.8892   18.6373 C   0  0  0  0  0  0
  -29.1779  -20.3249   20.0021 C   0  0  0  0  0  0
  -29.7541  -17.6698   19.9767 C   0  0  0  0  0  0
  -30.6821  -16.7587   17.7379 C   0  0  0  0  0  0
  -28.0920  -21.4634   21.8788 C   0  0  0  0  0  0
  -28.9008  -23.1355   20.0670 C   0  0  0  0  0  0
  -27.9789  -24.5232   20.4935 C   0  0  0  0  0  0
  -29.7222  -16.2098   20.5389 N   0  0  0  0  0  0
  -28.6550  -21.6334   20.5452 N   0  0  0  0  0  0
  -31.4818  -12.7657   19.2190 H   0  0  0  0  0  0
  -30.4289  -11.6707   20.0619 H   0  0  0  0  0  0
  -29.8619  -11.7341   17.6125 H   0  0  0  0  0  0
  -29.6303  -13.4646   17.6939 H   0  0  0  0  0  0
  -27.9568  -11.2921   18.9793 H   0  0  0  0  0  0
  -27.4133  -12.4712   17.8134 H   0  0  0  0  0  0
  -27.5917  -14.2657   19.4135 H   0  0  0  0  0  0
  -28.7705  -12.3308   21.4665 H   0  0  0  0  0  0
  -28.3675  -14.0065   21.7552 H   0  0  0  0  0  0
  -25.2842   -9.5693   22.4687 H   0  0  0  0  0  0
  -24.0046   -7.4681   22.7448 H   0  0  0  0  0  0
  -21.0911   -8.8819   19.8944 H   0  0  0  0  0  0
  -22.3807  -10.9656   19.6137 H   0  0  0  0  0  0
  -21.2006   -7.6122   23.9717 H   0  0  0  0  0  0
  -21.1515   -6.0461   25.9057 H   0  0  0  0  0  0
  -22.0594   -2.7591   23.2783 H   0  0  0  0  0  0
  -22.4093  -11.9958   22.4915 H   0  0  0  0  0  0
  -21.1023  -13.1190   22.2559 H   0  0  0  0  0  0
  -24.6305  -15.8420   20.5012 H   0  0  0  0  0  0
  -26.2547  -15.6446   20.0792 H   0  0  0  0  0  0
  -26.7322  -32.5249   23.0965 H   0  0  0  0  0  0
  -25.0058  -33.9531   25.0269 H   0  0  0  0  0  0
  -22.7635  -31.2818   21.3658 H   0  0  0  0  0  0
  -23.3756  -35.9577   23.3278 H   0  0  0  0  0  0
  -24.3563  -36.8913   22.2053 H   0  0  0  0  0  0
  -23.7245  -37.6444   23.6699 H   0  0  0  0  0  0
  -26.1739  -31.4335   20.6026 H   0  0  0  0  0  0
  -26.8889  -30.7505   22.0269 H   0  0  0  0  0  0
  -28.1381  -28.7333   21.2504 H   0  0  0  0  0  0
  -25.8960  -25.7969   19.0235 H   0  0  0  0  0  0
  -23.9718  -27.2813   18.9988 H   0  0  0  0  0  0
  -23.8289  -30.5440   19.3886 H   0  0  0  0  0  0
  -22.8026  -29.2173   19.8436 H   0  0  0  0  0  0
  -25.1314  -36.1827   25.0795 H   0  0  0  0  0  0
  -21.0041  -28.3319   24.1367 H   0  0  0  0  0  0
  -20.5744  -26.2320   23.3658 H   0  0  0  0  0  0
  -21.6660  -26.7419   22.1190 H   0  0  0  0  0  0
  -19.6907  -25.6293   21.1283 H   0  0  0  0  0  0
  -19.6705  -27.3197   20.6800 H   0  0  0  0  0  0
  -17.4235  -26.6725   21.4034 H   0  0  0  0  0  0
  -18.0275  -26.0080   22.9038 H   0  0  0  0  0  0
  -19.7950  -30.7345   24.2178 H   0  0  0  0  0  0
  -17.5006  -31.6255   24.5173 H   0  0  0  0  0  0
  -15.5364  -30.2943   23.7691 H   0  0  0  0  0  0
  -15.8711  -28.0817   22.7050 H   0  0  0  0  0  0
  -24.5863  -30.7123   25.7732 H   0  0  0  0  0  0
  -24.8906  -32.2984   26.4722 H   0  0  0  0  0  0
  -25.7939  -30.9013   27.0241 H   0  0  0  0  0  0
  -26.3052  -29.6599   24.1353 H   0  0  0  0  0  0
  -27.3970  -29.7223   25.4965 H   0  0  0  0  0  0
  -27.8982  -30.4096   23.9716 H   0  0  0  0  0  0
  -27.2586  -33.3601   26.2074 H   0  0  0  0  0  0
  -28.3903  -32.6870   25.0414 H   0  0  0  0  0  0
  -28.0664  -31.8462   26.5499 H   0  0  0  0  0  0
  -28.2574  -38.0098   24.7512 H   0  0  0  0  0  0
  -28.1091  -36.2628   24.6275 H   0  0  0  0  0  0
  -27.2293  -37.1417   25.8858 H   0  0  0  0  0  0
  -20.9533  -29.8689   21.6732 H   0  0  0  0  0  0
  -26.0148  -38.2799   24.1414 H   0  0  0  0  0  0
  -30.5074  -19.2935   17.0275 H   0  0  0  0  0  0
  -29.6998  -21.2628   18.1254 H   0  0  0  0  0  0
  -28.8486  -18.8420   21.6099 H   0  0  0  0  0  0
  -30.7397  -17.0728   16.6953 H   0  0  0  0  0  0
  -30.0036  -15.9066   17.7670 H   0  0  0  0  0  0
  -31.6813  -16.4318   18.0246 H   0  0  0  0  0  0
  -28.8584  -21.1441   22.5916 H   0  0  0  0  0  0
  -27.3006  -20.7077   21.8671 H   0  0  0  0  0  0
  -27.6558  -22.3906   22.2513 H   0  0  0  0  0  0
  -29.9287  -23.3577   20.3542 H   0  0  0  0  0  0
  -28.9210  -23.1211   18.9786 H   0  0  0  0  0  0
  -27.9544  -24.5121   21.5846 H   0  0  0  0  0  0
  -26.9538  -24.2929   20.2093 H   0  0  0  0  0  0
  -28.8633  -16.0098   21.0313 H   0  0  0  0  0  0
  1 25  1  0  0  0
  1 30  2  0  0  0
  1 81  1  0  0  0
  2  3  1  0  0  0
  2 25  1  0  0  0
  2 83  1  0  0  0
  2 84  1  0  0  0
  3  4  1  0  0  0
  3 85  1  0  0  0
  3 86  1  0  0  0
  4  5  1  0  0  0
  4 87  1  0  0  0
  4 88  1  0  0  0
  5  6  1  0  0  0
  5 26  1  0  0  0
  5 89  1  0  0  0
  6 25  1  0  0  0
  6 90  1  0  0  0
  6 91  1  0  0  0
  7  8  2  0  0  0
  7 26  1  0  0  0
  7 29  1  0  0  0
  8  9  1  0  0  0
  8 22  1  0  0  0
  9 10  1  0  0  0
  9 27  2  0  0  0
 10 11  2  0  0  0
 10 15  1  0  0  0
 11 12  1  0  0  0
 11 92  1  0  0  0
 12 13  2  0  0  0
 12 93  1  0  0  0
 13 14  1  0  0  0
 13 31  1  0  0  0
 14 15  2  0  0  0
 14 94  1  0  0  0
 15 95  1  0  0  0
 16 17  2  0  0  0
 16 21  1  0  0  0
 16 31  1  0  0  0
 17 18  1  0  0  0
 17 96  1  0  0  0
 18 19  2  0  0  0
 18 97  1  0  0  0
 19 20  1  0  0  0
 19 24  1  0  0  0
 20 21  2  0  0  0
 20 98  1  0  0  0
 21 23  1  0  0  0
 22 28  1  0  0  0
 22 32  2  0  0  0
 26 27  1  0  0  0
 28 99  1  0  0  0
 28100  1  0  0  0
 29101  1  0  0  0
 29102  1  0  0  0
 33 34  1  0  0  0
 33 66  1  0  0  0
 33 70  2  0  0  0
 34 36  1  0  0  0
 34 59  1  0  0  0
 34103  1  0  0  0
 35 44  2  0  0  0
 35 45  1  0  0  0
 35 68  1  0  0  0
 36 56  1  0  0  0
 36104  1  0  0  0
 37 39  1  0  0  0
 37 47  1  0  0  0
 37 66  1  0  0  0
 37105  1  0  0  0
 38 43  2  0  0  0
 38 46  1  0  0  0
 38 47  1  0  0  0
 39 64  1  0  0  0
 39 67  2  0  0  0
 40 52  1  0  0  0
 40 53  2  0  0  0
 40 58  1  0  0  0
 41106  1  0  0  0
 41107  1  0  0  0
 41108  1  0  0  0
 41 48  1  0  0  0
 42 43  1  0  0  0
 42 66  1  0  0  0
 42109  1  0  0  0
 42110  1  0  0  0
 43 44  1  0  0  0
 44111  1  0  0  0
 45 46  2  0  0  0
 45112  1  0  0  0
 46113  1  0  0  0
 47114  1  0  0  0
 47115  1  0  0  0
 48 56  1  0  0  0
 48 65  1  0  0  0
 48116  1  0  0  0
 49 50  1  0  0  0
 49 53  1  0  0  0
 49 64  1  0  0  0
 49117  1  0  0  0
 50 51  1  0  0  0
 50118  1  0  0  0
 50119  1  0  0  0
 51 52  1  0  0  0
 51120  1  0  0  0
 51121  1  0  0  0
 52122  1  0  0  0
 52123  1  0  0  0
 53 54  1  0  0  0
 54 55  2  0  0  0
 54124  1  0  0  0
 55 57  1  0  0  0
 55125  1  0  0  0
 56 69  2  0  0  0
 57 58  2  0  0  0
 57126  1  0  0  0
 58127  1  0  0  0
 59 60  1  0  0  0
 59 61  1  0  0  0
 59 62  1  0  0  0
 60128  1  0  0  0
 60129  1  0  0  0
 60130  1  0  0  0
 61131  1  0  0  0
 61132  1  0  0  0
 61133  1  0  0  0
 62134  1  0  0  0
 62135  1  0  0  0
 62136  1  0  0  0
 63 65  1  0  0  0
 63137  1  0  0  0
 63138  1  0  0  0
 63139  1  0  0  0
 64140  1  0  0  0
 65141  1  0  0  0
 68 80  1  0  0  0
 71 72  2  0  0  0
 71 74  1  0  0  0
 71142  1  0  0  0
 72 75  1  0  0  0
 72143  1  0  0  0
 73 75  2  0  0  0
 73 76  1  0  0  0
 73144  1  0  0  0
 74 76  2  0  0  0
 74 77  1  0  0  0
 75 82  1  0  0  0
 76 81  1  0  0  0
 77145  1  0  0  0
 77146  1  0  0  0
 77147  1  0  0  0
 78 82  1  0  0  0
 78148  1  0  0  0
 78149  1  0  0  0
 78150  1  0  0  0
 79 80  1  0  0  0
 79 82  1  0  0  0
 79151  1  0  0  0
 79152  1  0  0  0
 80153  1  0  0  0
 80154  1  0  0  0
 81155  1  0  0  0
M  ISO  4   1 100  68 101  80 101  81 100
M  END
> <chiral flag>
0

> <version>
0

> <s_m_source_file>
/data/baiqing/PycharmProjects/Reinvent-master-3.2/result/LINK_invent/BTK/process_docking_weight1_custom_sum_contain_oxygen_bond_distance_aromatic_linkinvent_7_9_3/rearranged_h_0011.sdf

> <i_m_source_file_index>
43

> <r_mmod_Potential_Energy-OPLS-2005>
657.481567382812

> <r_mmod_Stretch_Energy-OPLS-2005>
327.387390136719

> <r_mmod_Bend_Energy-OPLS-2005>
289.279449462891

> <r_mmod_Torsional_Energy-OPLS-2005>
234.375686645508

> <r_mmod_Improper_Torsional_Energy-OPLS-2005>
4.41164398193359

> <r_mmod_Van_der_Waal_Energy-OPLS-2005>
136.534210205078

> <r_mmod_Electrostatic_Energy-OPLS-2005>
-348.779846191406

> <r_mmod_Solvation_Energy-OPLS-2005>
-230.840881347656

> <b_mmod_Minimization_Converged-OPLS-2005>
0

> <r_mmod_RMS_Derivative-OPLS-2005>
4.90919256210327

$$$$
43
                    3D
 Structure written by MMmdl.
161169  0  0  1  0            999 V2000
  -30.6238  -14.7118   20.4374 C   0  0  0  0  0  0
  -30.4201  -12.4277   19.4694 C   0  0  0  0  0  0
  -29.5037  -12.5066   18.2299 C   0  0  0  0  0  0
  -28.0330  -12.3238   18.6489 C   0  0  0  0  0  0
  -27.6400  -13.2287   19.8489 C   0  0  2  0  0  0
  -28.6844  -13.1551   20.9847 C   0  0  0  0  0  0
  -25.2513  -13.8186   20.5695 C   0  0  0  0  0  0
  -24.1808  -13.0445   20.9193 C   0  0  0  0  0  0
  -24.6409  -11.6923   20.8775 C   0  0  0  0  0  0
  -23.9108  -10.4291   21.0441 C   0  0  0  0  0  0
  -24.3653   -9.4194   21.9214 C   0  0  0  0  0  0
  -23.6307   -8.2240   22.0774 C   0  0  0  0  0  0
  -22.4281   -8.0297   21.3560 C   0  0  0  0  0  0
  -21.9939   -9.0282   20.4662 C   0  0  0  0  0  0
  -22.7279  -10.2150   20.3078 C   0  0  0  0  0  0
  -21.6834   -6.0768   22.5286 C   0  0  0  0  0  0
  -21.4001   -6.5666   23.8218 C   0  0  0  0  0  0
  -21.3629   -5.6808   24.9170 C   0  0  0  0  0  0
  -21.6044   -4.3076   24.7215 C   0  0  0  0  0  0
  -21.8812   -3.8179   23.4326 C   0  0  0  0  0  0
  -21.9194   -4.7007   22.3397 C   0  0  0  0  0  0
  -22.7831  -13.5235   21.1883 C   0  0  0  0  0  0
  -22.1654   -4.2204   21.0967 F   0  0  0  0  0  0
  -21.5631   -3.4551   25.7715 F   0  0  0  0  0  0
  -29.9906  -13.4927   20.4053 N   0  0  0  0  0  0
  -26.2926  -12.9397   20.3263 N   0  0  0  0  0  0
  -25.9331  -11.6544   20.5761 N   0  0  0  0  0  0
  -22.0480  -12.8214   22.0430 N   0  0  0  0  0  0
  -25.4266  -15.1890   20.4094 N   0  0  0  0  0  0
  -31.8184  -14.7806   20.1349 O   0  0  0  0  0  0
  -21.6622   -6.8914   21.4251 O   0  0  0  0  0  0
  -22.3504  -14.5542   20.6726 O   0  0  0  0  0  0
  -24.6291  -31.8586   23.2042 C   0  0  0  0  0  0
  -25.9125  -32.4772   23.8361 C   0  0  1  0  0  0
  -27.2056  -27.2817   20.1207 C   0  0  0  0  0  0
  -25.5920  -33.8585   24.2236 N   0  0  0  0  0  0
  -23.4221  -30.4844   21.5513 C   0  0  2  0  0  0
  -24.8631  -28.9394   20.1117 C   0  0  0  0  0  0
  -22.7498  -29.4614   22.4988 C   0  0  0  0  0  0
  -18.0258  -28.1420   22.8484 C   0  0  0  0  0  0
  -24.1478  -36.7296   23.2653 C   0  0  0  0  0  0
  -25.9699  -30.7681   21.3894 C   0  0  0  0  0  0
  -26.0346  -29.3984   20.7278 C   0  0  0  0  0  0
  -27.2047  -28.5775   20.7293 C   0  0  0  0  0  0
  -26.0125  -26.8995   19.4543 C   0  0  0  0  0  0
  -24.8575  -27.6987   19.4667 C   0  0  0  0  0  0
  -23.6341  -29.8236   20.1654 C   0  0  0  0  0  0
  -25.4119  -36.3084   24.0315 C   0  0  1  0  0  0
  -20.5875  -28.3691   23.1301 C   0  0  2  0  0  0
  -20.6793  -26.9423   22.5427 C   0  0  0  0  0  0
  -19.5768  -26.6361   21.5258 C   0  0  0  0  0  0
  -18.1902  -26.7941   22.1613 C   0  0  0  0  0  0
  -19.1524  -28.8882   23.2852 C   0  0  0  0  0  0
  -18.9489  -30.1496   23.8858 C   0  0  0  0  0  0
  -17.6505  -30.6618   24.0587 C   0  0  0  0  0  0
  -25.9096  -34.9454   23.5086 C   0  0  0  0  0  0
  -16.5381  -29.9140   23.6398 C   0  0  0  0  0  0
  -16.7259  -28.6560   23.0365 C   0  0  0  0  0  0
  -26.4506  -31.6649   25.0797 C   0  0  0  0  0  0
  -25.3681  -31.3805   26.1494 C   0  0  0  0  0  0
  -27.0464  -30.3107   24.6311 C   0  0  0  0  0  0
  -27.5995  -32.4470   25.7568 C   0  0  0  0  0  0
  -27.5560  -37.1786   24.8459 C   0  0  0  0  0  0
  -21.4189  -29.3043   22.3725 N   0  0  0  0  0  0
  -26.4277  -37.3789   23.9398 N   0  0  0  0  0  0
  -24.6924  -31.0551   22.1029 N   0  0  0  0  0  0
  -23.4179  -28.8166   23.3087 O   0  0  0  0  0  0
  -28.2910  -26.3812   20.1995 O   0  0  0  0  0  0
  -26.5649  -34.8916   22.4649 O   0  0  0  0  0  0
  -23.5431  -32.1433   23.7336 O   0  0  0  0  0  0
  -31.0372  -17.5096   19.1264 C   0  0  0  0  0  0
  -30.6474  -19.9318   19.2048 C   0  0  0  0  0  0
  -30.1258  -17.2661   20.1828 C   0  0  0  0  0  0
  -29.7446  -19.8166   20.2825 C   0  0  0  0  0  0
  -31.2781  -18.8081   18.6396 C   0  0  0  0  0  0
  -29.4520  -18.4437   20.7153 C   0  0  0  0  0  0
  -30.3130  -20.2359   23.1121 C   0  0  0  0  0  0
  -27.0910  -21.9520   20.1577 C   0  0  0  0  0  0
  -28.9182  -23.7360   20.5563 C   0  0  0  0  0  0
  -29.4121  -21.2476   22.3491 C   0  0  0  0  0  0
  -28.0176  -24.9281   19.9585 C   0  0  0  0  0  0
  -28.6102  -22.1963   20.1253 C   0  0  1  0  0  0
  -29.8674  -15.8626   20.6246 N   0  0  0  0  0  0
  -29.2991  -21.0715   20.8884 N   0  0  0  0  0  0
  -32.1471  -18.9784   17.6133 F   0  0  0  0  0  0
  -28.4997  -18.2381   21.6584 F   0  0  0  0  0  0
  -31.4665  -12.5254   19.1763 H   0  0  0  0  0  0
  -30.3359  -11.4482   19.9404 H   0  0  0  0  0  0
  -29.7825  -11.7453   17.5004 H   0  0  0  0  0  0
  -29.6278  -13.4693   17.7307 H   0  0  0  0  0  0
  -27.9038  -11.2753   18.9226 H   0  0  0  0  0  0
  -27.3661  -12.4978   17.8021 H   0  0  0  0  0  0
  -27.6369  -14.2494   19.4680 H   0  0  0  0  0  0
  -28.7068  -12.1545   21.4175 H   0  0  0  0  0  0
  -28.4231  -13.8347   21.7977 H   0  0  0  0  0  0
  -25.2814   -9.5647   22.4770 H   0  0  0  0  0  0
  -24.0018   -7.4620   22.7479 H   0  0  0  0  0  0
  -21.0880   -8.8817   19.8947 H   0  0  0  0  0  0
  -22.3782  -10.9706   19.6173 H   0  0  0  0  0  0
  -21.1966   -7.6170   23.9737 H   0  0  0  0  0  0
  -21.1444   -6.0530   25.9073 H   0  0  0  0  0  0
  -22.0614   -2.7656   23.2800 H   0  0  0  0  0  0
  -22.4094  -11.9843   22.4783 H   0  0  0  0  0  0
  -21.1117  -13.1270   22.2720 H   0  0  0  0  0  0
  -24.6719  -15.8550   20.5257 H   0  0  0  0  0  0
  -26.2823  -15.6204   20.0877 H   0  0  0  0  0  0
  -26.7165  -32.5396   23.1061 H   0  0  0  0  0  0
  -25.0145  -33.9767   25.0424 H   0  0  0  0  0  0
  -22.7185  -31.3074   21.4074 H   0  0  0  0  0  0
  -23.3763  -35.9606   23.3317 H   0  0  0  0  0  0
  -24.3585  -36.8964   22.2078 H   0  0  0  0  0  0
  -23.7203  -37.6468   23.6733 H   0  0  0  0  0  0
  -26.1225  -31.5249   20.6205 H   0  0  0  0  0  0
  -26.8442  -30.8047   22.0300 H   0  0  0  0  0  0
  -28.0927  -28.9156   21.2445 H   0  0  0  0  0  0
  -25.9366  -25.9601   18.9280 H   0  0  0  0  0  0
  -23.9626  -27.3474   18.9681 H   0  0  0  0  0  0
  -23.7539  -30.6057   19.4134 H   0  0  0  0  0  0
  -22.7507  -29.2587   19.8597 H   0  0  0  0  0  0
  -25.1288  -36.1946   25.0802 H   0  0  0  0  0  0
  -20.9899  -28.3250   24.1457 H   0  0  0  0  0  0
  -20.5814  -26.2281   23.3616 H   0  0  0  0  0  0
  -21.6623  -26.7547   22.1146 H   0  0  0  0  0  0
  -19.6969  -25.6263   21.1332 H   0  0  0  0  0  0
  -19.6737  -27.3132   20.6765 H   0  0  0  0  0  0
  -17.4202  -26.6724   21.3971 H   0  0  0  0  0  0
  -18.0260  -26.0074   22.9000 H   0  0  0  0  0  0
  -19.7990  -30.7310   24.2129 H   0  0  0  0  0  0
  -17.5096  -31.6303   24.5172 H   0  0  0  0  0  0
  -15.5393  -30.3048   23.7789 H   0  0  0  0  0  0
  -15.8622  -28.0924   22.7085 H   0  0  0  0  0  0
  -24.5800  -30.7230   25.7784 H   0  0  0  0  0  0
  -24.8944  -32.3012   26.4932 H   0  0  0  0  0  0
  -25.7943  -30.8941   27.0270 H   0  0  0  0  0  0
  -26.3143  -29.6775   24.1298 H   0  0  0  0  0  0
  -27.4183  -29.7446   25.4849 H   0  0  0  0  0  0
  -27.8945  -30.4488   23.9599 H   0  0  0  0  0  0
  -27.2537  -33.3775   26.2059 H   0  0  0  0  0  0
  -28.3824  -32.7034   25.0428 H   0  0  0  0  0  0
  -28.0624  -31.8687   26.5561 H   0  0  0  0  0  0
  -28.2546  -38.0113   24.7571 H   0  0  0  0  0  0
  -28.1088  -36.2654   24.6222 H   0  0  0  0  0  0
  -27.2296  -37.1341   25.8863 H   0  0  0  0  0  0
  -20.9397  -29.8756   21.6921 H   0  0  0  0  0  0
  -26.0174  -38.2862   24.1426 H   0  0  0  0  0  0
  -31.5616  -16.7007   18.6434 H   0  0  0  0  0  0
  -30.9114  -20.9051   18.8218 H   0  0  0  0  0  0
  -30.5217  -20.6289   24.1042 H   0  0  0  0  0  0
  -31.2863  -20.0784   22.6366 H   0  0  0  0  0  0
  -29.8521  -19.2597   23.2855 H   0  0  0  0  0  0
  -26.5487  -22.6500   19.5201 H   0  0  0  0  0  0
  -26.6966  -22.0607   21.1685 H   0  0  0  0  0  0
  -26.8367  -20.9530   19.8036 H   0  0  0  0  0  0
  -28.8111  -23.8274   21.6340 H   0  0  0  0  0  0
  -29.9654  -23.9542   20.3490 H   0  0  0  0  0  0
  -29.8696  -22.2329   22.5021 H   0  0  0  0  0  0
  -28.4149  -21.3294   22.8008 H   0  0  0  0  0  0
  -27.0300  -24.7251   20.3728 H   0  0  0  0  0  0
  -27.9320  -24.7879   18.8798 H   0  0  0  0  0  0
  -28.9166  -22.1124   19.0803 H   0  0  0  0  0  0
  -28.9554  -15.7096   21.0277 H   0  0  0  0  0  0
  1 25  1  0  0  0
  1 30  2  0  0  0
  1 83  1  0  0  0
  2  3  1  0  0  0
  2 25  1  0  0  0
  2 87  1  0  0  0
  2 88  1  0  0  0
  3  4  1  0  0  0
  3 89  1  0  0  0
  3 90  1  0  0  0
  4  5  1  0  0  0
  4 91  1  0  0  0
  4 92  1  0  0  0
  5  6  1  0  0  0
  5 26  1  0  0  0
  5 93  1  0  0  0
  6 25  1  0  0  0
  6 94  1  0  0  0
  6 95  1  0  0  0
  7  8  2  0  0  0
  7 26  1  0  0  0
  7 29  1  0  0  0
  8  9  1  0  0  0
  8 22  1  0  0  0
  9 10  1  0  0  0
  9 27  2  0  0  0
 10 11  2  0  0  0
 10 15  1  0  0  0
 11 12  1  0  0  0
 11 96  1  0  0  0
 12 13  2  0  0  0
 12 97  1  0  0  0
 13 14  1  0  0  0
 13 31  1  0  0  0
 14 15  2  0  0  0
 14 98  1  0  0  0
 15 99  1  0  0  0
 16 17  2  0  0  0
 16 21  1  0  0  0
 16 31  1  0  0  0
 17 18  1  0  0  0
 17100  1  0  0  0
 18 19  2  0  0  0
 18101  1  0  0  0
 19 20  1  0  0  0
 19 24  1  0  0  0
 20 21  2  0  0  0
 20102  1  0  0  0
 21 23  1  0  0  0
 22 28  1  0  0  0
 22 32  2  0  0  0
 26 27  1  0  0  0
 28103  1  0  0  0
 28104  1  0  0  0
 29105  1  0  0  0
 29106  1  0  0  0
 33 34  1  0  0  0
 33 66  1  0  0  0
 33 70  2  0  0  0
 34 36  1  0  0  0
 34 59  1  0  0  0
 34107  1  0  0  0
 35 44  2  0  0  0
 35 45  1  0  0  0
 35 68  1  0  0  0
 36 56  1  0  0  0
 36108  1  0  0  0
 37 39  1  0  0  0
 37 47  1  0  0  0
 37 66  1  0  0  0
 37109  1  0  0  0
 38 43  2  0  0  0
 38 46  1  0  0  0
 38 47  1  0  0  0
 39 64  1  0  0  0
 39 67  2  0  0  0
 40 52  1  0  0  0
 40 53  2  0  0  0
 40 58  1  0  0  0
 41110  1  0  0  0
 41111  1  0  0  0
 41112  1  0  0  0
 41 48  1  0  0  0
 42 43  1  0  0  0
 42 66  1  0  0  0
 42113  1  0  0  0
 42114  1  0  0  0
 43 44  1  0  0  0
 44115  1  0  0  0
 45 46  2  0  0  0
 45116  1  0  0  0
 46117  1  0  0  0
 47118  1  0  0  0
 47119  1  0  0  0
 48 56  1  0  0  0
 48 65  1  0  0  0
 48120  1  0  0  0
 49 50  1  0  0  0
 49 53  1  0  0  0
 49 64  1  0  0  0
 49121  1  0  0  0
 50 51  1  0  0  0
 50122  1  0  0  0
 50123  1  0  0  0
 51 52  1  0  0  0
 51124  1  0  0  0
 51125  1  0  0  0
 52126  1  0  0  0
 52127  1  0  0  0
 53 54  1  0  0  0
 54 55  2  0  0  0
 54128  1  0  0  0
 55 57  1  0  0  0
 55129  1  0  0  0
 56 69  2  0  0  0
 57 58  2  0  0  0
 57130  1  0  0  0
 58131  1  0  0  0
 59 60  1  0  0  0
 59 61  1  0  0  0
 59 62  1  0  0  0
 60132  1  0  0  0
 60133  1  0  0  0
 60134  1  0  0  0
 61135  1  0  0  0
 61136  1  0  0  0
 61137  1  0  0  0
 62138  1  0  0  0
 62139  1  0  0  0
 62140  1  0  0  0
 63 65  1  0  0  0
 63141  1  0  0  0
 63142  1  0  0  0
 63143  1  0  0  0
 64144  1  0  0  0
 65145  1  0  0  0
 68 81  1  0  0  0
 71 73  2  0  0  0
 71 75  1  0  0  0
 71146  1  0  0  0
 72 74  1  0  0  0
 72 75  2  0  0  0
 72147  1  0  0  0
 73 76  1  0  0  0
 73 83  1  0  0  0
 74 76  2  0  0  0
 74 84  1  0  0  0
 75 85  1  0  0  0
 76 86  1  0  0  0
 77 80  1  0  0  0
 77148  1  0  0  0
 77149  1  0  0  0
 77150  1  0  0  0
 78151  1  0  0  0
 78152  1  0  0  0
 78153  1  0  0  0
 78 82  1  0  0  0
 79 81  1  0  0  0
 79 82  1  0  0  0
 79154  1  0  0  0
 79155  1  0  0  0
 80 84  1  0  0  0
 80156  1  0  0  0
 80157  1  0  0  0
 81158  1  0  0  0
 81159  1  0  0  0
 82 84  1  0  0  0
 82160  1  0  0  0
 83161  1  0  0  0
M  ISO  4   1 100  68 101  81 101  83 100
M  END
> <chiral flag>
0

> <version>
0

> <s_m_source_file>
/data/baiqing/PycharmProjects/Reinvent-master-3.2/result/LINK_invent/BTK/process_docking_weight1_custom_sum_contain_oxygen_bond_distance_aromatic_linkinvent_7_9_3/rearranged_h_0011.sdf

> <i_m_source_file_index>
44

> <r_mmod_Potential_Energy-OPLS-2005>
233.954971313477

> <r_mmod_Stretch_Energy-OPLS-2005>
125.536796569824

> <r_mmod_Bend_Energy-OPLS-2005>
174.283554077148

> <r_mmod_Torsional_Energy-OPLS-2005>
251.485931396484

> <r_mmod_Improper_Torsional_Energy-OPLS-2005>
4.61432647705078

> <r_mmod_Van_der_Waal_Energy-OPLS-2005>
155.40168762207

> <r_mmod_Electrostatic_Energy-OPLS-2005>
-354.084930419922

> <r_mmod_Solvation_Energy-OPLS-2005>
-200.483200073242

> <b_mmod_Minimization_Converged-OPLS-2005>
0

> <r_mmod_RMS_Derivative-OPLS-2005>
5.97729253768921

$$$$
44
                    3D
 Structure written by MMmdl.
157165  0  0  1  0            999 V2000
  -30.7053  -14.4342   20.6366 C   0  0  0  0  0  0
  -30.4300  -12.3056   19.4079 C   0  0  0  0  0  0
  -29.4961  -12.5212   18.1995 C   0  0  0  0  0  0
  -28.0156  -12.3807   18.6105 C   0  0  0  0  0  0
  -27.6666  -13.2017   19.8804 C   0  0  2  0  0  0
  -28.7051  -12.9411   20.9935 C   0  0  0  0  0  0
  -25.2609  -13.8149   20.5671 C   0  0  0  0  0  0
  -24.1856  -13.0433   20.9168 C   0  0  0  0  0  0
  -24.6412  -11.6901   20.8741 C   0  0  0  0  0  0
  -23.9077  -10.4288   21.0414 C   0  0  0  0  0  0
  -24.3625   -9.4204   21.9195 C   0  0  0  0  0  0
  -23.6296   -8.2244   22.0765 C   0  0  0  0  0  0
  -22.4281   -8.0288   21.3546 C   0  0  0  0  0  0
  -21.9916   -9.0263   20.4652 C   0  0  0  0  0  0
  -22.7247  -10.2139   20.3063 C   0  0  0  0  0  0
  -21.6855   -6.0750   22.5286 C   0  0  0  0  0  0
  -21.4013   -6.5649   23.8222 C   0  0  0  0  0  0
  -21.3657   -5.6795   24.9180 C   0  0  0  0  0  0
  -21.6045   -4.3060   24.7230 C   0  0  0  0  0  0
  -21.8818   -3.8161   23.4346 C   0  0  0  0  0  0
  -21.9190   -4.6978   22.3402 C   0  0  0  0  0  0
  -22.7877  -13.5232   21.1834 C   0  0  0  0  0  0
  -22.1656   -4.2163   21.0978 F   0  0  0  0  0  0
  -21.5627   -3.4544   25.7740 F   0  0  0  0  0  0
  -30.0402  -13.2613   20.4553 N   0  0  0  0  0  0
  -26.3050  -12.9313   20.3375 N   0  0  0  0  0  0
  -25.9332  -11.6473   20.5768 N   0  0  0  0  0  0
  -22.0511  -12.8232   22.0396 N   0  0  0  0  0  0
  -25.4350  -15.1865   20.4091 N   0  0  0  0  0  0
  -31.7943  -14.6814   20.1082 O   0  0  0  0  0  0
  -21.6636   -6.8888   21.4250 O   0  0  0  0  0  0
  -22.3564  -14.5542   20.6687 O   0  0  0  0  0  0
  -24.6111  -31.8692   23.2131 C   0  0  0  0  0  0
  -25.9017  -32.4837   23.8411 C   0  0  1  0  0  0
  -27.2444  -27.4572   20.1026 C   0  0  0  0  0  0
  -25.5882  -33.8637   24.2343 N   0  0  0  0  0  0
  -23.3993  -30.4907   21.5521 C   0  0  2  0  0  0
  -24.8508  -28.9547   20.1213 C   0  0  0  0  0  0
  -22.7393  -29.4663   22.5015 C   0  0  0  0  0  0
  -18.0266  -28.1375   22.8498 C   0  0  0  0  0  0
  -24.1484  -36.7325   23.2640 C   0  0  0  0  0  0
  -25.9250  -30.8396   21.3657 C   0  0  0  0  0  0
  -26.0052  -29.4716   20.7238 C   0  0  0  0  0  0
  -27.2051  -28.7273   20.7218 C   0  0  0  0  0  0
  -26.0809  -26.9525   19.4900 C   0  0  0  0  0  0
  -24.8810  -27.6898   19.5056 C   0  0  0  0  0  0
  -23.6095  -29.8183   20.1682 C   0  0  0  0  0  0
  -25.4104  -36.3127   24.0341 C   0  0  1  0  0  0
  -20.5854  -28.3657   23.1336 C   0  0  2  0  0  0
  -20.6761  -26.9397   22.5428 C   0  0  0  0  0  0
  -19.5743  -26.6384   21.5225 C   0  0  0  0  0  0
  -18.1916  -26.7924   22.1623 C   0  0  0  0  0  0
  -19.1514  -28.8834   23.2912 C   0  0  0  0  0  0
  -18.9445  -30.1442   23.8918 C   0  0  0  0  0  0
  -17.6448  -30.6582   24.0571 C   0  0  0  0  0  0
  -25.9027  -34.9488   23.5141 C   0  0  0  0  0  0
  -16.5338  -29.9085   23.6330 C   0  0  0  0  0  0
  -16.7254  -28.6505   23.0346 C   0  0  0  0  0  0
  -26.4457  -31.6605   25.0724 C   0  0  0  0  0  0
  -25.3735  -31.3706   26.1480 C   0  0  0  0  0  0
  -27.0288  -30.3050   24.6090 C   0  0  0  0  0  0
  -27.6040  -32.4318   25.7477 C   0  0  0  0  0  0
  -27.5585  -37.1815   24.8463 C   0  0  0  0  0  0
  -21.4127  -29.3025   22.3743 N   0  0  0  0  0  0
  -26.4296  -37.3804   23.9411 N   0  0  0  0  0  0
  -24.6628  -31.0808   22.1025 N   0  0  0  0  0  0
  -23.4169  -28.8212   23.3057 O   0  0  0  0  0  0
  -28.3950  -26.7100   20.0213 O   0  0  0  0  0  0
  -26.5591  -34.8931   22.4703 O   0  0  0  0  0  0
  -23.5312  -32.1443   23.7533 O   0  0  0  0  0  0
  -30.9131  -19.4419   22.0367 C   0  0  0  0  0  0
  -31.5547  -18.4490   22.8056 C   0  0  0  0  0  0
  -29.7477  -17.7032   20.7913 C   0  0  0  0  0  0
  -30.0075  -19.0764   21.0159 C   0  0  0  0  0  0
  -30.3906  -16.7032   21.5583 C   0  0  0  0  0  0
  -31.2958  -17.0828   22.5758 C   0  0  0  0  0  0
  -29.6413  -23.8577   20.6949 C   0  0  0  0  0  0
  -29.2845  -20.1183   20.1584 C   0  0  0  0  0  0
  -28.7996  -24.8234   21.5466 C   0  0  0  0  0  0
  -29.9747  -21.4963   19.9846 C   0  0  0  0  0  0
  -29.0054  -26.3323   21.2576 C   0  0  0  0  0  0
  -30.0384  -15.3423   21.3680 N   0  0  0  0  0  0
  -29.3756  -22.5466   20.8145 N   0  0  0  0  0  0
  -30.5142  -24.2776   19.9319 O   0  0  0  0  0  0
  -32.0653  -15.8989   23.5747 Cl  0  0  0  0  0  0
  -31.4728  -12.4204   19.1057 H   0  0  0  0  0  0
  -30.3401  -11.2868   19.7863 H   0  0  0  0  0  0
  -29.7319  -11.8082   17.4083 H   0  0  0  0  0  0
  -29.6663  -13.5132   17.7774 H   0  0  0  0  0  0
  -27.8167  -11.3235   18.7877 H   0  0  0  0  0  0
  -27.3682  -12.6756   17.7837 H   0  0  0  0  0  0
  -27.7220  -14.2551   19.6082 H   0  0  0  0  0  0
  -28.6802  -11.8921   21.2904 H   0  0  0  0  0  0
  -28.4548  -13.4956   21.8976 H   0  0  0  0  0  0
  -25.2780   -9.5671   22.4759 H   0  0  0  0  0  0
  -24.0014   -7.4630   22.7474 H   0  0  0  0  0  0
  -21.0849   -8.8777   19.8952 H   0  0  0  0  0  0
  -22.3720  -10.9677   19.6163 H   0  0  0  0  0  0
  -21.2006   -7.6158   23.9729 H   0  0  0  0  0  0
  -21.1479   -6.0527   25.9078 H   0  0  0  0  0  0
  -22.0601   -2.7628   23.2844 H   0  0  0  0  0  0
  -22.4115  -11.9893   22.4780 H   0  0  0  0  0  0
  -21.1135  -13.1279   22.2594 H   0  0  0  0  0  0
  -24.6723  -15.8462   20.5181 H   0  0  0  0  0  0
  -26.2938  -15.6261   20.1021 H   0  0  0  0  0  0
  -26.7093  -32.5568   23.1184 H   0  0  0  0  0  0
  -25.0033  -33.9803   25.0488 H   0  0  0  0  0  0
  -22.6880  -31.3071   21.4122 H   0  0  0  0  0  0
  -23.3741  -35.9662   23.3315 H   0  0  0  0  0  0
  -24.3580  -36.8923   22.2051 H   0  0  0  0  0  0
  -23.7239  -37.6537   23.6640 H   0  0  0  0  0  0
  -26.0317  -31.6010   20.5917 H   0  0  0  0  0  0
  -26.8151  -30.8998   21.9802 H   0  0  0  0  0  0
  -28.0980  -29.1334   21.1769 H   0  0  0  0  0  0
  -26.1078  -25.9873   19.0041 H   0  0  0  0  0  0
  -23.9955  -27.2856   19.0350 H   0  0  0  0  0  0
  -23.7156  -30.5911   19.4063 H   0  0  0  0  0  0
  -22.7354  -29.2340   19.8753 H   0  0  0  0  0  0
  -25.1282  -36.1999   25.0836 H   0  0  0  0  0  0
  -20.9943  -28.3220   24.1458 H   0  0  0  0  0  0
  -20.5683  -26.2261   23.3609 H   0  0  0  0  0  0
  -21.6631  -26.7454   22.1211 H   0  0  0  0  0  0
  -19.6905  -25.6301   21.1240 H   0  0  0  0  0  0
  -19.6686  -27.3213   20.6769 H   0  0  0  0  0  0
  -17.4193  -26.6682   21.4018 H   0  0  0  0  0  0
  -18.0302  -26.0057   22.9010 H   0  0  0  0  0  0
  -19.7916  -30.7257   24.2291 H   0  0  0  0  0  0
  -17.5000  -31.6270   24.5158 H   0  0  0  0  0  0
  -15.5339  -30.2997   23.7645 H   0  0  0  0  0  0
  -15.8652  -28.0841   22.7043 H   0  0  0  0  0  0
  -24.5882  -30.7083   25.7815 H   0  0  0  0  0  0
  -24.8953  -32.2865   26.4967 H   0  0  0  0  0  0
  -25.8086  -30.8837   27.0215 H   0  0  0  0  0  0
  -26.2832  -29.6812   24.1142 H   0  0  0  0  0  0
  -27.4065  -29.7282   25.4544 H   0  0  0  0  0  0
  -27.8664  -30.4378   23.9234 H   0  0  0  0  0  0
  -27.2664  -33.3602   26.2095 H   0  0  0  0  0  0
  -28.3821  -32.6901   25.0282 H   0  0  0  0  0  0
  -28.0736  -31.8416   26.5357 H   0  0  0  0  0  0
  -28.2610  -38.0106   24.7512 H   0  0  0  0  0  0
  -28.1072  -36.2641   24.6282 H   0  0  0  0  0  0
  -27.2305  -37.1462   25.8865 H   0  0  0  0  0  0
  -20.9285  -29.8732   21.6953 H   0  0  0  0  0  0
  -26.0192  -38.2887   24.1401 H   0  0  0  0  0  0
  -31.1223  -20.4823   22.2445 H   0  0  0  0  0  0
  -32.2403  -18.7369   23.5891 H   0  0  0  0  0  0
  -29.0394  -17.4148   20.0266 H   0  0  0  0  0  0
  -28.2626  -20.2385   20.5223 H   0  0  0  0  0  0
  -29.1813  -19.6813   19.1641 H   0  0  0  0  0  0
  -29.0536  -24.6332   22.5903 H   0  0  0  0  0  0
  -27.7446  -24.5713   21.4390 H   0  0  0  0  0  0
  -29.8339  -21.8044   18.9471 H   0  0  0  0  0  0
  -31.0559  -21.4364   20.1228 H   0  0  0  0  0  0
  -30.0676  -26.5750   21.2088 H   0  0  0  0  0  0
  -28.6108  -26.9068   22.0972 H   0  0  0  0  0  0
  -29.1387  -15.0540   21.7202 H   0  0  0  0  0  0
  -28.6602  -22.2673   21.4733 H   0  0  0  0  0  0
  1 25  1  0  0  0
  1 30  2  0  0  0
  1 82  1  0  0  0
  2  3  1  0  0  0
  2 25  1  0  0  0
  2 86  1  0  0  0
  2 87  1  0  0  0
  3  4  1  0  0  0
  3 88  1  0  0  0
  3 89  1  0  0  0
  4  5  1  0  0  0
  4 90  1  0  0  0
  4 91  1  0  0  0
  5  6  1  0  0  0
  5 26  1  0  0  0
  5 92  1  0  0  0
  6 25  1  0  0  0
  6 93  1  0  0  0
  6 94  1  0  0  0
  7  8  2  0  0  0
  7 26  1  0  0  0
  7 29  1  0  0  0
  8  9  1  0  0  0
  8 22  1  0  0  0
  9 10  1  0  0  0
  9 27  2  0  0  0
 10 11  2  0  0  0
 10 15  1  0  0  0
 11 12  1  0  0  0
 11 95  1  0  0  0
 12 13  2  0  0  0
 12 96  1  0  0  0
 13 14  1  0  0  0
 13 31  1  0  0  0
 14 15  2  0  0  0
 14 97  1  0  0  0
 15 98  1  0  0  0
 16 17  2  0  0  0
 16 21  1  0  0  0
 16 31  1  0  0  0
 17 18  1  0  0  0
 17 99  1  0  0  0
 18 19  2  0  0  0
 18100  1  0  0  0
 19 20  1  0  0  0
 19 24  1  0  0  0
 20 21  2  0  0  0
 20101  1  0  0  0
 21 23  1  0  0  0
 22 28  1  0  0  0
 22 32  2  0  0  0
 26 27  1  0  0  0
 28102  1  0  0  0
 28103  1  0  0  0
 29104  1  0  0  0
 29105  1  0  0  0
 33 34  1  0  0  0
 33 66  1  0  0  0
 33 70  2  0  0  0
 34 36  1  0  0  0
 34 59  1  0  0  0
 34106  1  0  0  0
 35 44  2  0  0  0
 35 45  1  0  0  0
 35 68  1  0  0  0
 36 56  1  0  0  0
 36107  1  0  0  0
 37 39  1  0  0  0
 37 47  1  0  0  0
 37 66  1  0  0  0
 37108  1  0  0  0
 38 43  2  0  0  0
 38 46  1  0  0  0
 38 47  1  0  0  0
 39 64  1  0  0  0
 39 67  2  0  0  0
 40 52  1  0  0  0
 40 53  2  0  0  0
 40 58  1  0  0  0
 41109  1  0  0  0
 41110  1  0  0  0
 41111  1  0  0  0
 41 48  1  0  0  0
 42 43  1  0  0  0
 42 66  1  0  0  0
 42112  1  0  0  0
 42113  1  0  0  0
 43 44  1  0  0  0
 44114  1  0  0  0
 45 46  2  0  0  0
 45115  1  0  0  0
 46116  1  0  0  0
 47117  1  0  0  0
 47118  1  0  0  0
 48 56  1  0  0  0
 48 65  1  0  0  0
 48119  1  0  0  0
 49 50  1  0  0  0
 49 53  1  0  0  0
 49 64  1  0  0  0
 49120  1  0  0  0
 50 51  1  0  0  0
 50121  1  0  0  0
 50122  1  0  0  0
 51 52  1  0  0  0
 51123  1  0  0  0
 51124  1  0  0  0
 52125  1  0  0  0
 52126  1  0  0  0
 53 54  1  0  0  0
 54 55  2  0  0  0
 54127  1  0  0  0
 55 57  1  0  0  0
 55128  1  0  0  0
 56 69  2  0  0  0
 57 58  2  0  0  0
 57129  1  0  0  0
 58130  1  0  0  0
 59 60  1  0  0  0
 59 61  1  0  0  0
 59 62  1  0  0  0
 60131  1  0  0  0
 60132  1  0  0  0
 60133  1  0  0  0
 61134  1  0  0  0
 61135  1  0  0  0
 61136  1  0  0  0
 62137  1  0  0  0
 62138  1  0  0  0
 62139  1  0  0  0
 63 65  1  0  0  0
 63140  1  0  0  0
 63141  1  0  0  0
 63142  1  0  0  0
 64143  1  0  0  0
 65144  1  0  0  0
 68 81  1  0  0  0
 71 72  2  0  0  0
 71 74  1  0  0  0
 71145  1  0  0  0
 72 76  1  0  0  0
 72146  1  0  0  0
 73 74  2  0  0  0
 73 75  1  0  0  0
 73147  1  0  0  0
 74 78  1  0  0  0
 75 76  2  0  0  0
 75 82  1  0  0  0
 76 85  1  0  0  0
 77 79  1  0  0  0
 77 83  1  0  0  0
 77 84  2  0  0  0
 78 80  1  0  0  0
 78148  1  0  0  0
 78149  1  0  0  0
 79 81  1  0  0  0
 79150  1  0  0  0
 79151  1  0  0  0
 80 83  1  0  0  0
 80152  1  0  0  0
 80153  1  0  0  0
 81154  1  0  0  0
 81155  1  0  0  0
 82156  1  0  0  0
 83157  1  0  0  0
M  ISO  4   1 100  68 101  81 101  82 100
M  END
> <chiral flag>
0

> <version>
0

> <s_m_source_file>
/data/baiqing/PycharmProjects/Reinvent-master-3.2/result/LINK_invent/BTK/process_docking_weight1_custom_sum_contain_oxygen_bond_distance_aromatic_linkinvent_7_9_3/rearranged_h_0011.sdf

> <i_m_source_file_index>
45

> <r_mmod_Potential_Energy-OPLS-2005>
-125.31519317627

> <r_mmod_Stretch_Energy-OPLS-2005>
34.4897651672363

> <r_mmod_Bend_Energy-OPLS-2005>
92.711311340332

> <r_mmod_Torsional_Energy-OPLS-2005>
255.392044067383

> <r_mmod_Improper_Torsional_Energy-OPLS-2005>
2.91419005393982

> <r_mmod_Van_der_Waal_Energy-OPLS-2005>
149.689743041992

> <r_mmod_Electrostatic_Energy-OPLS-2005>
-425.039764404297

> <r_mmod_Solvation_Energy-OPLS-2005>
-243.446060180664

> <b_mmod_Minimization_Converged-OPLS-2005>
0

> <r_mmod_RMS_Derivative-OPLS-2005>
1.52158641815186

$$$$
45
                    3D
 Structure written by MMmdl.
151159  0  0  1  0            999 V2000
  -30.5970  -14.7547   20.4645 C   0  0  0  0  0  0
  -30.4376  -12.4627   19.4673 C   0  0  0  0  0  0
  -29.5093  -12.5002   18.2334 C   0  0  0  0  0  0
  -28.0371  -12.3188   18.6516 C   0  0  0  0  0  0
  -27.6406  -13.2250   19.8469 C   0  0  2  0  0  0
  -28.6867  -13.1634   20.9808 C   0  0  0  0  0  0
  -25.2510  -13.8182   20.5684 C   0  0  0  0  0  0
  -24.1799  -13.0436   20.9213 C   0  0  0  0  0  0
  -24.6385  -11.6912   20.8760 C   0  0  0  0  0  0
  -23.9062  -10.4293   21.0415 C   0  0  0  0  0  0
  -24.3617   -9.4206   21.9188 C   0  0  0  0  0  0
  -23.6291   -8.2241   22.0752 C   0  0  0  0  0  0
  -22.4271   -8.0282   21.3541 C   0  0  0  0  0  0
  -21.9908   -9.0255   20.4642 C   0  0  0  0  0  0
  -22.7238  -10.2134   20.3057 C   0  0  0  0  0  0
  -21.6852   -6.0734   22.5281 C   0  0  0  0  0  0
  -21.4013   -6.5638   23.8214 C   0  0  0  0  0  0
  -21.3657   -5.6791   24.9178 C   0  0  0  0  0  0
  -21.6045   -4.3053   24.7227 C   0  0  0  0  0  0
  -21.8820   -3.8146   23.4347 C   0  0  0  0  0  0
  -21.9191   -4.6963   22.3405 C   0  0  0  0  0  0
  -22.7822  -13.5224   21.1875 C   0  0  0  0  0  0
  -22.1661   -4.2146   21.0981 F   0  0  0  0  0  0
  -21.5628   -3.4538   25.7740 F   0  0  0  0  0  0
  -29.9829  -13.5241   20.3932 N   0  0  0  0  0  0
  -26.2929  -12.9373   20.3268 N   0  0  0  0  0  0
  -25.9311  -11.6526   20.5758 N   0  0  0  0  0  0
  -22.0467  -12.8211   22.0427 N   0  0  0  0  0  0
  -25.4184  -15.1909   20.4075 N   0  0  0  0  0  0
  -31.7919  -14.8551   20.1705 O   0  0  0  0  0  0
  -21.6637   -6.8876   21.4240 O   0  0  0  0  0  0
  -22.3509  -14.5531   20.6721 O   0  0  0  0  0  0
  -24.6308  -31.8537   23.1965 C   0  0  0  0  0  0
  -25.9130  -32.4747   23.8316 C   0  0  1  0  0  0
  -27.2239  -27.2624   20.1383 C   0  0  0  0  0  0
  -25.5926  -33.8546   24.2243 N   0  0  0  0  0  0
  -23.4283  -30.4743   21.5399 C   0  0  2  0  0  0
  -24.8770  -28.9135   20.1153 C   0  0  0  0  0  0
  -22.7500  -29.4590   22.4910 C   0  0  0  0  0  0
  -18.0292  -28.1375   22.8470 C   0  0  0  0  0  0
  -24.1491  -36.7281   23.2641 C   0  0  0  0  0  0
  -25.9734  -30.7684   21.3740 C   0  0  0  0  0  0
  -26.0485  -29.3884   20.7203 C   0  0  0  0  0  0
  -27.2284  -28.5770   20.7145 C   0  0  0  0  0  0
  -26.0312  -26.8467   19.5130 C   0  0  0  0  0  0
  -24.8728  -27.6502   19.5007 C   0  0  0  0  0  0
  -23.6475  -29.8014   20.1583 C   0  0  0  0  0  0
  -25.4119  -36.3060   24.0323 C   0  0  1  0  0  0
  -20.5897  -28.3686   23.1262 C   0  0  2  0  0  0
  -20.6778  -26.9401   22.5402 C   0  0  0  0  0  0
  -19.5757  -26.6370   21.5200 C   0  0  0  0  0  0
  -18.1937  -26.7916   22.1611 C   0  0  0  0  0  0
  -19.1548  -28.8849   23.2859 C   0  0  0  0  0  0
  -18.9471  -30.1451   23.8876 C   0  0  0  0  0  0
  -17.6472  -30.6578   24.0556 C   0  0  0  0  0  0
  -25.9052  -34.9430   23.5083 C   0  0  0  0  0  0
  -16.5359  -29.9076   23.6329 C   0  0  0  0  0  0
  -16.7280  -28.6495   23.0344 C   0  0  0  0  0  0
  -26.4500  -31.6583   25.0709 C   0  0  0  0  0  0
  -25.3716  -31.3742   26.1425 C   0  0  0  0  0  0
  -27.0355  -30.3003   24.6193 C   0  0  0  0  0  0
  -27.6048  -32.4336   25.7485 C   0  0  0  0  0  0
  -27.5577  -37.1798   24.8464 C   0  0  0  0  0  0
  -21.4208  -29.3040   22.3657 N   0  0  0  0  0  0
  -26.4291  -37.3759   23.9403 N   0  0  0  0  0  0
  -24.6968  -31.0504   22.0936 N   0  0  0  0  0  0
  -23.4202  -28.8134   23.3010 O   0  0  0  0  0  0
  -28.3225  -26.3778   20.1326 O   0  0  0  0  0  0
  -26.5625  -34.8906   22.4655 O   0  0  0  0  0  0
  -23.5458  -32.1359   23.7263 O   0  0  0  0  0  0
  -30.6670  -20.0897   21.4064 C   0  0  0  0  0  0
  -31.4248  -19.0313   21.9536 C   0  0  0  0  0  0
  -29.3090  -18.4292   20.2625 C   0  0  0  0  0  0
  -29.5794  -19.8360   20.5476 C   0  0  0  0  0  0
  -30.0876  -17.3161   20.7975 C   0  0  0  0  0  0
  -31.1439  -17.6769   21.6687 C   0  0  0  0  0  0
  -28.5098  -23.6988   19.9230 C   0  0  0  0  0  0
  -28.7902  -21.0703   19.9075 C   0  0  0  0  0  0
  -28.1742  -25.0221   20.7718 C   0  0  0  0  0  0
  -29.7804  -15.8758   20.5754 N   0  0  0  0  0  0
  -28.7658  -22.4725   20.5295 N   0  0  0  0  0  0
  -28.4811  -23.7790   18.6930 O   0  0  0  0  0  0
  -31.8772  -16.7230   22.2907 F   0  0  0  0  0  0
  -31.4749  -12.6010   19.1587 H   0  0  0  0  0  0
  -30.3977  -11.4877   19.9560 H   0  0  0  0  0  0
  -29.7954  -11.7229   17.5236 H   0  0  0  0  0  0
  -29.6274  -13.4509   17.7116 H   0  0  0  0  0  0
  -27.9028  -11.2715   18.9251 H   0  0  0  0  0  0
  -27.3760  -12.4988   17.8031 H   0  0  0  0  0  0
  -27.6322  -14.2432   19.4582 H   0  0  0  0  0  0
  -28.7281  -12.1660   21.4213 H   0  0  0  0  0  0
  -28.4206  -13.8451   21.7905 H   0  0  0  0  0  0
  -25.2760   -9.5682   22.4763 H   0  0  0  0  0  0
  -24.0001   -7.4629   22.7468 H   0  0  0  0  0  0
  -21.0841   -8.8776   19.8945 H   0  0  0  0  0  0
  -22.3701  -10.9673   19.6167 H   0  0  0  0  0  0
  -21.2007   -7.6145   23.9719 H   0  0  0  0  0  0
  -21.1476   -6.0519   25.9079 H   0  0  0  0  0  0
  -22.0600   -2.7606   23.2852 H   0  0  0  0  0  0
  -22.4086  -11.9873   22.4813 H   0  0  0  0  0  0
  -21.1080  -13.1228   22.2636 H   0  0  0  0  0  0
  -24.6458  -15.8387   20.5171 H   0  0  0  0  0  0
  -26.2529  -15.6325   20.0456 H   0  0  0  0  0  0
  -26.7202  -32.5399   23.1062 H   0  0  0  0  0  0
  -25.0077  -33.9680   25.0391 H   0  0  0  0  0  0
  -22.7246  -31.2960   21.3899 H   0  0  0  0  0  0
  -23.3744  -35.9622   23.3303 H   0  0  0  0  0  0
  -24.3582  -36.8903   22.2054 H   0  0  0  0  0  0
  -23.7256  -37.6487   23.6670 H   0  0  0  0  0  0
  -26.1081  -31.5268   20.6021 H   0  0  0  0  0  0
  -26.8529  -30.8212   22.0044 H   0  0  0  0  0  0
  -28.1304  -28.9392   21.1878 H   0  0  0  0  0  0
  -25.9930  -25.8756   19.0396 H   0  0  0  0  0  0
  -23.9756  -27.2805   19.0228 H   0  0  0  0  0  0
  -23.7734  -30.5738   19.3984 H   0  0  0  0  0  0
  -22.7663  -29.2325   19.8553 H   0  0  0  0  0  0
  -25.1307  -36.1899   25.0815 H   0  0  0  0  0  0
  -20.9992  -28.3263   24.1384 H   0  0  0  0  0  0
  -20.5665  -26.2296   23.3608 H   0  0  0  0  0  0
  -21.6648  -26.7418   22.1205 H   0  0  0  0  0  0
  -19.6918  -25.6280   21.1234 H   0  0  0  0  0  0
  -19.6697  -27.3176   20.6725 H   0  0  0  0  0  0
  -17.4204  -26.6653   21.4014 H   0  0  0  0  0  0
  -18.0347  -26.0059   22.9009 H   0  0  0  0  0  0
  -19.7948  -30.7267   24.2238 H   0  0  0  0  0  0
  -17.5025  -31.6259   24.5158 H   0  0  0  0  0  0
  -15.5360  -30.2972   23.7666 H   0  0  0  0  0  0
  -15.8673  -28.0815   22.7066 H   0  0  0  0  0  0
  -24.5888  -30.7094   25.7759 H   0  0  0  0  0  0
  -24.8900  -32.2911   26.4836 H   0  0  0  0  0  0
  -25.8015  -30.8932   27.0215 H   0  0  0  0  0  0
  -26.2947  -29.6740   24.1208 H   0  0  0  0  0  0
  -27.4043  -29.7274   25.4712 H   0  0  0  0  0  0
  -27.8815  -30.4293   23.9434 H   0  0  0  0  0  0
  -27.2658  -33.3646   26.2042 H   0  0  0  0  0  0
  -28.3868  -32.6885   25.0319 H   0  0  0  0  0  0
  -28.0702  -31.8469   26.5413 H   0  0  0  0  0  0
  -28.2598  -38.0093   24.7504 H   0  0  0  0  0  0
  -28.1069  -36.2620   24.6305 H   0  0  0  0  0  0
  -27.2288  -37.1472   25.8865 H   0  0  0  0  0  0
  -20.9391  -29.8768   21.6869 H   0  0  0  0  0  0
  -26.0160  -38.2828   24.1403 H   0  0  0  0  0  0
  -30.9373  -21.1085   21.6468 H   0  0  0  0  0  0
  -32.2419  -19.2626   22.6215 H   0  0  0  0  0  0
  -28.4825  -18.2007   19.6050 H   0  0  0  0  0  0
  -27.7518  -20.7557   19.7949 H   0  0  0  0  0  0
  -29.1651  -21.1698   18.8883 H   0  0  0  0  0  0
  -27.1644  -24.9083   21.1689 H   0  0  0  0  0  0
  -28.8303  -25.0148   21.6421 H   0  0  0  0  0  0
  -28.7982  -15.6586   20.5356 H   0  0  0  0  0  0
  -28.7989  -22.4922   21.5401 H   0  0  0  0  0  0
  1 25  1  0  0  0
  1 30  2  0  0  0
  1 80  1  0  0  0
  2  3  1  0  0  0
  2 25  1  0  0  0
  2 84  1  0  0  0
  2 85  1  0  0  0
  3  4  1  0  0  0
  3 86  1  0  0  0
  3 87  1  0  0  0
  4  5  1  0  0  0
  4 88  1  0  0  0
  4 89  1  0  0  0
  5  6  1  0  0  0
  5 26  1  0  0  0
  5 90  1  0  0  0
  6 25  1  0  0  0
  6 91  1  0  0  0
  6 92  1  0  0  0
  7  8  2  0  0  0
  7 26  1  0  0  0
  7 29  1  0  0  0
  8  9  1  0  0  0
  8 22  1  0  0  0
  9 10  1  0  0  0
  9 27  2  0  0  0
 10 11  2  0  0  0
 10 15  1  0  0  0
 11 12  1  0  0  0
 11 93  1  0  0  0
 12 13  2  0  0  0
 12 94  1  0  0  0
 13 14  1  0  0  0
 13 31  1  0  0  0
 14 15  2  0  0  0
 14 95  1  0  0  0
 15 96  1  0  0  0
 16 17  2  0  0  0
 16 21  1  0  0  0
 16 31  1  0  0  0
 17 18  1  0  0  0
 17 97  1  0  0  0
 18 19  2  0  0  0
 18 98  1  0  0  0
 19 20  1  0  0  0
 19 24  1  0  0  0
 20 21  2  0  0  0
 20 99  1  0  0  0
 21 23  1  0  0  0
 22 28  1  0  0  0
 22 32  2  0  0  0
 26 27  1  0  0  0
 28100  1  0  0  0
 28101  1  0  0  0
 29102  1  0  0  0
 29103  1  0  0  0
 33 34  1  0  0  0
 33 66  1  0  0  0
 33 70  2  0  0  0
 34 36  1  0  0  0
 34 59  1  0  0  0
 34104  1  0  0  0
 35 44  2  0  0  0
 35 45  1  0  0  0
 35 68  1  0  0  0
 36 56  1  0  0  0
 36105  1  0  0  0
 37 39  1  0  0  0
 37 47  1  0  0  0
 37 66  1  0  0  0
 37106  1  0  0  0
 38 43  2  0  0  0
 38 46  1  0  0  0
 38 47  1  0  0  0
 39 64  1  0  0  0
 39 67  2  0  0  0
 40 52  1  0  0  0
 40 53  2  0  0  0
 40 58  1  0  0  0
 41107  1  0  0  0
 41108  1  0  0  0
 41109  1  0  0  0
 41 48  1  0  0  0
 42 43  1  0  0  0
 42 66  1  0  0  0
 42110  1  0  0  0
 42111  1  0  0  0
 43 44  1  0  0  0
 44112  1  0  0  0
 45 46  2  0  0  0
 45113  1  0  0  0
 46114  1  0  0  0
 47115  1  0  0  0
 47116  1  0  0  0
 48 56  1  0  0  0
 48 65  1  0  0  0
 48117  1  0  0  0
 49 50  1  0  0  0
 49 53  1  0  0  0
 49 64  1  0  0  0
 49118  1  0  0  0
 50 51  1  0  0  0
 50119  1  0  0  0
 50120  1  0  0  0
 51 52  1  0  0  0
 51121  1  0  0  0
 51122  1  0  0  0
 52123  1  0  0  0
 52124  1  0  0  0
 53 54  1  0  0  0
 54 55  2  0  0  0
 54125  1  0  0  0
 55 57  1  0  0  0
 55126  1  0  0  0
 56 69  2  0  0  0
 57 58  2  0  0  0
 57127  1  0  0  0
 58128  1  0  0  0
 59 60  1  0  0  0
 59 61  1  0  0  0
 59 62  1  0  0  0
 60129  1  0  0  0
 60130  1  0  0  0
 60131  1  0  0  0
 61132  1  0  0  0
 61133  1  0  0  0
 61134  1  0  0  0
 62135  1  0  0  0
 62136  1  0  0  0
 62137  1  0  0  0
 63 65  1  0  0  0
 63138  1  0  0  0
 63139  1  0  0  0
 63140  1  0  0  0
 64141  1  0  0  0
 65142  1  0  0  0
 68 79  1  0  0  0
 71 72  2  0  0  0
 71 74  1  0  0  0
 71143  1  0  0  0
 72 76  1  0  0  0
 72144  1  0  0  0
 73 74  2  0  0  0
 73 75  1  0  0  0
 73145  1  0  0  0
 74 78  1  0  0  0
 75 76  2  0  0  0
 75 80  1  0  0  0
 76 83  1  0  0  0
 77 79  1  0  0  0
 77 81  1  0  0  0
 77 82  2  0  0  0
 78 81  1  0  0  0
 78146  1  0  0  0
 78147  1  0  0  0
 79148  1  0  0  0
 79149  1  0  0  0
 80150  1  0  0  0
 81151  1  0  0  0
M  ISO  4   1 100  68 101  79 101  80 100
M  END
> <chiral flag>
0

> <version>
0

> <s_m_source_file>
/data/baiqing/PycharmProjects/Reinvent-master-3.2/result/LINK_invent/BTK/process_docking_weight1_custom_sum_contain_oxygen_bond_distance_aromatic_linkinvent_7_9_3/rearranged_h_0011.sdf

> <i_m_source_file_index>
46

> <r_mmod_Potential_Energy-OPLS-2005>
66.3529586791992

> <r_mmod_Stretch_Energy-OPLS-2005>
124.115219116211

> <r_mmod_Bend_Energy-OPLS-2005>
153.348571777344

> <r_mmod_Torsional_Energy-OPLS-2005>
241.331954956055

> <r_mmod_Improper_Torsional_Energy-OPLS-2005>
8.13535499572754

> <r_mmod_Van_der_Waal_Energy-OPLS-2005>
132.696319580078

> <r_mmod_Electrostatic_Energy-OPLS-2005>
-428.979217529297

> <r_mmod_Solvation_Energy-OPLS-2005>
-250.520172119141

> <b_mmod_Minimization_Converged-OPLS-2005>
0

> <r_mmod_RMS_Derivative-OPLS-2005>
0.988580167293549

$$$$
46
                    3D
 Structure written by MMmdl.
151159  0  0  1  0            999 V2000
  -30.5077  -14.9207   20.4377 C   0  0  0  0  0  0
  -30.4533  -12.5666   19.5005 C   0  0  0  0  0  0
  -29.5289  -12.5331   18.2591 C   0  0  0  0  0  0
  -28.0606  -12.3140   18.6743 C   0  0  0  0  0  0
  -27.6378  -13.2361   19.8465 C   0  0  2  0  0  0
  -28.6782  -13.2234   20.9875 C   0  0  0  0  0  0
  -25.2485  -13.8194   20.5664 C   0  0  0  0  0  0
  -24.1797  -13.0431   20.9212 C   0  0  0  0  0  0
  -24.6400  -11.6914   20.8755 C   0  0  0  0  0  0
  -23.9079  -10.4286   21.0417 C   0  0  0  0  0  0
  -24.3626   -9.4194   21.9192 C   0  0  0  0  0  0
  -23.6297   -8.2227   22.0749 C   0  0  0  0  0  0
  -22.4280   -8.0272   21.3539 C   0  0  0  0  0  0
  -21.9917   -9.0249   20.4643 C   0  0  0  0  0  0
  -22.7249  -10.2127   20.3058 C   0  0  0  0  0  0
  -21.6847   -6.0735   22.5283 C   0  0  0  0  0  0
  -21.4013   -6.5643   23.8217 C   0  0  0  0  0  0
  -21.3658   -5.6796   24.9182 C   0  0  0  0  0  0
  -21.6041   -4.3059   24.7233 C   0  0  0  0  0  0
  -21.8820   -3.8148   23.4357 C   0  0  0  0  0  0
  -21.9194   -4.6962   22.3413 C   0  0  0  0  0  0
  -22.7818  -13.5201   21.1889 C   0  0  0  0  0  0
  -22.1661   -4.2145   21.0987 F   0  0  0  0  0  0
  -21.5631   -3.4545   25.7747 F   0  0  0  0  0  0
  -29.9635  -13.6409   20.4066 N   0  0  0  0  0  0
  -26.2910  -12.9400   20.3246 N   0  0  0  0  0  0
  -25.9323  -11.6541   20.5737 N   0  0  0  0  0  0
  -22.0484  -12.8168   22.0453 N   0  0  0  0  0  0
  -25.4153  -15.1914   20.4026 N   0  0  0  0  0  0
  -31.6960  -15.0604   20.1264 O   0  0  0  0  0  0
  -21.6634   -6.8875   21.4241 O   0  0  0  0  0  0
  -22.3484  -14.5507   20.6748 O   0  0  0  0  0  0
  -24.6424  -31.8443   23.1890 C   0  0  0  0  0  0
  -25.9192  -32.4702   23.8284 C   0  0  1  0  0  0
  -27.2249  -27.1427   20.1567 C   0  0  0  0  0  0
  -25.5938  -33.8507   24.2202 N   0  0  0  0  0  0
  -23.4467  -30.4649   21.5332 C   0  0  2  0  0  0
  -24.8999  -28.8909   20.1128 C   0  0  0  0  0  0
  -22.7557  -29.4572   22.4862 C   0  0  0  0  0  0
  -18.0307  -28.1362   22.8458 C   0  0  0  0  0  0
  -24.1491  -36.7257   23.2641 C   0  0  0  0  0  0
  -26.0030  -30.7229   21.3865 C   0  0  0  0  0  0
  -26.0769  -29.3341   20.7283 C   0  0  0  0  0  0
  -27.2404  -28.4762   20.7317 C   0  0  0  0  0  0
  -26.0201  -26.7997   19.5023 C   0  0  0  0  0  0
  -24.8835  -27.6363   19.4861 C   0  0  0  0  0  0
  -23.6749  -29.7910   20.1543 C   0  0  0  0  0  0
  -25.4125  -36.3038   24.0314 C   0  0  1  0  0  0
  -20.5920  -28.3727   23.1244 C   0  0  2  0  0  0
  -20.6818  -26.9448   22.5372 C   0  0  0  0  0  0
  -19.5808  -26.6458   21.5144 C   0  0  0  0  0  0
  -18.1985  -26.7919   22.1572 C   0  0  0  0  0  0
  -19.1549  -28.8855   23.2858 C   0  0  0  0  0  0
  -18.9454  -30.1444   23.8892 C   0  0  0  0  0  0
  -17.6444  -30.6550   24.0555 C   0  0  0  0  0  0
  -25.9069  -34.9411   23.5068 C   0  0  0  0  0  0
  -16.5345  -29.9037   23.6322 C   0  0  0  0  0  0
  -16.7281  -28.6457   23.0333 C   0  0  0  0  0  0
  -26.4515  -31.6572   25.0724 C   0  0  0  0  0  0
  -25.3698  -31.3764   26.1420 C   0  0  0  0  0  0
  -27.0381  -30.2967   24.6306 C   0  0  0  0  0  0
  -27.6040  -32.4348   25.7507 C   0  0  0  0  0  0
  -27.5576  -37.1792   24.8464 C   0  0  0  0  0  0
  -21.4243  -29.3094   22.3642 N   0  0  0  0  0  0
  -26.4295  -37.3749   23.9399 N   0  0  0  0  0  0
  -24.7173  -31.0309   22.0922 N   0  0  0  0  0  0
  -23.4194  -28.8094   23.2991 O   0  0  0  0  0  0
  -28.2825  -26.1630   20.2353 O   0  0  0  0  0  0
  -26.5654  -34.8904   22.4644 O   0  0  0  0  0  0
  -23.5540  -32.1313   23.7114 O   0  0  0  0  0  0
  -28.5306  -18.0938   19.6430 C   0  0  0  0  0  0
  -28.2423  -19.5045   19.5967 C   0  0  0  0  0  0
  -30.2942  -18.5801   21.1058 C   0  0  0  0  0  0
  -29.5774  -17.5253   20.4298 C   0  0  0  0  0  0
  -28.9711  -20.4841   20.3306 C   0  0  0  0  0  0
  -27.1855  -21.7635   21.2596 C   0  0  0  0  0  0
  -28.9908  -23.3106   20.4465 C   0  0  0  0  0  0
  -27.9992  -24.6372   20.1016 C   0  0  0  0  0  0
  -30.0097  -19.9593   21.0656 N   0  0  0  0  0  0
  -29.6331  -16.0104   20.6574 N   0  0  0  0  0  0
  -28.4205  -21.8592   20.4820 N   0  0  0  0  0  0
  -31.4868  -12.7382   19.1953 H   0  0  0  0  0  0
  -30.4481  -11.6032   20.0126 H   0  0  0  0  0  0
  -29.8447  -11.7478   17.5711 H   0  0  0  0  0  0
  -29.6173  -13.4734   17.7123 H   0  0  0  0  0  0
  -27.9586  -11.2705   18.9756 H   0  0  0  0  0  0
  -27.3956  -12.4515   17.8212 H   0  0  0  0  0  0
  -27.6142  -14.2451   19.4338 H   0  0  0  0  0  0
  -28.7542  -12.2315   21.4350 H   0  0  0  0  0  0
  -28.3753  -13.8949   21.7929 H   0  0  0  0  0  0
  -25.2773   -9.5662   22.4767 H   0  0  0  0  0  0
  -24.0013   -7.4604   22.7448 H   0  0  0  0  0  0
  -21.0859   -8.8766   19.8937 H   0  0  0  0  0  0
  -22.3715  -10.9667   19.6167 H   0  0  0  0  0  0
  -21.1999   -7.6148   23.9722 H   0  0  0  0  0  0
  -21.1479   -6.0527   25.9085 H   0  0  0  0  0  0
  -22.0600   -2.7607   23.2861 H   0  0  0  0  0  0
  -22.4135  -11.9822   22.4803 H   0  0  0  0  0  0
  -21.1096  -13.1159   22.2693 H   0  0  0  0  0  0
  -24.6366  -15.8363   20.4854 H   0  0  0  0  0  0
  -26.2421  -15.6225   20.0121 H   0  0  0  0  0  0
  -26.7261  -32.5318   23.1019 H   0  0  0  0  0  0
  -25.0059  -33.9634   25.0331 H   0  0  0  0  0  0
  -22.7502  -31.2907   21.3755 H   0  0  0  0  0  0
  -23.3759  -35.9582   23.3297 H   0  0  0  0  0  0
  -24.3570  -36.8895   22.2055 H   0  0  0  0  0  0
  -23.7246  -37.6452   23.6681 H   0  0  0  0  0  0
  -26.1548  -31.4808   20.6164 H   0  0  0  0  0  0
  -26.8737  -30.7754   22.0286 H   0  0  0  0  0  0
  -28.1367  -28.8104   21.2357 H   0  0  0  0  0  0
  -25.9215  -25.8407   19.0174 H   0  0  0  0  0  0
  -23.9825  -27.2903   18.9986 H   0  0  0  0  0  0
  -23.8101  -30.5628   19.3952 H   0  0  0  0  0  0
  -22.7916  -29.2298   19.8459 H   0  0  0  0  0  0
  -25.1317  -36.1866   25.0808 H   0  0  0  0  0  0
  -21.0010  -28.3308   24.1369 H   0  0  0  0  0  0
  -20.5692  -26.2319   23.3561 H   0  0  0  0  0  0
  -21.6693  -26.7479   22.1187 H   0  0  0  0  0  0
  -19.7025  -25.6414   21.1066 H   0  0  0  0  0  0
  -19.6730  -27.3365   20.6748 H   0  0  0  0  0  0
  -17.4255  -26.6660   21.3977 H   0  0  0  0  0  0
  -18.0430  -26.0018   22.8943 H   0  0  0  0  0  0
  -19.7920  -30.7263   24.2278 H   0  0  0  0  0  0
  -17.4982  -31.6209   24.5191 H   0  0  0  0  0  0
  -15.5333  -30.2916   23.7661 H   0  0  0  0  0  0
  -15.8695  -28.0748   22.7047 H   0  0  0  0  0  0
  -24.5878  -30.7110   25.7748 H   0  0  0  0  0  0
  -24.8885  -32.2949   26.4791 H   0  0  0  0  0  0
  -25.7977  -30.8977   27.0235 H   0  0  0  0  0  0
  -26.3002  -29.6687   24.1304 H   0  0  0  0  0  0
  -27.3980  -29.7272   25.4886 H   0  0  0  0  0  0
  -27.8911  -30.4205   23.9628 H   0  0  0  0  0  0
  -27.2620  -33.3665   26.2025 H   0  0  0  0  0  0
  -28.3872  -32.6886   25.0352 H   0  0  0  0  0  0
  -28.0673  -31.8515   26.5476 H   0  0  0  0  0  0
  -28.2597  -38.0087   24.7494 H   0  0  0  0  0  0
  -28.1071  -36.2614   24.6317 H   0  0  0  0  0  0
  -27.2279  -37.1461   25.8866 H   0  0  0  0  0  0
  -20.9439  -29.8849   21.6858 H   0  0  0  0  0  0
  -26.0157  -38.2812   24.1417 H   0  0  0  0  0  0
  -27.8757  -17.4293   19.0975 H   0  0  0  0  0  0
  -27.3851  -19.8240   19.0206 H   0  0  0  0  0  0
  -31.0822  -18.3075   21.7922 H   0  0  0  0  0  0
  -26.3167  -21.8713   20.6096 H   0  0  0  0  0  0
  -27.1386  -22.5411   22.0229 H   0  0  0  0  0  0
  -27.0961  -20.8114   21.7864 H   0  0  0  0  0  0
  -29.4292  -23.4808   21.4301 H   0  0  0  0  0  0
  -29.8334  -23.3166   19.7549 H   0  0  0  0  0  0
  -27.0883  -24.4797   20.6779 H   0  0  0  0  0  0
  -27.7075  -24.4908   19.0615 H   0  0  0  0  0  0
  -28.7185  -15.6369   20.8640 H   0  0  0  0  0  0
  1 25  1  0  0  0
  1 30  2  0  0  0
  1 80  1  0  0  0
  2  3  1  0  0  0
  2 25  1  0  0  0
  2 82  1  0  0  0
  2 83  1  0  0  0
  3  4  1  0  0  0
  3 84  1  0  0  0
  3 85  1  0  0  0
  4  5  1  0  0  0
  4 86  1  0  0  0
  4 87  1  0  0  0
  5  6  1  0  0  0
  5 26  1  0  0  0
  5 88  1  0  0  0
  6 25  1  0  0  0
  6 89  1  0  0  0
  6 90  1  0  0  0
  7  8  2  0  0  0
  7 26  1  0  0  0
  7 29  1  0  0  0
  8  9  1  0  0  0
  8 22  1  0  0  0
  9 10  1  0  0  0
  9 27  2  0  0  0
 10 11  2  0  0  0
 10 15  1  0  0  0
 11 12  1  0  0  0
 11 91  1  0  0  0
 12 13  2  0  0  0
 12 92  1  0  0  0
 13 14  1  0  0  0
 13 31  1  0  0  0
 14 15  2  0  0  0
 14 93  1  0  0  0
 15 94  1  0  0  0
 16 17  2  0  0  0
 16 21  1  0  0  0
 16 31  1  0  0  0
 17 18  1  0  0  0
 17 95  1  0  0  0
 18 19  2  0  0  0
 18 96  1  0  0  0
 19 20  1  0  0  0
 19 24  1  0  0  0
 20 21  2  0  0  0
 20 97  1  0  0  0
 21 23  1  0  0  0
 22 28  1  0  0  0
 22 32  2  0  0  0
 26 27  1  0  0  0
 28 98  1  0  0  0
 28 99  1  0  0  0
 29100  1  0  0  0
 29101  1  0  0  0
 33 34  1  0  0  0
 33 66  1  0  0  0
 33 70  2  0  0  0
 34 36  1  0  0  0
 34 59  1  0  0  0
 34102  1  0  0  0
 35 44  2  0  0  0
 35 45  1  0  0  0
 35 68  1  0  0  0
 36 56  1  0  0  0
 36103  1  0  0  0
 37 39  1  0  0  0
 37 47  1  0  0  0
 37 66  1  0  0  0
 37104  1  0  0  0
 38 43  2  0  0  0
 38 46  1  0  0  0
 38 47  1  0  0  0
 39 64  1  0  0  0
 39 67  2  0  0  0
 40 52  1  0  0  0
 40 53  2  0  0  0
 40 58  1  0  0  0
 41105  1  0  0  0
 41106  1  0  0  0
 41107  1  0  0  0
 41 48  1  0  0  0
 42 43  1  0  0  0
 42 66  1  0  0  0
 42108  1  0  0  0
 42109  1  0  0  0
 43 44  1  0  0  0
 44110  1  0  0  0
 45 46  2  0  0  0
 45111  1  0  0  0
 46112  1  0  0  0
 47113  1  0  0  0
 47114  1  0  0  0
 48 56  1  0  0  0
 48 65  1  0  0  0
 48115  1  0  0  0
 49 50  1  0  0  0
 49 53  1  0  0  0
 49 64  1  0  0  0
 49116  1  0  0  0
 50 51  1  0  0  0
 50117  1  0  0  0
 50118  1  0  0  0
 51 52  1  0  0  0
 51119  1  0  0  0
 51120  1  0  0  0
 52121  1  0  0  0
 52122  1  0  0  0
 53 54  1  0  0  0
 54 55  2  0  0  0
 54123  1  0  0  0
 55 57  1  0  0  0
 55124  1  0  0  0
 56 69  2  0  0  0
 57 58  2  0  0  0
 57125  1  0  0  0
 58126  1  0  0  0
 59 60  1  0  0  0
 59 61  1  0  0  0
 59 62  1  0  0  0
 60127  1  0  0  0
 60128  1  0  0  0
 60129  1  0  0  0
 61130  1  0  0  0
 61131  1  0  0  0
 61132  1  0  0  0
 62133  1  0  0  0
 62134  1  0  0  0
 62135  1  0  0  0
 63 65  1  0  0  0
 63136  1  0  0  0
 63137  1  0  0  0
 63138  1  0  0  0
 64139  1  0  0  0
 65140  1  0  0  0
 68 78  1  0  0  0
 71 72  2  0  0  0
 71 74  1  0  0  0
 71141  1  0  0  0
 72 75  1  0  0  0
 72142  1  0  0  0
 73 74  2  0  0  0
 73 79  1  0  0  0
 73143  1  0  0  0
 74 80  1  0  0  0
 75 79  2  0  0  0
 75 81  1  0  0  0
 76 81  1  0  0  0
 76144  1  0  0  0
 76145  1  0  0  0
 76146  1  0  0  0
 77 78  1  0  0  0
 77 81  1  0  0  0
 77147  1  0  0  0
 77148  1  0  0  0
 78149  1  0  0  0
 78150  1  0  0  0
 80151  1  0  0  0
M  ISO  4   1 100  68 101  78 101  80 100
M  END
> <chiral flag>
0

> <version>
0

> <s_m_source_file>
/data/baiqing/PycharmProjects/Reinvent-master-3.2/result/LINK_invent/BTK/process_docking_weight1_custom_sum_contain_oxygen_bond_distance_aromatic_linkinvent_7_9_3/rearranged_h_0011.sdf

> <i_m_source_file_index>
47

> <r_mmod_Potential_Energy-OPLS-2005>
239.760482788086

> <r_mmod_Stretch_Energy-OPLS-2005>
218.893936157227

> <r_mmod_Bend_Energy-OPLS-2005>
270.252899169922

> <r_mmod_Torsional_Energy-OPLS-2005>
258.032867431641

> <r_mmod_Improper_Torsional_Energy-OPLS-2005>
9.98287391662598

> <r_mmod_Van_der_Waal_Energy-OPLS-2005>
136.69416809082

> <r_mmod_Electrostatic_Energy-OPLS-2005>
-590.511901855469

> <r_mmod_Solvation_Energy-OPLS-2005>
-245.554107666016

> <b_mmod_Minimization_Converged-OPLS-2005>
0

> <r_mmod_RMS_Derivative-OPLS-2005>
1.63108575344086

$$$$
47
                    3D
 Structure written by MMmdl.
169176  0  0  1  0            999 V2000
  -30.8032  -14.3058   20.7342 C   0  0  0  0  0  0
  -30.4151  -12.2857   19.3744 C   0  0  0  0  0  0
  -29.4738  -12.5319   18.1832 C   0  0  0  0  0  0
  -28.0030  -12.3794   18.6100 C   0  0  0  0  0  0
  -27.6680  -13.2013   19.8810 C   0  0  2  0  0  0
  -28.7059  -12.9360   20.9929 C   0  0  0  0  0  0
  -25.2611  -13.8164   20.5689 C   0  0  0  0  0  0
  -24.1844  -13.0444   20.9157 C   0  0  0  0  0  0
  -24.6395  -11.6910   20.8733 C   0  0  0  0  0  0
  -23.9059  -10.4296   21.0408 C   0  0  0  0  0  0
  -24.3607   -9.4207   21.9190 C   0  0  0  0  0  0
  -23.6279   -8.2248   22.0760 C   0  0  0  0  0  0
  -22.4263   -8.0286   21.3543 C   0  0  0  0  0  0
  -21.9903   -9.0259   20.4643 C   0  0  0  0  0  0
  -22.7240  -10.2134   20.3049 C   0  0  0  0  0  0
  -21.6851   -6.0735   22.5277 C   0  0  0  0  0  0
  -21.4013   -6.5639   23.8210 C   0  0  0  0  0  0
  -21.3656   -5.6791   24.9171 C   0  0  0  0  0  0
  -21.6042   -4.3054   24.7226 C   0  0  0  0  0  0
  -21.8819   -3.8142   23.4350 C   0  0  0  0  0  0
  -21.9190   -4.6961   22.3404 C   0  0  0  0  0  0
  -22.7865  -13.5245   21.1830 C   0  0  0  0  0  0
  -22.1660   -4.2146   21.0986 F   0  0  0  0  0  0
  -21.5627   -3.4536   25.7738 F   0  0  0  0  0  0
  -30.0569  -13.2080   20.4608 N   0  0  0  0  0  0
  -26.3056  -12.9326   20.3402 N   0  0  0  0  0  0
  -25.9322  -11.6487   20.5781 N   0  0  0  0  0  0
  -22.0509  -12.8229   22.0381 N   0  0  0  0  0  0
  -25.4358  -15.1878   20.4125 N   0  0  0  0  0  0
  -31.7481  -14.6864   20.0350 O   0  0  0  0  0  0
  -21.6634   -6.8877   21.4236 O   0  0  0  0  0  0
  -22.3554  -14.5567   20.6706 O   0  0  0  0  0  0
  -24.6102  -31.8704   23.2125 C   0  0  0  0  0  0
  -25.9008  -32.4838   23.8416 C   0  0  1  0  0  0
  -27.2443  -27.4787   20.0819 C   0  0  0  0  0  0
  -25.5882  -33.8637   24.2348 N   0  0  0  0  0  0
  -23.3974  -30.4913   21.5523 C   0  0  2  0  0  0
  -24.8462  -28.9579   20.1198 C   0  0  0  0  0  0
  -22.7389  -29.4662   22.5020 C   0  0  0  0  0  0
  -18.0263  -28.1369   22.8497 C   0  0  0  0  0  0
  -24.1481  -36.7317   23.2635 C   0  0  0  0  0  0
  -25.9203  -30.8477   21.3590 C   0  0  0  0  0  0
  -26.0023  -29.4829   20.7116 C   0  0  0  0  0  0
  -27.2059  -28.7483   20.6961 C   0  0  0  0  0  0
  -26.0729  -26.9473   19.5096 C   0  0  0  0  0  0
  -24.8732  -27.6850   19.5203 C   0  0  0  0  0  0
  -23.6047  -29.8185   20.1682 C   0  0  0  0  0  0
  -25.4098  -36.3124   24.0343 C   0  0  1  0  0  0
  -20.5850  -28.3648   23.1333 C   0  0  2  0  0  0
  -20.6754  -26.9390   22.5417 C   0  0  0  0  0  0
  -19.5729  -26.6382   21.5211 C   0  0  0  0  0  0
  -18.1910  -26.7920   22.1619 C   0  0  0  0  0  0
  -19.1512  -28.8824   23.2914 C   0  0  0  0  0  0
  -18.9442  -30.1432   23.8919 C   0  0  0  0  0  0
  -17.6447  -30.6580   24.0563 C   0  0  0  0  0  0
  -25.9024  -34.9487   23.5143 C   0  0  0  0  0  0
  -16.5337  -29.9082   23.6324 C   0  0  0  0  0  0
  -16.7252  -28.6495   23.0350 C   0  0  0  0  0  0
  -26.4460  -31.6600   25.0723 C   0  0  0  0  0  0
  -25.3741  -31.3668   26.1476 C   0  0  0  0  0  0
  -27.0301  -30.3064   24.6048 C   0  0  0  0  0  0
  -27.6037  -32.4315   25.7492 C   0  0  0  0  0  0
  -27.5581  -37.1812   24.8461 C   0  0  0  0  0  0
  -21.4120  -29.3028   22.3758 N   0  0  0  0  0  0
  -26.4289  -37.3807   23.9415 N   0  0  0  0  0  0
  -24.6607  -31.0832   22.1007 N   0  0  0  0  0  0
  -23.4173  -28.8204   23.3054 O   0  0  0  0  0  0
  -28.3970  -26.7395   20.0353 O   0  0  0  0  0  0
  -26.5584  -34.8931   22.4704 O   0  0  0  0  0  0
  -23.5303  -32.1441   23.7540 O   0  0  0  0  0  0
  -30.6253  -25.0704   18.5313 C   0  0  0  0  0  0
  -30.1268  -17.2658   22.3276 C   0  0  0  0  0  0
  -33.0871  -24.9246   18.7569 C   0  0  0  0  0  0
  -30.6820  -26.4435   19.2291 C   0  0  0  0  0  0
  -31.1152  -16.1034   22.4298 C   0  0  0  0  0  0
  -30.8783  -20.6797   20.7950 C   0  0  0  0  0  0
  -30.6746  -21.6693   19.6373 C   0  0  0  0  0  0
  -29.5678  -20.3861   21.5454 C   0  0  0  0  0  0
  -31.9606  -21.9172   18.8322 C   0  0  0  0  0  0
  -29.7553  -19.6628   22.8924 C   0  0  0  0  0  0
  -31.8366  -23.0340   17.7748 C   0  0  0  0  0  0
  -29.3871  -27.2736   19.1634 C   0  0  0  0  0  0
  -30.5529  -18.4444   22.7906 N   0  0  0  0  0  0
  -30.5265  -14.8744   21.9085 N   0  0  0  0  0  0
  -31.7799  -24.3719   18.3863 N   0  0  0  0  0  0
  -29.5405  -24.6330   18.1342 O   0  0  0  0  0  0
  -28.9963  -17.0964   21.8640 O   0  0  0  0  0  0
  -31.4551  -12.3982   19.0611 H   0  0  0  0  0  0
  -30.3235  -11.2568   19.7264 H   0  0  0  0  0  0
  -29.7007  -11.8353   17.3753 H   0  0  0  0  0  0
  -29.6391  -13.5327   17.7808 H   0  0  0  0  0  0
  -27.8155  -11.3212   18.7945 H   0  0  0  0  0  0
  -27.3418  -12.6671   17.7918 H   0  0  0  0  0  0
  -27.7297  -14.2562   19.6124 H   0  0  0  0  0  0
  -28.6568  -11.8956   21.3168 H   0  0  0  0  0  0
  -28.4505  -13.5265   21.8729 H   0  0  0  0  0  0
  -25.2757   -9.5679   22.4763 H   0  0  0  0  0  0
  -23.9985   -7.4641   22.7484 H   0  0  0  0  0  0
  -21.0835   -8.8774   19.8948 H   0  0  0  0  0  0
  -22.3709  -10.9667   19.6142 H   0  0  0  0  0  0
  -21.2006   -7.6144   23.9707 H   0  0  0  0  0  0
  -21.1477   -6.0526   25.9074 H   0  0  0  0  0  0
  -22.0602   -2.7602   23.2853 H   0  0  0  0  0  0
  -22.4106  -11.9849   22.4708 H   0  0  0  0  0  0
  -21.1140  -13.1262   22.2619 H   0  0  0  0  0  0
  -24.6817  -15.8537   20.5388 H   0  0  0  0  0  0
  -26.3138  -15.6277   20.1633 H   0  0  0  0  0  0
  -26.7082  -32.5572   23.1189 H   0  0  0  0  0  0
  -25.0045  -33.9813   25.0503 H   0  0  0  0  0  0
  -22.6841  -31.3062   21.4124 H   0  0  0  0  0  0
  -23.3754  -35.9638   23.3296 H   0  0  0  0  0  0
  -24.3580  -36.8933   22.2051 H   0  0  0  0  0  0
  -23.7219  -37.6514   23.6650 H   0  0  0  0  0  0
  -26.0220  -31.6119   20.5872 H   0  0  0  0  0  0
  -26.8112  -30.9081   21.9718 H   0  0  0  0  0  0
  -28.0994  -29.1525   21.1515 H   0  0  0  0  0  0
  -26.0966  -25.9712   19.0453 H   0  0  0  0  0  0
  -23.9827  -27.2710   19.0675 H   0  0  0  0  0  0
  -23.7077  -30.5902   19.4047 H   0  0  0  0  0  0
  -22.7310  -29.2326   19.8770 H   0  0  0  0  0  0
  -25.1275  -36.1994   25.0839 H   0  0  0  0  0  0
  -20.9935  -28.3195   24.1455 H   0  0  0  0  0  0
  -20.5647  -26.2252   23.3594 H   0  0  0  0  0  0
  -21.6622  -26.7435   22.1206 H   0  0  0  0  0  0
  -19.6888  -25.6299   21.1225 H   0  0  0  0  0  0
  -19.6670  -27.3206   20.6754 H   0  0  0  0  0  0
  -17.4180  -26.6677   21.4021 H   0  0  0  0  0  0
  -18.0304  -26.0049   22.9001 H   0  0  0  0  0  0
  -19.7920  -30.7242   24.2295 H   0  0  0  0  0  0
  -17.5003  -31.6266   24.5153 H   0  0  0  0  0  0
  -15.5338  -30.2990   23.7638 H   0  0  0  0  0  0
  -15.8651  -28.0822   22.7059 H   0  0  0  0  0  0
  -24.5907  -30.7032   25.7799 H   0  0  0  0  0  0
  -24.8940  -32.2807   26.4982 H   0  0  0  0  0  0
  -25.8102  -30.8786   27.0199 H   0  0  0  0  0  0
  -26.2837  -29.6823   24.1116 H   0  0  0  0  0  0
  -27.4133  -29.7290   25.4470 H   0  0  0  0  0  0
  -27.8638  -30.4426   23.9154 H   0  0  0  0  0  0
  -27.2659  -33.3606   26.2095 H   0  0  0  0  0  0
  -28.3840  -32.6883   25.0317 H   0  0  0  0  0  0
  -28.0708  -31.8419   26.5390 H   0  0  0  0  0  0
  -28.2580  -38.0129   24.7549 H   0  0  0  0  0  0
  -28.1103  -36.2667   24.6242 H   0  0  0  0  0  0
  -27.2307  -37.1396   25.8864 H   0  0  0  0  0  0
  -20.9271  -29.8763   21.6999 H   0  0  0  0  0  0
  -26.0182  -38.2885   24.1433 H   0  0  0  0  0  0
  -33.3280  -25.7950   18.1454 H   0  0  0  0  0  0
  -33.8942  -24.2044   18.6194 H   0  0  0  0  0  0
  -33.1053  -25.2194   19.8069 H   0  0  0  0  0  0
  -31.4636  -27.0337   18.7520 H   0  0  0  0  0  0
  -30.9804  -26.3073   20.2689 H   0  0  0  0  0  0
  -31.3723  -15.9460   23.4779 H   0  0  0  0  0  0
  -32.0397  -16.3649   21.9121 H   0  0  0  0  0  0
  -31.6135  -21.0894   21.4893 H   0  0  0  0  0  0
  -31.2997  -19.7463   20.4176 H   0  0  0  0  0  0
  -30.3061  -22.6101   20.0472 H   0  0  0  0  0  0
  -29.8965  -21.3017   18.9665 H   0  0  0  0  0  0
  -28.9028  -19.8065   20.9034 H   0  0  0  0  0  0
  -29.0453  -21.3237   21.7401 H   0  0  0  0  0  0
  -32.2462  -20.9907   18.3318 H   0  0  0  0  0  0
  -32.7814  -22.1507   19.5120 H   0  0  0  0  0  0
  -28.7823  -19.4338   23.3318 H   0  0  0  0  0  0
  -30.2529  -20.3301   23.5976 H   0  0  0  0  0  0
  -30.9719  -22.8452   17.1359 H   0  0  0  0  0  0
  -32.6921  -22.9916   17.0989 H   0  0  0  0  0  0
  -29.0050  -27.3074   18.1413 H   0  0  0  0  0  0
  -29.6177  -28.3020   19.4450 H   0  0  0  0  0  0
  -31.4940  -18.4822   23.1618 H   0  0  0  0  0  0
  -29.7488  -14.4917   22.4242 H   0  0  0  0  0  0
  1 25  1  0  0  0
  1 30  2  0  0  0
  1 84  1  0  0  0
  2  3  1  0  0  0
  2 25  1  0  0  0
  2 88  1  0  0  0
  2 89  1  0  0  0
  3  4  1  0  0  0
  3 90  1  0  0  0
  3 91  1  0  0  0
  4  5  1  0  0  0
  4 92  1  0  0  0
  4 93  1  0  0  0
  5  6  1  0  0  0
  5 26  1  0  0  0
  5 94  1  0  0  0
  6 25  1  0  0  0
  6 95  1  0  0  0
  6 96  1  0  0  0
  7  8  2  0  0  0
  7 26  1  0  0  0
  7 29  1  0  0  0
  8  9  1  0  0  0
  8 22  1  0  0  0
  9 10  1  0  0  0
  9 27  2  0  0  0
 10 11  2  0  0  0
 10 15  1  0  0  0
 11 12  1  0  0  0
 11 97  1  0  0  0
 12 13  2  0  0  0
 12 98  1  0  0  0
 13 14  1  0  0  0
 13 31  1  0  0  0
 14 15  2  0  0  0
 14 99  1  0  0  0
 15100  1  0  0  0
 16 17  2  0  0  0
 16 21  1  0  0  0
 16 31  1  0  0  0
 17 18  1  0  0  0
 17101  1  0  0  0
 18 19  2  0  0  0
 18102  1  0  0  0
 19 20  1  0  0  0
 19 24  1  0  0  0
 20 21  2  0  0  0
 20103  1  0  0  0
 21 23  1  0  0  0
 22 28  1  0  0  0
 22 32  2  0  0  0
 26 27  1  0  0  0
 28104  1  0  0  0
 28105  1  0  0  0
 29106  1  0  0  0
 29107  1  0  0  0
 33 34  1  0  0  0
 33 66  1  0  0  0
 33 70  2  0  0  0
 34 36  1  0  0  0
 34 59  1  0  0  0
 34108  1  0  0  0
 35 44  2  0  0  0
 35 45  1  0  0  0
 35 68  1  0  0  0
 36 56  1  0  0  0
 36109  1  0  0  0
 37 39  1  0  0  0
 37 47  1  0  0  0
 37 66  1  0  0  0
 37110  1  0  0  0
 38 43  2  0  0  0
 38 46  1  0  0  0
 38 47  1  0  0  0
 39 64  1  0  0  0
 39 67  2  0  0  0
 40 52  1  0  0  0
 40 53  2  0  0  0
 40 58  1  0  0  0
 41111  1  0  0  0
 41112  1  0  0  0
 41113  1  0  0  0
 41 48  1  0  0  0
 42 43  1  0  0  0
 42 66  1  0  0  0
 42114  1  0  0  0
 42115  1  0  0  0
 43 44  1  0  0  0
 44116  1  0  0  0
 45 46  2  0  0  0
 45117  1  0  0  0
 46118  1  0  0  0
 47119  1  0  0  0
 47120  1  0  0  0
 48 56  1  0  0  0
 48 65  1  0  0  0
 48121  1  0  0  0
 49 50  1  0  0  0
 49 53  1  0  0  0
 49 64  1  0  0  0
 49122  1  0  0  0
 50 51  1  0  0  0
 50123  1  0  0  0
 50124  1  0  0  0
 51 52  1  0  0  0
 51125  1  0  0  0
 51126  1  0  0  0
 52127  1  0  0  0
 52128  1  0  0  0
 53 54  1  0  0  0
 54 55  2  0  0  0
 54129  1  0  0  0
 55 57  1  0  0  0
 55130  1  0  0  0
 56 69  2  0  0  0
 57 58  2  0  0  0
 57131  1  0  0  0
 58132  1  0  0  0
 59 60  1  0  0  0
 59 61  1  0  0  0
 59 62  1  0  0  0
 60133  1  0  0  0
 60134  1  0  0  0
 60135  1  0  0  0
 61136  1  0  0  0
 61137  1  0  0  0
 61138  1  0  0  0
 62139  1  0  0  0
 62140  1  0  0  0
 62141  1  0  0  0
 63 65  1  0  0  0
 63142  1  0  0  0
 63143  1  0  0  0
 63144  1  0  0  0
 64145  1  0  0  0
 65146  1  0  0  0
 68 82  1  0  0  0
 71 74  1  0  0  0
 71 85  1  0  0  0
 71 86  2  0  0  0
 72 75  1  0  0  0
 72 83  1  0  0  0
 72 87  2  0  0  0
 73 85  1  0  0  0
 73147  1  0  0  0
 73148  1  0  0  0
 73149  1  0  0  0
 74 82  1  0  0  0
 74150  1  0  0  0
 74151  1  0  0  0
 75 84  1  0  0  0
 75152  1  0  0  0
 75153  1  0  0  0
 76 77  1  0  0  0
 76 78  1  0  0  0
 76154  1  0  0  0
 76155  1  0  0  0
 77 79  1  0  0  0
 77156  1  0  0  0
 77157  1  0  0  0
 78 80  1  0  0  0
 78158  1  0  0  0
 78159  1  0  0  0
 79 81  1  0  0  0
 79160  1  0  0  0
 79161  1  0  0  0
 80 83  1  0  0  0
 80162  1  0  0  0
 80163  1  0  0  0
 81 85  1  0  0  0
 81164  1  0  0  0
 81165  1  0  0  0
 82166  1  0  0  0
 82167  1  0  0  0
 83168  1  0  0  0
 84169  1  0  0  0
M  ISO  4   1 100  68 101  82 101  84 100
M  END
> <chiral flag>
0

> <version>
0

> <s_m_source_file>
/data/baiqing/PycharmProjects/Reinvent-master-3.2/result/LINK_invent/BTK/process_docking_weight1_custom_sum_contain_oxygen_bond_distance_aromatic_linkinvent_7_9_3/rearranged_h_0011.sdf

> <i_m_source_file_index>
48

> <r_mmod_Potential_Energy-OPLS-2005>
-272.231719970703

> <r_mmod_Stretch_Energy-OPLS-2005>
32.2723960876465

> <r_mmod_Bend_Energy-OPLS-2005>
87.7394256591797

> <r_mmod_Torsional_Energy-OPLS-2005>
232.867309570312

> <r_mmod_Improper_Torsional_Energy-OPLS-2005>
2.99089527130127

> <r_mmod_Van_der_Waal_Energy-OPLS-2005>
142.135879516602

> <r_mmod_Electrostatic_Energy-OPLS-2005>
-520.351257324219

> <r_mmod_Solvation_Energy-OPLS-2005>
-256.815338134766

> <b_mmod_Minimization_Converged-OPLS-2005>
0

> <r_mmod_RMS_Derivative-OPLS-2005>
1.04522585868835

$$$$
48
                    3D
 Structure written by MMmdl.
148156  0  0  1  0            999 V2000
  -30.5159  -14.9223   20.4199 C   0  0  0  0  0  0
  -30.4528  -12.5674   19.4865 C   0  0  0  0  0  0
  -29.5276  -12.5404   18.2466 C   0  0  0  0  0  0
  -28.0561  -12.3348   18.6553 C   0  0  0  0  0  0
  -27.6376  -13.2439   19.8405 C   0  0  2  0  0  0
  -28.6827  -13.2268   20.9776 C   0  0  0  0  0  0
  -25.2492  -13.8194   20.5670 C   0  0  0  0  0  0
  -24.1803  -13.0430   20.9213 C   0  0  0  0  0  0
  -24.6410  -11.6912   20.8738 C   0  0  0  0  0  0
  -23.9083  -10.4287   21.0391 C   0  0  0  0  0  0
  -24.3625   -9.4199   21.9156 C   0  0  0  0  0  0
  -23.6288   -8.2243   22.0741 C   0  0  0  0  0  0
  -22.4266   -8.0286   21.3549 C   0  0  0  0  0  0
  -21.9904   -9.0265   20.4661 C   0  0  0  0  0  0
  -22.7242  -10.2132   20.3054 C   0  0  0  0  0  0
  -21.6863   -6.0729   22.5274 C   0  0  0  0  0  0
  -21.4029   -6.5630   23.8203 C   0  0  0  0  0  0
  -21.3663   -5.6783   24.9165 C   0  0  0  0  0  0
  -21.6038   -4.3049   24.7222 C   0  0  0  0  0  0
  -21.8820   -3.8142   23.4342 C   0  0  0  0  0  0
  -21.9196   -4.6957   22.3398 C   0  0  0  0  0  0
  -22.7823  -13.5213   21.1875 C   0  0  0  0  0  0
  -22.1661   -4.2146   21.0981 F   0  0  0  0  0  0
  -21.5626   -3.4534   25.7727 F   0  0  0  0  0  0
  -29.9675  -13.6428   20.3937 N   0  0  0  0  0  0
  -26.2927  -12.9423   20.3218 N   0  0  0  0  0  0
  -25.9339  -11.6561   20.5688 N   0  0  0  0  0  0
  -22.0493  -12.8218   22.0458 N   0  0  0  0  0  0
  -25.4113  -15.1918   20.4026 N   0  0  0  0  0  0
  -31.7064  -15.0525   20.1124 O   0  0  0  0  0  0
  -21.6642   -6.8870   21.4234 O   0  0  0  0  0  0
  -22.3496  -14.5507   20.6704 O   0  0  0  0  0  0
  -24.6441  -31.8446   23.1899 C   0  0  0  0  0  0
  -25.9210  -32.4693   23.8292 C   0  0  1  0  0  0
  -27.2203  -27.1441   20.1393 C   0  0  0  0  0  0
  -25.5963  -33.8502   24.2207 N   0  0  0  0  0  0
  -23.4479  -30.4663   21.5359 C   0  0  2  0  0  0
  -24.8971  -28.8991   20.1082 C   0  0  0  0  0  0
  -22.7575  -29.4546   22.4861 C   0  0  0  0  0  0
  -18.0308  -28.1390   22.8469 C   0  0  0  0  0  0
  -24.1504  -36.7264   23.2639 C   0  0  0  0  0  0
  -26.0048  -30.7198   21.3906 C   0  0  0  0  0  0
  -26.0756  -29.3337   20.7276 C   0  0  0  0  0  0
  -27.2373  -28.4720   20.7283 C   0  0  0  0  0  0
  -26.0146  -26.8163   19.4757 C   0  0  0  0  0  0
  -24.8796  -27.6530   19.4678 C   0  0  0  0  0  0
  -23.6743  -29.8021   20.1537 C   0  0  0  0  0  0
  -25.4130  -36.3041   24.0322 C   0  0  1  0  0  0
  -20.5923  -28.3710   23.1239 C   0  0  2  0  0  0
  -20.6788  -26.9408   22.5426 C   0  0  0  0  0  0
  -19.5767  -26.6362   21.5223 C   0  0  0  0  0  0
  -18.1947  -26.7923   22.1631 C   0  0  0  0  0  0
  -19.1567  -28.8872   23.2847 C   0  0  0  0  0  0
  -18.9480  -30.1474   23.8865 C   0  0  0  0  0  0
  -17.6472  -30.6582   24.0561 C   0  0  0  0  0  0
  -25.9072  -34.9411   23.5070 C   0  0  0  0  0  0
  -16.5366  -29.9077   23.6323 C   0  0  0  0  0  0
  -16.7293  -28.6505   23.0328 C   0  0  0  0  0  0
  -26.4501  -31.6555   25.0740 C   0  0  0  0  0  0
  -25.3690  -31.3808   26.1464 C   0  0  0  0  0  0
  -27.0297  -30.2919   24.6353 C   0  0  0  0  0  0
  -27.6081  -32.4280   25.7487 C   0  0  0  0  0  0
  -27.5590  -37.1783   24.8448 C   0  0  0  0  0  0
  -21.4265  -29.3039   22.3602 N   0  0  0  0  0  0
  -26.4293  -37.3755   23.9409 N   0  0  0  0  0  0
  -24.7188  -31.0303   22.0940 N   0  0  0  0  0  0
  -23.4212  -28.8082   23.3009 O   0  0  0  0  0  0
  -28.2644  -26.1484   20.2131 O   0  0  0  0  0  0
  -26.5667  -34.8903   22.4656 O   0  0  0  0  0  0
  -23.5562  -32.1327   23.7112 O   0  0  0  0  0  0
  -30.5659  -18.5415   20.2239 C   0  0  0  0  0  0
  -28.2866  -18.1745   20.6730 C   0  0  0  0  0  0
  -29.5605  -17.5444   20.5008 C   0  0  0  0  0  0
  -29.0051  -20.5925   20.2972 C   0  0  0  0  0  0
  -30.3095  -19.9856   20.1222 C   0  0  0  0  0  0
  -28.0179  -19.5892   20.5680 C   0  0  0  0  0  0
  -28.9235  -23.3755   20.3311 C   0  0  0  0  0  0
  -27.9320  -24.6491   19.9585 C   0  0  0  0  0  0
  -28.5260  -22.0391   20.0862 N   0  0  0  0  0  0
  -29.6384  -16.0139   20.6320 N   0  0  0  0  0  0
  -30.0157  -23.6201   20.8479 O   0  0  0  0  0  0
  -31.6484  -20.9921   19.6978 Cl  0  0  0  0  0  0
  -26.3729  -20.0919   20.7596 Cl  0  0  0  0  0  0
  -31.4866  -12.7340   19.1787 H   0  0  0  0  0  0
  -30.4433  -11.6032   19.9965 H   0  0  0  0  0  0
  -29.8388  -11.7567   17.5560 H   0  0  0  0  0  0
  -29.6261  -13.4815   17.7027 H   0  0  0  0  0  0
  -27.9312  -11.2877   18.9300 H   0  0  0  0  0  0
  -27.4019  -12.5066   17.7996 H   0  0  0  0  0  0
  -27.6114  -14.2550   19.4347 H   0  0  0  0  0  0
  -28.7602  -12.2344   21.4256 H   0  0  0  0  0  0
  -28.3864  -13.9026   21.7815 H   0  0  0  0  0  0
  -25.2772   -9.5680   22.4721 H   0  0  0  0  0  0
  -24.0013   -7.4639   22.7455 H   0  0  0  0  0  0
  -21.0830   -8.8788   19.8977 H   0  0  0  0  0  0
  -22.3685  -10.9671   19.6183 H   0  0  0  0  0  0
  -21.2029   -7.6135   23.9703 H   0  0  0  0  0  0
  -21.1483   -6.0515   25.9066 H   0  0  0  0  0  0
  -22.0596   -2.7607   23.2842 H   0  0  0  0  0  0
  -22.4116  -11.9913   22.4902 H   0  0  0  0  0  0
  -21.1123  -13.1266   22.2684 H   0  0  0  0  0  0
  -24.6218  -15.8231   20.4763 H   0  0  0  0  0  0
  -26.2126  -15.6175   19.9581 H   0  0  0  0  0  0
  -26.7288  -32.5297   23.1030 H   0  0  0  0  0  0
  -25.0049  -33.9614   25.0314 H   0  0  0  0  0  0
  -22.7514  -31.2938   21.3853 H   0  0  0  0  0  0
  -23.3768  -35.9591   23.3286 H   0  0  0  0  0  0
  -24.3589  -36.8907   22.2054 H   0  0  0  0  0  0
  -23.7263  -37.6462   23.6678 H   0  0  0  0  0  0
  -26.1667  -31.4802   20.6253 H   0  0  0  0  0  0
  -26.8714  -30.7619   22.0382 H   0  0  0  0  0  0
  -28.1328  -28.7993   21.2378 H   0  0  0  0  0  0
  -25.9062  -25.8699   18.9694 H   0  0  0  0  0  0
  -23.9828  -27.3135   18.9667 H   0  0  0  0  0  0
  -23.8153  -30.5815   19.4042 H   0  0  0  0  0  0
  -22.7875  -29.2506   19.8352 H   0  0  0  0  0  0
  -25.1315  -36.1870   25.0816 H   0  0  0  0  0  0
  -21.0025  -28.3319   24.1358 H   0  0  0  0  0  0
  -20.5659  -26.2329   23.3651 H   0  0  0  0  0  0
  -21.6663  -26.7391   22.1243 H   0  0  0  0  0  0
  -19.6923  -25.6265   21.1272 H   0  0  0  0  0  0
  -19.6712  -27.3160   20.6745 H   0  0  0  0  0  0
  -17.4215  -26.6660   21.4037 H   0  0  0  0  0  0
  -18.0349  -26.0082   22.9044 H   0  0  0  0  0  0
  -19.7959  -30.7306   24.2212 H   0  0  0  0  0  0
  -17.5021  -31.6247   24.5186 H   0  0  0  0  0  0
  -15.5363  -30.2965   23.7654 H   0  0  0  0  0  0
  -15.8700  -28.0819   22.7030 H   0  0  0  0  0  0
  -24.5806  -30.7216   25.7803 H   0  0  0  0  0  0
  -24.8950  -32.3023   26.4868 H   0  0  0  0  0  0
  -25.7965  -30.8975   27.0263 H   0  0  0  0  0  0
  -26.2886  -29.6689   24.1337 H   0  0  0  0  0  0
  -27.3806  -29.7200   25.4950 H   0  0  0  0  0  0
  -27.8860  -30.4074   23.9714 H   0  0  0  0  0  0
  -27.2719  -33.3584   26.2077 H   0  0  0  0  0  0
  -28.3868  -32.6834   25.0285 H   0  0  0  0  0  0
  -28.0774  -31.8393   26.5382 H   0  0  0  0  0  0
  -28.2602  -38.0080   24.7502 H   0  0  0  0  0  0
  -28.1091  -36.2626   24.6250 H   0  0  0  0  0  0
  -27.2325  -37.1411   25.8851 H   0  0  0  0  0  0
  -20.9468  -29.8752   21.6781 H   0  0  0  0  0  0
  -26.0165  -38.2823   24.1425 H   0  0  0  0  0  0
  -31.5815  -18.2056   20.0622 H   0  0  0  0  0  0
  -27.4374  -17.5424   20.8849 H   0  0  0  0  0  0
  -26.9929  -24.4328   20.4688 H   0  0  0  0  0  0
  -27.7211  -24.5470   18.8945 H   0  0  0  0  0  0
  -27.5717  -22.0364   19.7507 H   0  0  0  0  0  0
  -28.7417  -15.6285   20.8861 H   0  0  0  0  0  0
  1 25  1  0  0  0
  1 30  2  0  0  0
  1 80  1  0  0  0
  2  3  1  0  0  0
  2 25  1  0  0  0
  2 84  1  0  0  0
  2 85  1  0  0  0
  3  4  1  0  0  0
  3 86  1  0  0  0
  3 87  1  0  0  0
  4  5  1  0  0  0
  4 88  1  0  0  0
  4 89  1  0  0  0
  5  6  1  0  0  0
  5 26  1  0  0  0
  5 90  1  0  0  0
  6 25  1  0  0  0
  6 91  1  0  0  0
  6 92  1  0  0  0
  7  8  2  0  0  0
  7 26  1  0  0  0
  7 29  1  0  0  0
  8  9  1  0  0  0
  8 22  1  0  0  0
  9 10  1  0  0  0
  9 27  2  0  0  0
 10 11  2  0  0  0
 10 15  1  0  0  0
 11 12  1  0  0  0
 11 93  1  0  0  0
 12 13  2  0  0  0
 12 94  1  0  0  0
 13 14  1  0  0  0
 13 31  1  0  0  0
 14 15  2  0  0  0
 14 95  1  0  0  0
 15 96  1  0  0  0
 16 17  2  0  0  0
 16 21  1  0  0  0
 16 31  1  0  0  0
 17 18  1  0  0  0
 17 97  1  0  0  0
 18 19  2  0  0  0
 18 98  1  0  0  0
 19 20  1  0  0  0
 19 24  1  0  0  0
 20 21  2  0  0  0
 20 99  1  0  0  0
 21 23  1  0  0  0
 22 28  1  0  0  0
 22 32  2  0  0  0
 26 27  1  0  0  0
 28100  1  0  0  0
 28101  1  0  0  0
 29102  1  0  0  0
 29103  1  0  0  0
 33 34  1  0  0  0
 33 66  1  0  0  0
 33 70  2  0  0  0
 34 36  1  0  0  0
 34 59  1  0  0  0
 34104  1  0  0  0
 35 44  2  0  0  0
 35 45  1  0  0  0
 35 68  1  0  0  0
 36 56  1  0  0  0
 36105  1  0  0  0
 37 39  1  0  0  0
 37 47  1  0  0  0
 37 66  1  0  0  0
 37106  1  0  0  0
 38 43  2  0  0  0
 38 46  1  0  0  0
 38 47  1  0  0  0
 39 64  1  0  0  0
 39 67  2  0  0  0
 40 52  1  0  0  0
 40 53  2  0  0  0
 40 58  1  0  0  0
 41107  1  0  0  0
 41108  1  0  0  0
 41109  1  0  0  0
 41 48  1  0  0  0
 42 43  1  0  0  0
 42 66  1  0  0  0
 42110  1  0  0  0
 42111  1  0  0  0
 43 44  1  0  0  0
 44112  1  0  0  0
 45 46  2  0  0  0
 45113  1  0  0  0
 46114  1  0  0  0
 47115  1  0  0  0
 47116  1  0  0  0
 48 56  1  0  0  0
 48 65  1  0  0  0
 48117  1  0  0  0
 49 50  1  0  0  0
 49 53  1  0  0  0
 49 64  1  0  0  0
 49118  1  0  0  0
 50 51  1  0  0  0
 50119  1  0  0  0
 50120  1  0  0  0
 51 52  1  0  0  0
 51121  1  0  0  0
 51122  1  0  0  0
 52123  1  0  0  0
 52124  1  0  0  0
 53 54  1  0  0  0
 54 55  2  0  0  0
 54125  1  0  0  0
 55 57  1  0  0  0
 55126  1  0  0  0
 56 69  2  0  0  0
 57 58  2  0  0  0
 57127  1  0  0  0
 58128  1  0  0  0
 59 60  1  0  0  0
 59 61  1  0  0  0
 59 62  1  0  0  0
 60129  1  0  0  0
 60130  1  0  0  0
 60131  1  0  0  0
 61132  1  0  0  0
 61133  1  0  0  0
 61134  1  0  0  0
 62135  1  0  0  0
 62136  1  0  0  0
 62137  1  0  0  0
 63 65  1  0  0  0
 63138  1  0  0  0
 63139  1  0  0  0
 63140  1  0  0  0
 64141  1  0  0  0
 65142  1  0  0  0
 68 78  1  0  0  0
 71 73  2  0  0  0
 71 75  1  0  0  0
 71143  1  0  0  0
 72 73  1  0  0  0
 72 76  2  0  0  0
 72144  1  0  0  0
 73 80  1  0  0  0
 74 75  2  0  0  0
 74 76  1  0  0  0
 74 79  1  0  0  0
 75 82  1  0  0  0
 76 83  1  0  0  0
 77 78  1  0  0  0
 77 79  1  0  0  0
 77 81  2  0  0  0
 78145  1  0  0  0
 78146  1  0  0  0
 79147  1  0  0  0
 80148  1  0  0  0
M  ISO  4   1 100  68 101  78 101  80 100
M  END
> <chiral flag>
0

> <version>
0

> <s_m_source_file>
/data/baiqing/PycharmProjects/Reinvent-master-3.2/result/LINK_invent/BTK/process_docking_weight1_custom_sum_contain_oxygen_bond_distance_aromatic_linkinvent_7_9_3/rearranged_h_0011.sdf

> <i_m_source_file_index>
49

> <r_mmod_Potential_Energy-OPLS-2005>
399.875061035156

> <r_mmod_Stretch_Energy-OPLS-2005>
221.401428222656

> <r_mmod_Bend_Energy-OPLS-2005>
276.700164794922

> <r_mmod_Torsional_Energy-OPLS-2005>
228.108184814453

> <r_mmod_Improper_Torsional_Energy-OPLS-2005>
5.57468605041504

> <r_mmod_Van_der_Waal_Energy-OPLS-2005>
127.738151550293

> <r_mmod_Electrostatic_Energy-OPLS-2005>
-385.081237792969

> <r_mmod_Solvation_Energy-OPLS-2005>
-257.042694091797

> <b_mmod_Minimization_Converged-OPLS-2005>
0

> <r_mmod_RMS_Derivative-OPLS-2005>
2.21632671356201

$$$$
49
                    3D
 Structure written by MMmdl.
151159  0  0  1  0            999 V2000
  -30.4830  -15.0840   20.3795 C   0  0  0  0  0  0
  -30.4393  -12.6683   19.5382 C   0  0  0  0  0  0
  -29.5331  -12.5469   18.2881 C   0  0  0  0  0  0
  -28.0673  -12.3167   18.6969 C   0  0  0  0  0  0
  -27.6247  -13.2541   19.8493 C   0  0  2  0  0  0
  -28.6610  -13.3401   20.9914 C   0  0  0  0  0  0
  -25.2433  -13.8220   20.5747 C   0  0  0  0  0  0
  -24.1755  -13.0438   20.9245 C   0  0  0  0  0  0
  -24.6380  -11.6924   20.8779 C   0  0  0  0  0  0
  -23.9069  -10.4290   21.0429 C   0  0  0  0  0  0
  -24.3620   -9.4199   21.9198 C   0  0  0  0  0  0
  -23.6289   -8.2239   22.0757 C   0  0  0  0  0  0
  -22.4273   -8.0282   21.3551 C   0  0  0  0  0  0
  -21.9909   -9.0256   20.4655 C   0  0  0  0  0  0
  -22.7244  -10.2134   20.3070 C   0  0  0  0  0  0
  -21.6852   -6.0735   22.5283 C   0  0  0  0  0  0
  -21.4017   -6.5640   23.8218 C   0  0  0  0  0  0
  -21.3659   -5.6792   24.9177 C   0  0  0  0  0  0
  -21.6041   -4.3053   24.7229 C   0  0  0  0  0  0
  -21.8814   -3.8145   23.4350 C   0  0  0  0  0  0
  -21.9190   -4.6961   22.3409 C   0  0  0  0  0  0
  -22.7771  -13.5209   21.1882 C   0  0  0  0  0  0
  -22.1659   -4.2151   21.0983 F   0  0  0  0  0  0
  -21.5620   -3.4537   25.7739 F   0  0  0  0  0  0
  -29.9285  -13.7889   20.3972 N   0  0  0  0  0  0
  -26.2859  -12.9453   20.3311 N   0  0  0  0  0  0
  -25.9316  -11.6580   20.5781 N   0  0  0  0  0  0
  -22.0420  -12.8201   22.0446 N   0  0  0  0  0  0
  -25.4094  -15.1952   20.4163 N   0  0  0  0  0  0
  -31.6661  -15.1403   20.0202 O   0  0  0  0  0  0
  -21.6638   -6.8878   21.4245 O   0  0  0  0  0  0
  -22.3456  -14.5507   20.6708 O   0  0  0  0  0  0
  -24.6487  -31.8329   23.1785 C   0  0  0  0  0  0
  -25.9226  -32.4628   23.8205 C   0  0  1  0  0  0
  -27.2239  -27.0510   20.1628 C   0  0  0  0  0  0
  -25.5945  -33.8441   24.2112 N   0  0  0  0  0  0
  -23.4581  -30.4454   21.5238 C   0  0  2  0  0  0
  -24.9128  -28.8552   20.1000 C   0  0  0  0  0  0
  -22.7600  -29.4468   22.4816 C   0  0  0  0  0  0
  -18.0310  -28.1396   22.8479 C   0  0  0  0  0  0
  -24.1492  -36.7234   23.2645 C   0  0  0  0  0  0
  -26.0165  -30.6769   21.3931 C   0  0  0  0  0  0
  -26.0853  -29.2800   20.7343 C   0  0  0  0  0  0
  -27.2315  -28.3901   20.7555 C   0  0  0  0  0  0
  -26.0328  -26.7476   19.4703 C   0  0  0  0  0  0
  -24.9041  -27.6064   19.4520 C   0  0  0  0  0  0
  -23.6904  -29.7655   20.1448 C   0  0  0  0  0  0
  -25.4129  -36.2989   24.0300 C   0  0  1  0  0  0
  -20.5924  -28.3721   23.1227 C   0  0  2  0  0  0
  -20.6792  -26.9413   22.5417 C   0  0  0  0  0  0
  -19.5768  -26.6371   21.5222 C   0  0  0  0  0  0
  -18.1947  -26.7933   22.1627 C   0  0  0  0  0  0
  -19.1569  -28.8882   23.2840 C   0  0  0  0  0  0
  -18.9481  -30.1479   23.8863 C   0  0  0  0  0  0
  -17.6475  -30.6589   24.0557 C   0  0  0  0  0  0
  -25.9085  -34.9371   23.5023 C   0  0  0  0  0  0
  -16.5367  -29.9078   23.6339 C   0  0  0  0  0  0
  -16.7293  -28.6498   23.0359 C   0  0  0  0  0  0
  -26.4521  -31.6547   25.0699 C   0  0  0  0  0  0
  -25.3678  -31.3794   26.1383 C   0  0  0  0  0  0
  -27.0404  -30.2923   24.6371 C   0  0  0  0  0  0
  -27.6020  -32.4346   25.7503 C   0  0  0  0  0  0
  -27.5569  -37.1772   24.8456 C   0  0  0  0  0  0
  -21.4284  -29.3020   22.3579 N   0  0  0  0  0  0
  -26.4279  -37.3714   23.9399 N   0  0  0  0  0  0
  -24.7272  -31.0100   22.0861 N   0  0  0  0  0  0
  -23.4207  -28.8039   23.3016 O   0  0  0  0  0  0
  -28.2531  -26.0317   20.3436 O   0  0  0  0  0  0
  -26.5684  -34.8885   22.4612 O   0  0  0  0  0  0
  -23.5588  -32.1251   23.6957 O   0  0  0  0  0  0
  -28.2658  -20.1043   18.7830 C   0  0  0  0  0  0
  -28.2198  -18.8138   18.2114 C   0  0  0  0  0  0
  -29.5051  -19.1059   20.6133 C   0  0  0  0  0  0
  -28.9429  -20.3742   19.9888 C   0  0  0  0  0  0
  -29.4400  -17.6889   20.0640 C   0  0  0  0  0  0
  -28.7914  -17.6598   18.7982 C   0  0  0  0  0  0
  -28.1850  -23.0387   20.2190 C   0  0  0  0  0  0
  -30.4570  -22.2911   20.7041 C   0  0  0  0  0  0
  -28.4832  -24.6170   19.6502 C   0  0  0  0  0  0
  -29.7418  -16.2842   20.7129 N   0  0  0  0  0  0
  -29.1039  -21.9095   20.3122 N   0  0  0  0  0  0
  -27.0077  -22.8253   20.5240 O   0  0  0  0  0  0
  -28.6086  -16.1900   17.9093 Cl  0  0  0  0  0  0
  -31.4718  -12.8312   19.2270 H   0  0  0  0  0  0
  -30.4500  -11.7314   20.0972 H   0  0  0  0  0  0
  -29.8729  -11.7332   17.6460 H   0  0  0  0  0  0
  -29.6121  -13.4567   17.6925 H   0  0  0  0  0  0
  -27.9719  -11.2772   19.0117 H   0  0  0  0  0  0
  -27.4088  -12.4352   17.8361 H   0  0  0  0  0  0
  -27.5637  -14.2439   19.4070 H   0  0  0  0  0  0
  -28.7742  -12.3785   21.4938 H   0  0  0  0  0  0
  -28.3300  -14.0475   21.7523 H   0  0  0  0  0  0
  -25.2766   -9.5662   22.4773 H   0  0  0  0  0  0
  -23.9997   -7.4621   22.7461 H   0  0  0  0  0  0
  -21.0841   -8.8777   19.8957 H   0  0  0  0  0  0
  -22.3708  -10.9672   19.6176 H   0  0  0  0  0  0
  -21.2024   -7.6149   23.9720 H   0  0  0  0  0  0
  -21.1482   -6.0526   25.9081 H   0  0  0  0  0  0
  -22.0593   -2.7606   23.2852 H   0  0  0  0  0  0
  -22.4038  -11.9880   22.4865 H   0  0  0  0  0  0
  -21.1033  -13.1212   22.2641 H   0  0  0  0  0  0
  -24.6328  -15.8397   20.5112 H   0  0  0  0  0  0
  -26.2437  -15.6304   20.0448 H   0  0  0  0  0  0
  -26.7289  -32.5194   23.0924 H   0  0  0  0  0  0
  -25.0050  -33.9537   25.0229 H   0  0  0  0  0  0
  -22.7641  -31.2728   21.3612 H   0  0  0  0  0  0
  -23.3753  -35.9565   23.3284 H   0  0  0  0  0  0
  -24.3572  -36.8903   22.2064 H   0  0  0  0  0  0
  -23.7257  -37.6422   23.6715 H   0  0  0  0  0  0
  -26.1854  -31.4272   20.6198 H   0  0  0  0  0  0
  -26.8807  -30.7271   22.0434 H   0  0  0  0  0  0
  -28.1140  -28.6996   21.2969 H   0  0  0  0  0  0
  -25.9348  -25.7838   18.9918 H   0  0  0  0  0  0
  -24.0079  -27.2769   18.9444 H   0  0  0  0  0  0
  -23.8309  -30.5365   19.3865 H   0  0  0  0  0  0
  -22.8041  -29.2100   19.8339 H   0  0  0  0  0  0
  -25.1323  -36.1797   25.0790 H   0  0  0  0  0  0
  -21.0012  -28.3323   24.1350 H   0  0  0  0  0  0
  -20.5688  -26.2324   23.3639 H   0  0  0  0  0  0
  -21.6656  -26.7410   22.1213 H   0  0  0  0  0  0
  -19.6925  -25.6273   21.1272 H   0  0  0  0  0  0
  -19.6714  -27.3165   20.6741 H   0  0  0  0  0  0
  -17.4216  -26.6680   21.4029 H   0  0  0  0  0  0
  -18.0337  -26.0080   22.9028 H   0  0  0  0  0  0
  -19.7955  -30.7309   24.2210 H   0  0  0  0  0  0
  -17.5024  -31.6265   24.5164 H   0  0  0  0  0  0
  -15.5366  -30.2965   23.7682 H   0  0  0  0  0  0
  -15.8695  -28.0803   22.7092 H   0  0  0  0  0  0
  -24.5844  -30.7152   25.7712 H   0  0  0  0  0  0
  -24.8888  -32.3007   26.4711 H   0  0  0  0  0  0
  -25.7931  -30.9029   27.0224 H   0  0  0  0  0  0
  -26.3049  -29.6624   24.1353 H   0  0  0  0  0  0
  -27.3940  -29.7255   25.4996 H   0  0  0  0  0  0
  -27.8988  -30.4122   23.9757 H   0  0  0  0  0  0
  -27.2568  -33.3660   26.2006 H   0  0  0  0  0  0
  -28.3877  -32.6890   25.0376 H   0  0  0  0  0  0
  -28.0636  -31.8532   26.5496 H   0  0  0  0  0  0
  -28.2561  -38.0089   24.7494 H   0  0  0  0  0  0
  -28.1089  -36.2615   24.6288 H   0  0  0  0  0  0
  -27.2284  -37.1418   25.8857 H   0  0  0  0  0  0
  -20.9507  -29.8704   21.6727 H   0  0  0  0  0  0
  -26.0134  -38.2773   24.1411 H   0  0  0  0  0  0
  -27.8189  -20.9171   18.2290 H   0  0  0  0  0  0
  -27.7155  -18.7001   17.2623 H   0  0  0  0  0  0
  -30.0047  -19.2243   21.5642 H   0  0  0  0  0  0
  -30.9945  -21.4505   21.1403 H   0  0  0  0  0  0
  -30.4556  -23.0910   21.4471 H   0  0  0  0  0  0
  -31.0205  -22.6294   19.8340 H   0  0  0  0  0  0
  -27.9762  -24.6706   18.6872 H   0  0  0  0  0  0
  -29.5392  -24.6196   19.3835 H   0  0  0  0  0  0
  -28.9789  -16.0198   21.3177 H   0  0  0  0  0  0
  1 25  1  0  0  0
  1 30  2  0  0  0
  1 80  1  0  0  0
  2  3  1  0  0  0
  2 25  1  0  0  0
  2 84  1  0  0  0
  2 85  1  0  0  0
  3  4  1  0  0  0
  3 86  1  0  0  0
  3 87  1  0  0  0
  4  5  1  0  0  0
  4 88  1  0  0  0
  4 89  1  0  0  0
  5  6  1  0  0  0
  5 26  1  0  0  0
  5 90  1  0  0  0
  6 25  1  0  0  0
  6 91  1  0  0  0
  6 92  1  0  0  0
  7  8  2  0  0  0
  7 26  1  0  0  0
  7 29  1  0  0  0
  8  9  1  0  0  0
  8 22  1  0  0  0
  9 10  1  0  0  0
  9 27  2  0  0  0
 10 11  2  0  0  0
 10 15  1  0  0  0
 11 12  1  0  0  0
 11 93  1  0  0  0
 12 13  2  0  0  0
 12 94  1  0  0  0
 13 14  1  0  0  0
 13 31  1  0  0  0
 14 15  2  0  0  0
 14 95  1  0  0  0
 15 96  1  0  0  0
 16 17  2  0  0  0
 16 21  1  0  0  0
 16 31  1  0  0  0
 17 18  1  0  0  0
 17 97  1  0  0  0
 18 19  2  0  0  0
 18 98  1  0  0  0
 19 20  1  0  0  0
 19 24  1  0  0  0
 20 21  2  0  0  0
 20 99  1  0  0  0
 21 23  1  0  0  0
 22 28  1  0  0  0
 22 32  2  0  0  0
 26 27  1  0  0  0
 28100  1  0  0  0
 28101  1  0  0  0
 29102  1  0  0  0
 29103  1  0  0  0
 33 34  1  0  0  0
 33 66  1  0  0  0
 33 70  2  0  0  0
 34 36  1  0  0  0
 34 59  1  0  0  0
 34104  1  0  0  0
 35 44  2  0  0  0
 35 45  1  0  0  0
 35 68  1  0  0  0
 36 56  1  0  0  0
 36105  1  0  0  0
 37 39  1  0  0  0
 37 47  1  0  0  0
 37 66  1  0  0  0
 37106  1  0  0  0
 38 43  2  0  0  0
 38 46  1  0  0  0
 38 47  1  0  0  0
 39 64  1  0  0  0
 39 67  2  0  0  0
 40 52  1  0  0  0
 40 53  2  0  0  0
 40 58  1  0  0  0
 41107  1  0  0  0
 41108  1  0  0  0
 41109  1  0  0  0
 41 48  1  0  0  0
 42 43  1  0  0  0
 42 66  1  0  0  0
 42110  1  0  0  0
 42111  1  0  0  0
 43 44  1  0  0  0
 44112  1  0  0  0
 45 46  2  0  0  0
 45113  1  0  0  0
 46114  1  0  0  0
 47115  1  0  0  0
 47116  1  0  0  0
 48 56  1  0  0  0
 48 65  1  0  0  0
 48117  1  0  0  0
 49 50  1  0  0  0
 49 53  1  0  0  0
 49 64  1  0  0  0
 49118  1  0  0  0
 50 51  1  0  0  0
 50119  1  0  0  0
 50120  1  0  0  0
 51 52  1  0  0  0
 51121  1  0  0  0
 51122  1  0  0  0
 52123  1  0  0  0
 52124  1  0  0  0
 53 54  1  0  0  0
 54 55  2  0  0  0
 54125  1  0  0  0
 55 57  1  0  0  0
 55126  1  0  0  0
 56 69  2  0  0  0
 57 58  2  0  0  0
 57127  1  0  0  0
 58128  1  0  0  0
 59 60  1  0  0  0
 59 61  1  0  0  0
 59 62  1  0  0  0
 60129  1  0  0  0
 60130  1  0  0  0
 60131  1  0  0  0
 61132  1  0  0  0
 61133  1  0  0  0
 61134  1  0  0  0
 62135  1  0  0  0
 62136  1  0  0  0
 62137  1  0  0  0
 63 65  1  0  0  0
 63138  1  0  0  0
 63139  1  0  0  0
 63140  1  0  0  0
 64141  1  0  0  0
 65142  1  0  0  0
 68 79  1  0  0  0
 71 72  2  0  0  0
 71 74  1  0  0  0
 71143  1  0  0  0
 72 76  1  0  0  0
 72144  1  0  0  0
 73 74  2  0  0  0
 73 75  1  0  0  0
 73145  1  0  0  0
 74 81  1  0  0  0
 75 76  2  0  0  0
 75 80  1  0  0  0
 76 83  1  0  0  0
 77 79  1  0  0  0
 77 81  1  0  0  0
 77 82  2  0  0  0
 78 81  1  0  0  0
 78146  1  0  0  0
 78147  1  0  0  0
 78148  1  0  0  0
 79149  1  0  0  0
 79150  1  0  0  0
 80151  1  0  0  0
M  ISO  4   1 100  68 101  79 101  80 100
M  END
> <chiral flag>
0

> <version>
0

> <s_m_source_file>
/data/baiqing/PycharmProjects/Reinvent-master-3.2/result/LINK_invent/BTK/process_docking_weight1_custom_sum_contain_oxygen_bond_distance_aromatic_linkinvent_7_9_3/rearranged_h_0011.sdf

> <i_m_source_file_index>
50

> <r_mmod_Potential_Energy-OPLS-2005>
899.878967285156

> <r_mmod_Stretch_Energy-OPLS-2005>
374.966796875

> <r_mmod_Bend_Energy-OPLS-2005>
351.571746826172

> <r_mmod_Torsional_Energy-OPLS-2005>
329.305450439453

> <r_mmod_Improper_Torsional_Energy-OPLS-2005>
6.97222948074341

> <r_mmod_Van_der_Waal_Energy-OPLS-2005>
122.018760681152

> <r_mmod_Electrostatic_Energy-OPLS-2005>
-349.045440673828

> <r_mmod_Solvation_Energy-OPLS-2005>
-230.331100463867

> <b_mmod_Minimization_Converged-OPLS-2005>
0

> <r_mmod_RMS_Derivative-OPLS-2005>
1.31314671039581

$$$$
50
                    3D
 Structure written by MMmdl.
155163  0  0  1  0            999 V2000
  -30.6153  -14.7273   20.4579 C   0  0  0  0  0  0
  -30.4312  -12.4428   19.4678 C   0  0  0  0  0  0
  -29.5091  -12.5039   18.2311 C   0  0  0  0  0  0
  -28.0343  -12.3304   18.6452 C   0  0  0  0  0  0
  -27.6411  -13.2296   19.8478 C   0  0  2  0  0  0
  -28.6868  -13.1597   20.9818 C   0  0  0  0  0  0
  -25.2511  -13.8194   20.5691 C   0  0  0  0  0  0
  -24.1804  -13.0442   20.9212 C   0  0  0  0  0  0
  -24.6395  -11.6918   20.8753 C   0  0  0  0  0  0
  -23.9075  -10.4293   21.0407 C   0  0  0  0  0  0
  -24.3625   -9.4209   21.9187 C   0  0  0  0  0  0
  -23.6297   -8.2246   22.0758 C   0  0  0  0  0  0
  -22.4281   -8.0285   21.3546 C   0  0  0  0  0  0
  -21.9918   -9.0257   20.4645 C   0  0  0  0  0  0
  -22.7247  -10.2135   20.3052 C   0  0  0  0  0  0
  -21.6858   -6.0742   22.5281 C   0  0  0  0  0  0
  -21.4015   -6.5640   23.8217 C   0  0  0  0  0  0
  -21.3659   -5.6792   24.9177 C   0  0  0  0  0  0
  -21.6044   -4.3059   24.7223 C   0  0  0  0  0  0
  -21.8816   -3.8151   23.4343 C   0  0  0  0  0  0
  -21.9195   -4.6968   22.3399 C   0  0  0  0  0  0
  -22.7823  -13.5226   21.1862 C   0  0  0  0  0  0
  -22.1658   -4.2156   21.0973 F   0  0  0  0  0  0
  -21.5632   -3.4542   25.7732 F   0  0  0  0  0  0
  -29.9875  -13.5055   20.3964 N   0  0  0  0  0  0
  -26.2934  -12.9398   20.3264 N   0  0  0  0  0  0
  -25.9323  -11.6541   20.5750 N   0  0  0  0  0  0
  -22.0460  -12.8227   22.0418 N   0  0  0  0  0  0
  -25.4169  -15.1923   20.4086 N   0  0  0  0  0  0
  -31.8104  -14.8147   20.1615 O   0  0  0  0  0  0
  -21.6641   -6.8886   21.4244 O   0  0  0  0  0  0
  -22.3509  -14.5529   20.6701 O   0  0  0  0  0  0
  -24.6303  -31.8550   23.1981 C   0  0  0  0  0  0
  -25.9133  -32.4752   23.8328 C   0  0  1  0  0  0
  -27.2236  -27.2798   20.1326 C   0  0  0  0  0  0
  -25.5938  -33.8557   24.2260 N   0  0  0  0  0  0
  -23.4266  -30.4758   21.5406 C   0  0  2  0  0  0
  -24.8742  -28.9179   20.1155 C   0  0  0  0  0  0
  -22.7491  -29.4602   22.4922 C   0  0  0  0  0  0
  -18.0287  -28.1384   22.8481 C   0  0  0  0  0  0
  -24.1489  -36.7285   23.2639 C   0  0  0  0  0  0
  -25.9697  -30.7748   21.3728 C   0  0  0  0  0  0
  -26.0451  -29.3969   20.7186 C   0  0  0  0  0  0
  -27.2265  -28.5915   20.7107 C   0  0  0  0  0  0
  -26.0320  -26.8557   19.5110 C   0  0  0  0  0  0
  -24.8709  -27.6546   19.5012 C   0  0  0  0  0  0
  -23.6443  -29.8035   20.1590 C   0  0  0  0  0  0
  -25.4114  -36.3069   24.0326 C   0  0  1  0  0  0
  -20.5887  -28.3694   23.1271 C   0  0  2  0  0  0
  -20.6772  -26.9414   22.5403 C   0  0  0  0  0  0
  -19.5749  -26.6381   21.5206 C   0  0  0  0  0  0
  -18.1930  -26.7929   22.1618 C   0  0  0  0  0  0
  -19.1539  -28.8856   23.2873 C   0  0  0  0  0  0
  -18.9461  -30.1457   23.8889 C   0  0  0  0  0  0
  -17.6460  -30.6586   24.0557 C   0  0  0  0  0  0
  -25.9055  -34.9439   23.5095 C   0  0  0  0  0  0
  -16.5351  -29.9081   23.6332 C   0  0  0  0  0  0
  -16.7274  -28.6499   23.0352 C   0  0  0  0  0  0
  -26.4504  -31.6576   25.0716 C   0  0  0  0  0  0
  -25.3735  -31.3711   26.1442 C   0  0  0  0  0  0
  -27.0353  -30.2996   24.6196 C   0  0  0  0  0  0
  -27.6054  -32.4318   25.7493 C   0  0  0  0  0  0
  -27.5579  -37.1795   24.8460 C   0  0  0  0  0  0
  -21.4201  -29.3041   22.3662 N   0  0  0  0  0  0
  -26.4285  -37.3770   23.9412 N   0  0  0  0  0  0
  -24.6947  -31.0529   22.0943 N   0  0  0  0  0  0
  -23.4191  -28.8145   23.3024 O   0  0  0  0  0  0
  -28.3283  -26.4086   20.1290 O   0  0  0  0  0  0
  -26.5624  -34.8913   22.4662 O   0  0  0  0  0  0
  -23.5458  -32.1361   23.7291 O   0  0  0  0  0  0
  -31.4570  -17.7110   21.0888 C   0  0  0  0  0  0
  -30.8836  -20.0920   20.8584 C   0  0  0  0  0  0
  -30.1746  -17.3054   20.6550 C   0  0  0  0  0  0
  -29.5738  -19.8068   20.4139 C   0  0  0  0  0  0
  -31.8002  -19.0738   21.1878 C   0  0  0  0  0  0
  -29.2429  -18.3753   20.3301 C   0  0  0  0  0  0
  -27.5573  -20.6236   19.2365 C   0  0  0  0  0  0
  -28.6042  -23.6826   19.9138 C   0  0  0  0  0  0
  -28.7020  -22.2933   20.7492 C   0  0  0  0  0  0
  -28.1688  -25.0312   20.6956 C   0  0  0  0  0  0
  -29.8262  -15.8592   20.6032 N   0  0  0  0  0  0
  -28.7350  -20.9474   20.0374 N   0  0  0  0  0  0
  -33.0441  -19.4141   21.6032 F   0  0  0  0  0  0
  -28.0043  -17.9897   19.9336 F   0  0  0  0  0  0
  -31.4728  -12.5647   19.1659 H   0  0  0  0  0  0
  -30.3708  -11.4658   19.9493 H   0  0  0  0  0  0
  -29.7899  -11.7336   17.5116 H   0  0  0  0  0  0
  -29.6387  -13.4595   17.7216 H   0  0  0  0  0  0
  -27.8907  -11.2815   18.9068 H   0  0  0  0  0  0
  -27.3785  -12.5235   17.7959 H   0  0  0  0  0  0
  -27.6339  -14.2508   19.4671 H   0  0  0  0  0  0
  -28.7197  -12.1618   21.4220 H   0  0  0  0  0  0
  -28.4276  -13.8440   21.7917 H   0  0  0  0  0  0
  -25.2765   -9.5697   22.4770 H   0  0  0  0  0  0
  -24.0008   -7.4644   22.7479 H   0  0  0  0  0  0
  -21.0852   -8.8775   19.8949 H   0  0  0  0  0  0
  -22.3704  -10.9677   19.6166 H   0  0  0  0  0  0
  -21.2001   -7.6146   23.9729 H   0  0  0  0  0  0
  -21.1488   -6.0515   25.9083 H   0  0  0  0  0  0
  -22.0595   -2.7613   23.2837 H   0  0  0  0  0  0
  -22.4057  -11.9887   22.4813 H   0  0  0  0  0  0
  -21.1077  -13.1264   22.2592 H   0  0  0  0  0  0
  -24.6437  -15.8384   20.5213 H   0  0  0  0  0  0
  -26.2536  -15.6430   20.0611 H   0  0  0  0  0  0
  -26.7201  -32.5404   23.1072 H   0  0  0  0  0  0
  -25.0082  -33.9689   25.0405 H   0  0  0  0  0  0
  -22.7229  -31.2980   21.3916 H   0  0  0  0  0  0
  -23.3754  -35.9613   23.3284 H   0  0  0  0  0  0
  -24.3583  -36.8928   22.2057 H   0  0  0  0  0  0
  -23.7237  -37.6477   23.6677 H   0  0  0  0  0  0
  -26.1038  -31.5340   20.6009 H   0  0  0  0  0  0
  -26.8492  -30.8267   22.0029 H   0  0  0  0  0  0
  -28.1285  -28.9561   21.1815 H   0  0  0  0  0  0
  -25.9965  -25.8844   19.0370 H   0  0  0  0  0  0
  -23.9738  -27.2814   19.0261 H   0  0  0  0  0  0
  -23.7684  -30.5756   19.3993 H   0  0  0  0  0  0
  -22.7636  -29.2342   19.8558 H   0  0  0  0  0  0
  -25.1296  -36.1907   25.0817 H   0  0  0  0  0  0
  -20.9978  -28.3267   24.1391 H   0  0  0  0  0  0
  -20.5663  -26.2306   23.3606 H   0  0  0  0  0  0
  -21.6642  -26.7432   22.1198 H   0  0  0  0  0  0
  -19.6907  -25.6290   21.1244 H   0  0  0  0  0  0
  -19.6687  -27.3185   20.6731 H   0  0  0  0  0  0
  -17.4197  -26.6674   21.4021 H   0  0  0  0  0  0
  -18.0331  -26.0069   22.9012 H   0  0  0  0  0  0
  -19.7934  -30.7277   24.2252 H   0  0  0  0  0  0
  -17.5012  -31.6267   24.5157 H   0  0  0  0  0  0
  -15.5351  -30.2979   23.7663 H   0  0  0  0  0  0
  -15.8673  -28.0817   22.7074 H   0  0  0  0  0  0
  -24.5915  -30.7055   25.7768 H   0  0  0  0  0  0
  -24.8922  -32.2872   26.4873 H   0  0  0  0  0  0
  -25.8064  -30.8884   27.0214 H   0  0  0  0  0  0
  -26.2931  -29.6733   24.1231 H   0  0  0  0  0  0
  -27.4047  -29.7266   25.4711 H   0  0  0  0  0  0
  -27.8802  -30.4269   23.9425 H   0  0  0  0  0  0
  -27.2659  -33.3620   26.2058 H   0  0  0  0  0  0
  -28.3874  -32.6874   25.0332 H   0  0  0  0  0  0
  -28.0713  -31.8454   26.5422 H   0  0  0  0  0  0
  -28.2576  -38.0110   24.7531 H   0  0  0  0  0  0
  -28.1098  -36.2644   24.6257 H   0  0  0  0  0  0
  -27.2304  -37.1401   25.8864 H   0  0  0  0  0  0
  -20.9391  -29.8767   21.6867 H   0  0  0  0  0  0
  -26.0161  -38.2839   24.1428 H   0  0  0  0  0  0
  -32.2024  -16.9825   21.3687 H   0  0  0  0  0  0
  -31.2284  -21.1123   20.9245 H   0  0  0  0  0  0
  -27.8093  -19.9570   18.4098 H   0  0  0  0  0  0
  -27.1102  -21.5150   18.7975 H   0  0  0  0  0  0
  -26.7912  -20.1438   19.8472 H   0  0  0  0  0  0
  -27.9099  -23.5612   19.0837 H   0  0  0  0  0  0
  -29.5747  -23.8571   19.4500 H   0  0  0  0  0  0
  -27.8250  -22.2557   21.3978 H   0  0  0  0  0  0
  -29.5418  -22.3707   21.4397 H   0  0  0  0  0  0
  -28.7492  -25.0525   21.6179 H   0  0  0  0  0  0
  -27.1408  -24.8969   21.0352 H   0  0  0  0  0  0
  -28.8371  -15.6694   20.6409 H   0  0  0  0  0  0
  1 25  1  0  0  0
  1 30  2  0  0  0
  1 81  1  0  0  0
  2  3  1  0  0  0
  2 25  1  0  0  0
  2 85  1  0  0  0
  2 86  1  0  0  0
  3  4  1  0  0  0
  3 87  1  0  0  0
  3 88  1  0  0  0
  4  5  1  0  0  0
  4 89  1  0  0  0
  4 90  1  0  0  0
  5  6  1  0  0  0
  5 26  1  0  0  0
  5 91  1  0  0  0
  6 25  1  0  0  0
  6 92  1  0  0  0
  6 93  1  0  0  0
  7  8  2  0  0  0
  7 26  1  0  0  0
  7 29  1  0  0  0
  8  9  1  0  0  0
  8 22  1  0  0  0
  9 10  1  0  0  0
  9 27  2  0  0  0
 10 11  2  0  0  0
 10 15  1  0  0  0
 11 12  1  0  0  0
 11 94  1  0  0  0
 12 13  2  0  0  0
 12 95  1  0  0  0
 13 14  1  0  0  0
 13 31  1  0  0  0
 14 15  2  0  0  0
 14 96  1  0  0  0
 15 97  1  0  0  0
 16 17  2  0  0  0
 16 21  1  0  0  0
 16 31  1  0  0  0
 17 18  1  0  0  0
 17 98  1  0  0  0
 18 19  2  0  0  0
 18 99  1  0  0  0
 19 20  1  0  0  0
 19 24  1  0  0  0
 20 21  2  0  0  0
 20100  1  0  0  0
 21 23  1  0  0  0
 22 28  1  0  0  0
 22 32  2  0  0  0
 26 27  1  0  0  0
 28101  1  0  0  0
 28102  1  0  0  0
 29103  1  0  0  0
 29104  1  0  0  0
 33 34  1  0  0  0
 33 66  1  0  0  0
 33 70  2  0  0  0
 34 36  1  0  0  0
 34 59  1  0  0  0
 34105  1  0  0  0
 35 44  2  0  0  0
 35 45  1  0  0  0
 35 68  1  0  0  0
 36 56  1  0  0  0
 36106  1  0  0  0
 37 39  1  0  0  0
 37 47  1  0  0  0
 37 66  1  0  0  0
 37107  1  0  0  0
 38 43  2  0  0  0
 38 46  1  0  0  0
 38 47  1  0  0  0
 39 64  1  0  0  0
 39 67  2  0  0  0
 40 52  1  0  0  0
 40 53  2  0  0  0
 40 58  1  0  0  0
 41108  1  0  0  0
 41109  1  0  0  0
 41110  1  0  0  0
 41 48  1  0  0  0
 42 43  1  0  0  0
 42 66  1  0  0  0
 42111  1  0  0  0
 42112  1  0  0  0
 43 44  1  0  0  0
 44113  1  0  0  0
 45 46  2  0  0  0
 45114  1  0  0  0
 46115  1  0  0  0
 47116  1  0  0  0
 47117  1  0  0  0
 48 56  1  0  0  0
 48 65  1  0  0  0
 48118  1  0  0  0
 49 50  1  0  0  0
 49 53  1  0  0  0
 49 64  1  0  0  0
 49119  1  0  0  0
 50 51  1  0  0  0
 50120  1  0  0  0
 50121  1  0  0  0
 51 52  1  0  0  0
 51122  1  0  0  0
 51123  1  0  0  0
 52124  1  0  0  0
 52125  1  0  0  0
 53 54  1  0  0  0
 54 55  2  0  0  0
 54126  1  0  0  0
 55 57  1  0  0  0
 55127  1  0  0  0
 56 69  2  0  0  0
 57 58  2  0  0  0
 57128  1  0  0  0
 58129  1  0  0  0
 59 60  1  0  0  0
 59 61  1  0  0  0
 59 62  1  0  0  0
 60130  1  0  0  0
 60131  1  0  0  0
 60132  1  0  0  0
 61133  1  0  0  0
 61134  1  0  0  0
 61135  1  0  0  0
 62136  1  0  0  0
 62137  1  0  0  0
 62138  1  0  0  0
 63 65  1  0  0  0
 63139  1  0  0  0
 63140  1  0  0  0
 63141  1  0  0  0
 64142  1  0  0  0
 65143  1  0  0  0
 68 80  1  0  0  0
 71 73  2  0  0  0
 71 75  1  0  0  0
 71144  1  0  0  0
 72 74  1  0  0  0
 72 75  2  0  0  0
 72145  1  0  0  0
 73 76  1  0  0  0
 73 81  1  0  0  0
 74 76  2  0  0  0
 74 82  1  0  0  0
 75 83  1  0  0  0
 76 84  1  0  0  0
 77 82  1  0  0  0
 77146  1  0  0  0
 77147  1  0  0  0
 77148  1  0  0  0
 78 79  1  0  0  0
 78 80  1  0  0  0
 78149  1  0  0  0
 78150  1  0  0  0
 79 82  1  0  0  0
 79151  1  0  0  0
 79152  1  0  0  0
 80153  1  0  0  0
 80154  1  0  0  0
 81155  1  0  0  0
M  ISO  4   1 100  68 101  80 101  81 100
M  END
> <chiral flag>
0

> <version>
0

> <s_m_source_file>
/data/baiqing/PycharmProjects/Reinvent-master-3.2/result/LINK_invent/BTK/process_docking_weight1_custom_sum_contain_oxygen_bond_distance_aromatic_linkinvent_7_9_3/rearranged_h_0011.sdf

> <i_m_source_file_index>
51

> <r_mmod_Potential_Energy-OPLS-2005>
207.404602050781

> <r_mmod_Stretch_Energy-OPLS-2005>
122.461517333984

> <r_mmod_Bend_Energy-OPLS-2005>
167.150009155273

> <r_mmod_Torsional_Energy-OPLS-2005>
230.331130981445

> <r_mmod_Improper_Torsional_Energy-OPLS-2005>
7.09421873092651

> <r_mmod_Van_der_Waal_Energy-OPLS-2005>
142.693222045898

> <r_mmod_Electrostatic_Energy-OPLS-2005>
-325.1767578125

> <r_mmod_Solvation_Energy-OPLS-2005>
-212.460479736328

> <b_mmod_Minimization_Converged-OPLS-2005>
0

> <r_mmod_RMS_Derivative-OPLS-2005>
1.02672362327576

$$$$
51
                    3D
 Structure written by MMmdl.
147154  0  0  1  0            999 V2000
  -30.5645  -14.9108   20.4259 C   0  0  0  0  0  0
  -30.4364  -12.5623   19.4981 C   0  0  0  0  0  0
  -29.5192  -12.5241   18.2544 C   0  0  0  0  0  0
  -28.0505  -12.3195   18.6702 C   0  0  0  0  0  0
  -27.6315  -13.2473   19.8409 C   0  0  2  0  0  0
  -28.6741  -13.2638   20.9794 C   0  0  0  0  0  0
  -25.2467  -13.8219   20.5711 C   0  0  0  0  0  0
  -24.1781  -13.0441   20.9225 C   0  0  0  0  0  0
  -24.6396  -11.6926   20.8752 C   0  0  0  0  0  0
  -23.9080  -10.4294   21.0406 C   0  0  0  0  0  0
  -24.3628   -9.4208   21.9183 C   0  0  0  0  0  0
  -23.6299   -8.2244   22.0754 C   0  0  0  0  0  0
  -22.4282   -8.0281   21.3543 C   0  0  0  0  0  0
  -21.9920   -9.0256   20.4645 C   0  0  0  0  0  0
  -22.7252  -10.2134   20.3054 C   0  0  0  0  0  0
  -21.6855   -6.0736   22.5278 C   0  0  0  0  0  0
  -21.4015   -6.5639   23.8211 C   0  0  0  0  0  0
  -21.3662   -5.6792   24.9173 C   0  0  0  0  0  0
  -21.6045   -4.3055   24.7224 C   0  0  0  0  0  0
  -21.8820   -3.8146   23.4345 C   0  0  0  0  0  0
  -21.9193   -4.6963   22.3401 C   0  0  0  0  0  0
  -22.7800  -13.5209   21.1881 C   0  0  0  0  0  0
  -22.1661   -4.2149   21.0978 F   0  0  0  0  0  0
  -21.5631   -3.4538   25.7737 F   0  0  0  0  0  0
  -29.9560  -13.6600   20.3840 N   0  0  0  0  0  0
  -26.2893  -12.9450   20.3256 N   0  0  0  0  0  0
  -25.9328  -11.6579   20.5743 N   0  0  0  0  0  0
  -22.0454  -12.8192   22.0436 N   0  0  0  0  0  0
  -25.4132  -15.1947   20.4131 N   0  0  0  0  0  0
  -31.7636  -14.9717   20.1379 O   0  0  0  0  0  0
  -21.6643   -6.8880   21.4241 O   0  0  0  0  0  0
  -22.3480  -14.5513   20.6728 O   0  0  0  0  0  0
  -24.6430  -31.8460   23.1914 C   0  0  0  0  0  0
  -25.9207  -32.4705   23.8296 C   0  0  1  0  0  0
  -27.2085  -27.1412   20.1515 C   0  0  0  0  0  0
  -25.5960  -33.8512   24.2206 N   0  0  0  0  0  0
  -23.4462  -30.4677   21.5369 C   0  0  2  0  0  0
  -24.8964  -28.9017   20.1101 C   0  0  0  0  0  0
  -22.7569  -29.4556   22.4862 C   0  0  0  0  0  0
  -18.0306  -28.1397   22.8475 C   0  0  0  0  0  0
  -24.1493  -36.7258   23.2641 C   0  0  0  0  0  0
  -26.0036  -30.7195   21.3939 C   0  0  0  0  0  0
  -26.0740  -29.3319   20.7359 C   0  0  0  0  0  0
  -27.2331  -28.4667   20.7444 C   0  0  0  0  0  0
  -26.0167  -26.8325   19.4576 C   0  0  0  0  0  0
  -24.8805  -27.6646   19.4543 C   0  0  0  0  0  0
  -23.6735  -29.8028   20.1547 C   0  0  0  0  0  0
  -25.4125  -36.3036   24.0315 C   0  0  1  0  0  0
  -20.5919  -28.3723   23.1234 C   0  0  2  0  0  0
  -20.6793  -26.9427   22.5401 C   0  0  0  0  0  0
  -19.5765  -26.6383   21.5211 C   0  0  0  0  0  0
  -18.1946  -26.7936   22.1623 C   0  0  0  0  0  0
  -19.1563  -28.8878   23.2846 C   0  0  0  0  0  0
  -18.9479  -30.1473   23.8873 C   0  0  0  0  0  0
  -17.6476  -30.6593   24.0559 C   0  0  0  0  0  0
  -25.9075  -34.9411   23.5067 C   0  0  0  0  0  0
  -16.5366  -29.9086   23.6337 C   0  0  0  0  0  0
  -16.7290  -28.6505   23.0357 C   0  0  0  0  0  0
  -26.4529  -31.6569   25.0733 C   0  0  0  0  0  0
  -25.3710  -31.3756   26.1424 C   0  0  0  0  0  0
  -27.0396  -30.2965   24.6315 C   0  0  0  0  0  0
  -27.6058  -32.4334   25.7517 C   0  0  0  0  0  0
  -27.5575  -37.1787   24.8466 C   0  0  0  0  0  0
  -21.4262  -29.3051   22.3609 N   0  0  0  0  0  0
  -26.4289  -37.3749   23.9407 N   0  0  0  0  0  0
  -24.7172  -31.0319   22.0955 N   0  0  0  0  0  0
  -23.4214  -28.8094   23.3003 O   0  0  0  0  0  0
  -28.2285  -26.1207   20.2094 O   0  0  0  0  0  0
  -26.5656  -34.8902   22.4643 O   0  0  0  0  0  0
  -23.5548  -32.1338   23.7131 O   0  0  0  0  0  0
  -28.5785  -21.8026   20.6262 C   0  0  0  0  0  0
  -28.5990  -23.2269   20.4143 C   0  0  0  0  0  0
  -29.5739  -20.5471   20.2924 C   0  0  0  0  0  0
  -27.7959  -24.6804   20.6037 C   0  0  0  0  0  0
  -29.1732  -18.9334   20.5793 C   0  0  0  0  0  0
  -30.1945  -17.6139   20.3650 C   0  0  0  0  0  0
  -29.8051  -16.1001   20.5743 N   0  0  0  0  0  0
  -31.4726  -12.7072   19.1889 H   0  0  0  0  0  0
  -30.4149  -11.6071   20.0250 H   0  0  0  0  0  0
  -29.8313  -11.7284   17.5766 H   0  0  0  0  0  0
  -29.6167  -13.4575   17.6977 H   0  0  0  0  0  0
  -27.9376  -11.2768   18.9690 H   0  0  0  0  0  0
  -27.3896  -12.4643   17.8148 H   0  0  0  0  0  0
  -27.5996  -14.2525   19.4197 H   0  0  0  0  0  0
  -28.7500  -12.2871   21.4594 H   0  0  0  0  0  0
  -28.3806  -13.9699   21.7579 H   0  0  0  0  0  0
  -25.2771   -9.5684   22.4761 H   0  0  0  0  0  0
  -24.0007   -7.4635   22.7474 H   0  0  0  0  0  0
  -21.0852   -8.8775   19.8949 H   0  0  0  0  0  0
  -22.3709  -10.9672   19.6163 H   0  0  0  0  0  0
  -21.2006   -7.6147   23.9714 H   0  0  0  0  0  0
  -21.1485   -6.0522   25.9077 H   0  0  0  0  0  0
  -22.0597   -2.7608   23.2844 H   0  0  0  0  0  0
  -22.4080  -11.9855   22.4819 H   0  0  0  0  0  0
  -21.1067  -13.1203   22.2645 H   0  0  0  0  0  0
  -24.6430  -15.8457   20.5224 H   0  0  0  0  0  0
  -26.2547  -15.6353   20.0645 H   0  0  0  0  0  0
  -26.7271  -32.5313   23.1023 H   0  0  0  0  0  0
  -25.0089  -33.9636   25.0340 H   0  0  0  0  0  0
  -22.7481  -31.2936   21.3851 H   0  0  0  0  0  0
  -23.3758  -35.9587   23.3294 H   0  0  0  0  0  0
  -24.3577  -36.8899   22.2056 H   0  0  0  0  0  0
  -23.7245  -37.6451   23.6684 H   0  0  0  0  0  0
  -26.1611  -31.4736   20.6215 H   0  0  0  0  0  0
  -26.8735  -30.7685   22.0369 H   0  0  0  0  0  0
  -28.1256  -28.7867   21.2635 H   0  0  0  0  0  0
  -25.9313  -25.9065   18.9095 H   0  0  0  0  0  0
  -23.9893  -27.3383   18.9357 H   0  0  0  0  0  0
  -23.8109  -30.5802   19.4023 H   0  0  0  0  0  0
  -22.7884  -29.2462   19.8416 H   0  0  0  0  0  0
  -25.1311  -36.1866   25.0808 H   0  0  0  0  0  0
  -21.0008  -28.3311   24.1357 H   0  0  0  0  0  0
  -20.5691  -26.2336   23.3620 H   0  0  0  0  0  0
  -21.6658  -26.7438   22.1196 H   0  0  0  0  0  0
  -19.6928  -25.6289   21.1255 H   0  0  0  0  0  0
  -19.6701  -27.3182   20.6731 H   0  0  0  0  0  0
  -17.4215  -26.6676   21.4027 H   0  0  0  0  0  0
  -18.0345  -26.0086   22.9028 H   0  0  0  0  0  0
  -19.7955  -30.7295   24.2232 H   0  0  0  0  0  0
  -17.5030  -31.6271   24.5164 H   0  0  0  0  0  0
  -15.5365  -30.2980   23.7679 H   0  0  0  0  0  0
  -15.8690  -28.0816   22.7086 H   0  0  0  0  0  0
  -24.5906  -30.7086   25.7743 H   0  0  0  0  0  0
  -24.8881  -32.2938   26.4779 H   0  0  0  0  0  0
  -25.7993  -30.8980   27.0245 H   0  0  0  0  0  0
  -26.3019  -29.6686   24.1307 H   0  0  0  0  0  0
  -27.3989  -29.7263   25.4891 H   0  0  0  0  0  0
  -27.8935  -30.4197   23.9651 H   0  0  0  0  0  0
  -27.2655  -33.3657   26.2036 H   0  0  0  0  0  0
  -28.3904  -32.6856   25.0371 H   0  0  0  0  0  0
  -28.0689  -31.8499   26.5484 H   0  0  0  0  0  0
  -28.2585  -38.0090   24.7511 H   0  0  0  0  0  0
  -28.1079  -36.2619   24.6298 H   0  0  0  0  0  0
  -27.2291  -37.1439   25.8868 H   0  0  0  0  0  0
  -20.9472  -29.8769   21.6793 H   0  0  0  0  0  0
  -26.0154  -38.2816   24.1411 H   0  0  0  0  0  0
  -27.7358  -21.3270   21.1365 H   0  0  0  0  0  0
  -27.6843  -23.0684   20.9551 H   0  0  0  0  0  0
  -30.4933  -20.7484   20.8430 H   0  0  0  0  0  0
  -29.8515  -20.6437   19.2422 H   0  0  0  0  0  0
  -27.6044  -24.8105   21.6754 H   0  0  0  0  0  0
  -26.8102  -24.5207   20.1626 H   0  0  0  0  0  0
  -28.2795  -18.7318   19.9879 H   0  0  0  0  0  0
  -28.8304  -18.8854   21.6134 H   0  0  0  0  0  0
  -31.0707  -17.7836   20.9921 H   0  0  0  0  0  0
  -30.5745  -17.6745   19.3443 H   0  0  0  0  0  0
  -28.8303  -15.9368   20.7789 H   0  0  0  0  0  0
  1 25  1  0  0  0
  1 30  2  0  0  0
  1 77  1  0  0  0
  2  3  1  0  0  0
  2 25  1  0  0  0
  2 78  1  0  0  0
  2 79  1  0  0  0
  3  4  1  0  0  0
  3 80  1  0  0  0
  3 81  1  0  0  0
  4  5  1  0  0  0
  4 82  1  0  0  0
  4 83  1  0  0  0
  5  6  1  0  0  0
  5 26  1  0  0  0
  5 84  1  0  0  0
  6 25  1  0  0  0
  6 85  1  0  0  0
  6 86  1  0  0  0
  7  8  2  0  0  0
  7 26  1  0  0  0
  7 29  1  0  0  0
  8  9  1  0  0  0
  8 22  1  0  0  0
  9 10  1  0  0  0
  9 27  2  0  0  0
 10 11  2  0  0  0
 10 15  1  0  0  0
 11 12  1  0  0  0
 11 87  1  0  0  0
 12 13  2  0  0  0
 12 88  1  0  0  0
 13 14  1  0  0  0
 13 31  1  0  0  0
 14 15  2  0  0  0
 14 89  1  0  0  0
 15 90  1  0  0  0
 16 17  2  0  0  0
 16 21  1  0  0  0
 16 31  1  0  0  0
 17 18  1  0  0  0
 17 91  1  0  0  0
 18 19  2  0  0  0
 18 92  1  0  0  0
 19 20  1  0  0  0
 19 24  1  0  0  0
 20 21  2  0  0  0
 20 93  1  0  0  0
 21 23  1  0  0  0
 22 28  1  0  0  0
 22 32  2  0  0  0
 26 27  1  0  0  0
 28 94  1  0  0  0
 28 95  1  0  0  0
 29 96  1  0  0  0
 29 97  1  0  0  0
 33 34  1  0  0  0
 33 66  1  0  0  0
 33 70  2  0  0  0
 34 36  1  0  0  0
 34 59  1  0  0  0
 34 98  1  0  0  0
 35 44  2  0  0  0
 35 45  1  0  0  0
 35 68  1  0  0  0
 36 56  1  0  0  0
 36 99  1  0  0  0
 37 39  1  0  0  0
 37 47  1  0  0  0
 37 66  1  0  0  0
 37100  1  0  0  0
 38 43  2  0  0  0
 38 46  1  0  0  0
 38 47  1  0  0  0
 39 64  1  0  0  0
 39 67  2  0  0  0
 40 52  1  0  0  0
 40 53  2  0  0  0
 40 58  1  0  0  0
 41101  1  0  0  0
 41102  1  0  0  0
 41103  1  0  0  0
 41 48  1  0  0  0
 42 43  1  0  0  0
 42 66  1  0  0  0
 42104  1  0  0  0
 42105  1  0  0  0
 43 44  1  0  0  0
 44106  1  0  0  0
 45 46  2  0  0  0
 45107  1  0  0  0
 46108  1  0  0  0
 47109  1  0  0  0
 47110  1  0  0  0
 48 56  1  0  0  0
 48 65  1  0  0  0
 48111  1  0  0  0
 49 50  1  0  0  0
 49 53  1  0  0  0
 49 64  1  0  0  0
 49112  1  0  0  0
 50 51  1  0  0  0
 50113  1  0  0  0
 50114  1  0  0  0
 51 52  1  0  0  0
 51115  1  0  0  0
 51116  1  0  0  0
 52117  1  0  0  0
 52118  1  0  0  0
 53 54  1  0  0  0
 54 55  2  0  0  0
 54119  1  0  0  0
 55 57  1  0  0  0
 55120  1  0  0  0
 56 69  2  0  0  0
 57 58  2  0  0  0
 57121  1  0  0  0
 58122  1  0  0  0
 59 60  1  0  0  0
 59 61  1  0  0  0
 59 62  1  0  0  0
 60123  1  0  0  0
 60124  1  0  0  0
 60125  1  0  0  0
 61126  1  0  0  0
 61127  1  0  0  0
 61128  1  0  0  0
 62129  1  0  0  0
 62130  1  0  0  0
 62131  1  0  0  0
 63 65  1  0  0  0
 63132  1  0  0  0
 63133  1  0  0  0
 63134  1  0  0  0
 64135  1  0  0  0
 65136  1  0  0  0
 68 74  1  0  0  0
 71 72  2  0  0  0
 71 73  1  0  0  0
 71137  1  0  0  0
 72 74  1  0  0  0
 72138  1  0  0  0
 73 75  1  0  0  0
 73139  1  0  0  0
 73140  1  0  0  0
 74141  1  0  0  0
 74142  1  0  0  0
 75 76  1  0  0  0
 75143  1  0  0  0
 75144  1  0  0  0
 76 77  1  0  0  0
 76145  1  0  0  0
 76146  1  0  0  0
 77147  1  0  0  0
M  ISO  4   1 100  68 101  74 101  77 100
M  END
> <chiral flag>
0

> <version>
0

> <s_m_source_file>
/data/baiqing/PycharmProjects/Reinvent-master-3.2/result/LINK_invent/BTK/process_docking_weight1_custom_sum_contain_oxygen_bond_distance_aromatic_linkinvent_7_9_3/rearranged_h_0011.sdf

> <i_m_source_file_index>
52

> <r_mmod_Potential_Energy-OPLS-2005>
715.221374511719

> <r_mmod_Stretch_Energy-OPLS-2005>
259.631164550781

> <r_mmod_Bend_Energy-OPLS-2005>
467.336578369141

> <r_mmod_Torsional_Energy-OPLS-2005>
219.871337890625

> <r_mmod_Improper_Torsional_Energy-OPLS-2005>
4.7609715461731

> <r_mmod_Van_der_Waal_Energy-OPLS-2005>
139.746047973633

> <r_mmod_Electrostatic_Energy-OPLS-2005>
-348.294738769531

> <r_mmod_Solvation_Energy-OPLS-2005>
-209.376510620117

> <b_mmod_Minimization_Converged-OPLS-2005>
0

> <r_mmod_RMS_Derivative-OPLS-2005>
0.319002658128738

$$$$
52
                    3D
 Structure written by MMmdl.
156164  0  0  1  0            999 V2000
  -30.6321  -14.6275   20.4769 C   0  0  0  0  0  0
  -30.4383  -12.3816   19.4457 C   0  0  0  0  0  0
  -29.5048  -12.5005   18.2204 C   0  0  0  0  0  0
  -28.0278  -12.3453   18.6358 C   0  0  0  0  0  0
  -27.6534  -13.2180   19.8632 C   0  0  2  0  0  0
  -28.7025  -13.0719   20.9888 C   0  0  0  0  0  0
  -25.2549  -13.8164   20.5698 C   0  0  0  0  0  0
  -24.1819  -13.0429   20.9185 C   0  0  0  0  0  0
  -24.6397  -11.6904   20.8737 C   0  0  0  0  0  0
  -23.9075  -10.4289   21.0408 C   0  0  0  0  0  0
  -24.3620   -9.4203   21.9189 C   0  0  0  0  0  0
  -23.6288   -8.2239   22.0752 C   0  0  0  0  0  0
  -22.4266   -8.0282   21.3542 C   0  0  0  0  0  0
  -21.9913   -9.0262   20.4647 C   0  0  0  0  0  0
  -22.7249  -10.2138   20.3058 C   0  0  0  0  0  0
  -21.6852   -6.0736   22.5281 C   0  0  0  0  0  0
  -21.4013   -6.5638   23.8217 C   0  0  0  0  0  0
  -21.3660   -5.6788   24.9176 C   0  0  0  0  0  0
  -21.6046   -4.3051   24.7226 C   0  0  0  0  0  0
  -21.8822   -3.8147   23.4348 C   0  0  0  0  0  0
  -21.9191   -4.6962   22.3402 C   0  0  0  0  0  0
  -22.7839  -13.5221   21.1864 C   0  0  0  0  0  0
  -22.1657   -4.2148   21.0980 F   0  0  0  0  0  0
  -21.5631   -3.4536   25.7742 F   0  0  0  0  0  0
  -30.0189  -13.4050   20.4204 N   0  0  0  0  0  0
  -26.2997  -12.9365   20.3350 N   0  0  0  0  0  0
  -25.9332  -11.6511   20.5765 N   0  0  0  0  0  0
  -22.0484  -12.8211   22.0421 N   0  0  0  0  0  0
  -25.4236  -15.1899   20.4188 N   0  0  0  0  0  0
  -31.8035  -14.7782   20.1186 O   0  0  0  0  0  0
  -21.6632   -6.8881   21.4239 O   0  0  0  0  0  0
  -22.3516  -14.5535   20.6735 O   0  0  0  0  0  0
  -24.6243  -31.8603   23.2043 C   0  0  0  0  0  0
  -25.9100  -32.4772   23.8363 C   0  0  1  0  0  0
  -27.2329  -27.3315   20.1116 C   0  0  0  0  0  0
  -25.5926  -33.8570   24.2299 N   0  0  0  0  0  0
  -23.4180  -30.4855   21.5454 C   0  0  2  0  0  0
  -24.8660  -28.9417   20.1127 C   0  0  0  0  0  0
  -22.7468  -29.4630   22.4934 C   0  0  0  0  0  0
  -18.0282  -28.1378   22.8457 C   0  0  0  0  0  0
  -24.1492  -36.7297   23.2635 C   0  0  0  0  0  0
  -25.9577  -30.7957   21.3740 C   0  0  0  0  0  0
  -26.0354  -29.4253   20.7135 C   0  0  0  0  0  0
  -27.2204  -28.6324   20.7026 C   0  0  0  0  0  0
  -26.0339  -26.8987   19.4943 C   0  0  0  0  0  0
  -24.8660  -27.6812   19.4989 C   0  0  0  0  0  0
  -23.6342  -29.8196   20.1613 C   0  0  0  0  0  0
  -25.4103  -36.3090   24.0351 C   0  0  1  0  0  0
  -20.5881  -28.3687   23.1261 C   0  0  2  0  0  0
  -20.6770  -26.9408   22.5399 C   0  0  0  0  0  0
  -19.5750  -26.6374   21.5193 C   0  0  0  0  0  0
  -18.1924  -26.7912   22.1605 C   0  0  0  0  0  0
  -19.1533  -28.8845   23.2849 C   0  0  0  0  0  0
  -18.9471  -30.1436   23.8883 C   0  0  0  0  0  0
  -17.6477  -30.6587   24.0539 C   0  0  0  0  0  0
  -25.9038  -34.9450   23.5125 C   0  0  0  0  0  0
  -16.5363  -29.9083   23.6314 C   0  0  0  0  0  0
  -16.7268  -28.6495   23.0335 C   0  0  0  0  0  0
  -26.4486  -31.6580   25.0728 C   0  0  0  0  0  0
  -25.3700  -31.3741   26.1456 C   0  0  0  0  0  0
  -27.0325  -30.3000   24.6188 C   0  0  0  0  0  0
  -27.6063  -32.4305   25.7488 C   0  0  0  0  0  0
  -27.5588  -37.1791   24.8451 C   0  0  0  0  0  0
  -21.4190  -29.3050   22.3670 N   0  0  0  0  0  0
  -26.4286  -37.3786   23.9422 N   0  0  0  0  0  0
  -24.6854  -31.0617   22.0992 N   0  0  0  0  0  0
  -23.4196  -28.8170   23.3006 O   0  0  0  0  0  0
  -28.3589  -26.4904   20.1594 O   0  0  0  0  0  0
  -26.5595  -34.8924   22.4683 O   0  0  0  0  0  0
  -23.5408  -32.1429   23.7361 O   0  0  0  0  0  0
  -31.1348  -17.8452   20.3848 C   0  0  0  0  0  0
  -28.7565  -19.3191   20.6024 C   0  0  0  0  0  0
  -29.9324  -17.1260   20.6007 C   0  0  0  0  0  0
  -29.9597  -20.0460   20.4198 C   0  0  0  0  0  0
  -31.1566  -19.2783   20.2893 C   0  0  0  0  0  0
  -28.7475  -17.8965   20.6884 C   0  0  0  0  0  0
  -33.4779  -19.2674   19.6650 C   0  0  0  0  0  0
  -29.2788  -23.9922   20.3486 C   0  0  0  0  0  0
  -28.8972  -22.4410   20.2944 C   0  0  0  0  0  0
  -28.1434  -25.0381   19.9716 C   0  0  0  0  0  0
  -29.8094  -15.6798   20.7597 N   0  0  0  0  0  0
  -30.0367  -21.4787   20.3607 N   0  0  0  0  0  0
  -32.3204  -19.9903   20.0729 O   0  0  0  0  0  0
  -27.5697  -17.2482   20.8599 F   0  0  0  0  0  0
  -31.4798  -12.5034   19.1421 H   0  0  0  0  0  0
  -30.3685  -11.3864   19.8884 H   0  0  0  0  0  0
  -29.7616  -11.7453   17.4767 H   0  0  0  0  0  0
  -29.6502  -13.4685   17.7380 H   0  0  0  0  0  0
  -27.8647  -11.2935   18.8719 H   0  0  0  0  0  0
  -27.3689  -12.5725   17.7967 H   0  0  0  0  0  0
  -27.6687  -14.2527   19.5183 H   0  0  0  0  0  0
  -28.7111  -12.0511   21.3731 H   0  0  0  0  0  0
  -28.4564  -13.7077   21.8409 H   0  0  0  0  0  0
  -25.2767   -9.5672   22.4763 H   0  0  0  0  0  0
  -23.9998   -7.4627   22.7472 H   0  0  0  0  0  0
  -21.0842   -8.8802   19.8945 H   0  0  0  0  0  0
  -22.3728  -10.9685   19.6166 H   0  0  0  0  0  0
  -21.2008   -7.6146   23.9726 H   0  0  0  0  0  0
  -21.1475   -6.0514   25.9083 H   0  0  0  0  0  0
  -22.0599   -2.7607   23.2853 H   0  0  0  0  0  0
  -22.4081  -11.9853   22.4786 H   0  0  0  0  0  0
  -21.1114  -13.1254   22.2657 H   0  0  0  0  0  0
  -24.6612  -15.8401   20.5710 H   0  0  0  0  0  0
  -26.2961  -15.6599   20.2086 H   0  0  0  0  0  0
  -26.7153  -32.5468   23.1096 H   0  0  0  0  0  0
  -25.0045  -33.9696   25.0427 H   0  0  0  0  0  0
  -22.7129  -31.3075   21.4004 H   0  0  0  0  0  0
  -23.3763  -35.9617   23.3281 H   0  0  0  0  0  0
  -24.3575  -36.8925   22.2049 H   0  0  0  0  0  0
  -23.7247  -37.6495   23.6660 H   0  0  0  0  0  0
  -26.0840  -31.5630   20.6098 H   0  0  0  0  0  0
  -26.8383  -30.8424   22.0025 H   0  0  0  0  0  0
  -28.1149  -29.0002   21.1854 H   0  0  0  0  0  0
  -25.9631  -25.9361   19.0108 H   0  0  0  0  0  0
  -23.9664  -27.2989   19.0350 H   0  0  0  0  0  0
  -23.7529  -30.5973   19.4068 H   0  0  0  0  0  0
  -22.7560  -29.2502   19.8535 H   0  0  0  0  0  0
  -25.1271  -36.1947   25.0847 H   0  0  0  0  0  0
  -20.9956  -28.3278   24.1387 H   0  0  0  0  0  0
  -20.5657  -26.2307   23.3603 H   0  0  0  0  0  0
  -21.6637  -26.7416   22.1196 H   0  0  0  0  0  0
  -19.6920  -25.6288   21.1220 H   0  0  0  0  0  0
  -19.6702  -27.3173   20.6714 H   0  0  0  0  0  0
  -17.4189  -26.6632   21.4020 H   0  0  0  0  0  0
  -18.0340  -26.0068   22.9017 H   0  0  0  0  0  0
  -19.7953  -30.7215   24.2299 H   0  0  0  0  0  0
  -17.5042  -31.6274   24.5122 H   0  0  0  0  0  0
  -15.5362  -30.2975   23.7680 H   0  0  0  0  0  0
  -15.8655  -28.0818   22.7068 H   0  0  0  0  0  0
  -24.5880  -30.7073   25.7804 H   0  0  0  0  0  0
  -24.8864  -32.2905   26.4849 H   0  0  0  0  0  0
  -25.8000  -30.8952   27.0261 H   0  0  0  0  0  0
  -26.2899  -29.6757   24.1199 H   0  0  0  0  0  0
  -27.4002  -29.7264   25.4711 H   0  0  0  0  0  0
  -27.8789  -30.4289   23.9431 H   0  0  0  0  0  0
  -27.2689  -33.3618   26.2056 H   0  0  0  0  0  0
  -28.3871  -32.6843   25.0303 H   0  0  0  0  0  0
  -28.0729  -31.8420   26.5403 H   0  0  0  0  0  0
  -28.2576  -38.0115   24.7530 H   0  0  0  0  0  0
  -28.1125  -36.2652   24.6241 H   0  0  0  0  0  0
  -27.2295  -37.1373   25.8846 H   0  0  0  0  0  0
  -20.9388  -29.8810   21.6904 H   0  0  0  0  0  0
  -26.0182  -38.2863   24.1445 H   0  0  0  0  0  0
  -32.0492  -17.2811   20.3061 H   0  0  0  0  0  0
  -27.8176  -19.8420   20.6871 H   0  0  0  0  0  0
  -33.8279  -18.5856   20.4409 H   0  0  0  0  0  0
  -34.2919  -19.9617   19.4563 H   0  0  0  0  0  0
  -33.2848  -18.6997   18.7531 H   0  0  0  0  0  0
  -30.1332  -24.1783   19.6959 H   0  0  0  0  0  0
  -29.6247  -24.2177   21.3580 H   0  0  0  0  0  0
  -28.3357  -22.2386   19.3812 H   0  0  0  0  0  0
  -28.2121  -22.2193   21.1152 H   0  0  0  0  0  0
  -27.2542  -24.7528   20.5362 H   0  0  0  0  0  0
  -27.9123  -24.8808   18.9177 H   0  0  0  0  0  0
  -28.8757  -15.3933   21.0098 H   0  0  0  0  0  0
  -30.9696  -21.8498   20.1858 H   0  0  0  0  0  0
  1 25  1  0  0  0
  1 30  2  0  0  0
  1 81  1  0  0  0
  2  3  1  0  0  0
  2 25  1  0  0  0
  2 85  1  0  0  0
  2 86  1  0  0  0
  3  4  1  0  0  0
  3 87  1  0  0  0
  3 88  1  0  0  0
  4  5  1  0  0  0
  4 89  1  0  0  0
  4 90  1  0  0  0
  5  6  1  0  0  0
  5 26  1  0  0  0
  5 91  1  0  0  0
  6 25  1  0  0  0
  6 92  1  0  0  0
  6 93  1  0  0  0
  7  8  2  0  0  0
  7 26  1  0  0  0
  7 29  1  0  0  0
  8  9  1  0  0  0
  8 22  1  0  0  0
  9 10  1  0  0  0
  9 27  2  0  0  0
 10 11  2  0  0  0
 10 15  1  0  0  0
 11 12  1  0  0  0
 11 94  1  0  0  0
 12 13  2  0  0  0
 12 95  1  0  0  0
 13 14  1  0  0  0
 13 31  1  0  0  0
 14 15  2  0  0  0
 14 96  1  0  0  0
 15 97  1  0  0  0
 16 17  2  0  0  0
 16 21  1  0  0  0
 16 31  1  0  0  0
 17 18  1  0  0  0
 17 98  1  0  0  0
 18 19  2  0  0  0
 18 99  1  0  0  0
 19 20  1  0  0  0
 19 24  1  0  0  0
 20 21  2  0  0  0
 20100  1  0  0  0
 21 23  1  0  0  0
 22 28  1  0  0  0
 22 32  2  0  0  0
 26 27  1  0  0  0
 28101  1  0  0  0
 28102  1  0  0  0
 29103  1  0  0  0
 29104  1  0  0  0
 33 34  1  0  0  0
 33 66  1  0  0  0
 33 70  2  0  0  0
 34 36  1  0  0  0
 34 59  1  0  0  0
 34105  1  0  0  0
 35 44  2  0  0  0
 35 45  1  0  0  0
 35 68  1  0  0  0
 36 56  1  0  0  0
 36106  1  0  0  0
 37 39  1  0  0  0
 37 47  1  0  0  0
 37 66  1  0  0  0
 37107  1  0  0  0
 38 43  2  0  0  0
 38 46  1  0  0  0
 38 47  1  0  0  0
 39 64  1  0  0  0
 39 67  2  0  0  0
 40 52  1  0  0  0
 40 53  2  0  0  0
 40 58  1  0  0  0
 41108  1  0  0  0
 41109  1  0  0  0
 41110  1  0  0  0
 41 48  1  0  0  0
 42 43  1  0  0  0
 42 66  1  0  0  0
 42111  1  0  0  0
 42112  1  0  0  0
 43 44  1  0  0  0
 44113  1  0  0  0
 45 46  2  0  0  0
 45114  1  0  0  0
 46115  1  0  0  0
 47116  1  0  0  0
 47117  1  0  0  0
 48 56  1  0  0  0
 48 65  1  0  0  0
 48118  1  0  0  0
 49 50  1  0  0  0
 49 53  1  0  0  0
 49 64  1  0  0  0
 49119  1  0  0  0
 50 51  1  0  0  0
 50120  1  0  0  0
 50121  1  0  0  0
 51 52  1  0  0  0
 51122  1  0  0  0
 51123  1  0  0  0
 52124  1  0  0  0
 52125  1  0  0  0
 53 54  1  0  0  0
 54 55  2  0  0  0
 54126  1  0  0  0
 55 57  1  0  0  0
 55127  1  0  0  0
 56 69  2  0  0  0
 57 58  2  0  0  0
 57128  1  0  0  0
 58129  1  0  0  0
 59 60  1  0  0  0
 59 61  1  0  0  0
 59 62  1  0  0  0
 60130  1  0  0  0
 60131  1  0  0  0
 60132  1  0  0  0
 61133  1  0  0  0
 61134  1  0  0  0
 61135  1  0  0  0
 62136  1  0  0  0
 62137  1  0  0  0
 62138  1  0  0  0
 63 65  1  0  0  0
 63139  1  0  0  0
 63140  1  0  0  0
 63141  1  0  0  0
 64142  1  0  0  0
 65143  1  0  0  0
 68 80  1  0  0  0
 71 73  2  0  0  0
 71 75  1  0  0  0
 71144  1  0  0  0
 72 74  1  0  0  0
 72 76  2  0  0  0
 72145  1  0  0  0
 73 76  1  0  0  0
 73 81  1  0  0  0
 74 75  2  0  0  0
 74 82  1  0  0  0
 75 83  1  0  0  0
 76 84  1  0  0  0
 77 83  1  0  0  0
 77146  1  0  0  0
 77147  1  0  0  0
 77148  1  0  0  0
 78 79  1  0  0  0
 78 80  1  0  0  0
 78149  1  0  0  0
 78150  1  0  0  0
 79 82  1  0  0  0
 79151  1  0  0  0
 79152  1  0  0  0
 80153  1  0  0  0
 80154  1  0  0  0
 81155  1  0  0  0
 82156  1  0  0  0
M  ISO  4   1 100  68 101  80 101  81 100
M  END
> <chiral flag>
0

> <version>
0

> <s_m_source_file>
/data/baiqing/PycharmProjects/Reinvent-master-3.2/result/LINK_invent/BTK/process_docking_weight1_custom_sum_contain_oxygen_bond_distance_aromatic_linkinvent_7_9_3/rearranged_h_0011.sdf

> <i_m_source_file_index>
53

> <r_mmod_Potential_Energy-OPLS-2005>
7.7460298538208

> <r_mmod_Stretch_Energy-OPLS-2005>
74.9015197753906

> <r_mmod_Bend_Energy-OPLS-2005>
151.323715209961

> <r_mmod_Torsional_Energy-OPLS-2005>
202.497924804688

> <r_mmod_Improper_Torsional_Energy-OPLS-2005>
4.93361377716064

> <r_mmod_Van_der_Waal_Energy-OPLS-2005>
154.587615966797

> <r_mmod_Electrostatic_Energy-OPLS-2005>
-415.612457275391

> <r_mmod_Solvation_Energy-OPLS-2005>
-209.609283447266

> <b_mmod_Minimization_Converged-OPLS-2005>
0

> <r_mmod_RMS_Derivative-OPLS-2005>
2.41628646850586

$$$$
53
                    3D
 Structure written by MMmdl.
151159  0  0  1  0            999 V2000
  -30.5124  -15.0506   20.4092 C   0  0  0  0  0  0
  -30.4401  -12.6608   19.5000 C   0  0  0  0  0  0
  -29.5247  -12.5403   18.2597 C   0  0  0  0  0  0
  -28.0639  -12.3039   18.6867 C   0  0  0  0  0  0
  -27.6220  -13.2552   19.8292 C   0  0  2  0  0  0
  -28.6643  -13.3374   20.9632 C   0  0  0  0  0  0
  -25.2439  -13.8221   20.5719 C   0  0  0  0  0  0
  -24.1769  -13.0432   20.9243 C   0  0  0  0  0  0
  -24.6396  -11.6922   20.8759 C   0  0  0  0  0  0
  -23.9083  -10.4289   21.0411 C   0  0  0  0  0  0
  -24.3629   -9.4205   21.9190 C   0  0  0  0  0  0
  -23.6297   -8.2244   22.0760 C   0  0  0  0  0  0
  -22.4280   -8.0284   21.3547 C   0  0  0  0  0  0
  -21.9919   -9.0260   20.4651 C   0  0  0  0  0  0
  -22.7252  -10.2137   20.3062 C   0  0  0  0  0  0
  -21.6852   -6.0737   22.5276 C   0  0  0  0  0  0
  -21.4013   -6.5640   23.8209 C   0  0  0  0  0  0
  -21.3653   -5.6793   24.9171 C   0  0  0  0  0  0
  -21.6046   -4.3056   24.7222 C   0  0  0  0  0  0
  -21.8816   -3.8148   23.4342 C   0  0  0  0  0  0
  -21.9195   -4.6965   22.3399 C   0  0  0  0  0  0
  -22.7790  -13.5208   21.1885 C   0  0  0  0  0  0
  -22.1663   -4.2153   21.0976 F   0  0  0  0  0  0
  -21.5627   -3.4534   25.7733 F   0  0  0  0  0  0
  -29.9212  -13.7803   20.3458 N   0  0  0  0  0  0
  -26.2855  -12.9459   20.3221 N   0  0  0  0  0  0
  -25.9328  -11.6582   20.5729 N   0  0  0  0  0  0
  -22.0435  -12.8201   22.0441 N   0  0  0  0  0  0
  -25.4069  -15.1949   20.4135 N   0  0  0  0  0  0
  -31.7316  -15.0763   20.2011 O   0  0  0  0  0  0
  -21.6640   -6.8883   21.4241 O   0  0  0  0  0  0
  -22.3478  -14.5511   20.6723 O   0  0  0  0  0  0
  -24.6504  -31.8367   23.1839 C   0  0  0  0  0  0
  -25.9244  -32.4653   23.8253 C   0  0  1  0  0  0
  -27.2123  -27.0624   20.1615 C   0  0  0  0  0  0
  -25.5970  -33.8462   24.2164 N   0  0  0  0  0  0
  -23.4584  -30.4558   21.5286 C   0  0  2  0  0  0
  -24.9092  -28.8708   20.1101 C   0  0  0  0  0  0
  -22.7592  -29.4518   22.4802 C   0  0  0  0  0  0
  -18.0316  -28.1388   22.8456 C   0  0  0  0  0  0
  -24.1500  -36.7245   23.2646 C   0  0  0  0  0  0
  -26.0196  -30.6871   21.3947 C   0  0  0  0  0  0
  -26.0898  -29.2917   20.7355 C   0  0  0  0  0  0
  -27.2421  -28.4056   20.7417 C   0  0  0  0  0  0
  -26.0053  -26.7660   19.4897 C   0  0  0  0  0  0
  -24.8837  -27.6240   19.4702 C   0  0  0  0  0  0
  -23.6913  -29.7837   20.1495 C   0  0  0  0  0  0
  -25.4129  -36.3007   24.0314 C   0  0  1  0  0  0
  -20.5928  -28.3740   23.1184 C   0  0  2  0  0  0
  -20.6794  -26.9428   22.5384 C   0  0  0  0  0  0
  -19.5775  -26.6371   21.5187 C   0  0  0  0  0  0
  -18.1957  -26.7924   22.1600 C   0  0  0  0  0  0
  -19.1572  -28.8877   23.2813 C   0  0  0  0  0  0
  -18.9492  -30.1463   23.8858 C   0  0  0  0  0  0
  -17.6490  -30.6586   24.0551 C   0  0  0  0  0  0
  -25.9079  -34.9381   23.5048 C   0  0  0  0  0  0
  -16.5379  -29.9079   23.6333 C   0  0  0  0  0  0
  -16.7300  -28.6492   23.0355 C   0  0  0  0  0  0
  -26.4547  -31.6544   25.0724 C   0  0  0  0  0  0
  -25.3721  -31.3732   26.1410 C   0  0  0  0  0  0
  -27.0433  -30.2933   24.6358 C   0  0  0  0  0  0
  -27.6062  -32.4330   25.7504 C   0  0  0  0  0  0
  -27.5574  -37.1777   24.8463 C   0  0  0  0  0  0
  -21.4275  -29.3061   22.3548 N   0  0  0  0  0  0
  -26.4289  -37.3724   23.9403 N   0  0  0  0  0  0
  -24.7298  -31.0157   22.0908 N   0  0  0  0  0  0
  -23.4193  -28.8053   23.2980 O   0  0  0  0  0  0
  -28.2360  -26.0228   20.2250 O   0  0  0  0  0  0
  -26.5672  -34.8893   22.4630 O   0  0  0  0  0  0
  -23.5604  -32.1272   23.7013 O   0  0  0  0  0  0
  -31.6271  -19.4119   21.5895 C   0  0  0  0  0  0
  -31.2755  -18.0988   21.2196 C   0  0  0  0  0  0
  -29.2197  -19.0365   20.3499 C   0  0  0  0  0  0
  -30.8088  -20.5510   21.3820 C   0  0  0  0  0  0
  -30.0392  -17.7917   20.6251 C   0  0  0  0  0  0
  -29.5755  -20.4780   20.6598 C   0  0  0  0  0  0
  -29.0028  -23.2120   20.2552 C   0  0  0  0  0  0
  -31.3066  -21.8164   22.0646 C   0  0  0  0  0  0
  -27.8817  -24.4694   20.1957 C   0  0  0  0  0  0
  -28.7373  -21.7896   20.4063 N   0  0  0  0  0  0
  -29.7299  -16.2691   20.4398 N   0  0  0  0  0  0
  -30.1644  -23.5787   20.0717 O   0  0  0  0  0  0
  -31.4691  -12.8349   19.1823 H   0  0  0  0  0  0
  -30.4573  -11.7258   20.0622 H   0  0  0  0  0  0
  -29.8638  -11.7292   17.6138 H   0  0  0  0  0  0
  -29.5898  -13.4531   17.6655 H   0  0  0  0  0  0
  -27.9877  -11.2696   19.0244 H   0  0  0  0  0  0
  -27.3949  -12.3948   17.8302 H   0  0  0  0  0  0
  -27.5671  -14.2439   19.3735 H   0  0  0  0  0  0
  -28.7815  -12.3773   21.4679 H   0  0  0  0  0  0
  -28.3470  -14.0523   21.7240 H   0  0  0  0  0  0
  -25.2767   -9.5681   22.4771 H   0  0  0  0  0  0
  -23.9995   -7.4640   22.7485 H   0  0  0  0  0  0
  -21.0845   -8.8787   19.8962 H   0  0  0  0  0  0
  -22.3707  -10.9682   19.6176 H   0  0  0  0  0  0
  -21.2004   -7.6146   23.9715 H   0  0  0  0  0  0
  -21.1475   -6.0520   25.9075 H   0  0  0  0  0  0
  -22.0600   -2.7609   23.2839 H   0  0  0  0  0  0
  -22.4052  -11.9867   22.4836 H   0  0  0  0  0  0
  -21.1052  -13.1230   22.2637 H   0  0  0  0  0  0
  -24.6327  -15.8405   20.5270 H   0  0  0  0  0  0
  -26.2396  -15.6388   20.0497 H   0  0  0  0  0  0
  -26.7306  -32.5234   23.0965 H   0  0  0  0  0  0
  -25.0092  -33.9564   25.0296 H   0  0  0  0  0  0
  -22.7674  -31.2857   21.3682 H   0  0  0  0  0  0
  -23.3767  -35.9571   23.3280 H   0  0  0  0  0  0
  -24.3589  -36.8912   22.2067 H   0  0  0  0  0  0
  -23.7254  -37.6428   23.6711 H   0  0  0  0  0  0
  -26.1848  -31.4389   20.6224 H   0  0  0  0  0  0
  -26.8865  -30.7387   22.0418 H   0  0  0  0  0  0
  -28.1390  -28.7218   21.2562 H   0  0  0  0  0  0
  -25.8872  -25.8210   18.9837 H   0  0  0  0  0  0
  -23.9855  -27.2978   18.9640 H   0  0  0  0  0  0
  -23.8394  -30.5586   19.3965 H   0  0  0  0  0  0
  -22.8046  -29.2326   19.8317 H   0  0  0  0  0  0
  -25.1316  -36.1830   25.0808 H   0  0  0  0  0  0
  -21.0022  -28.3358   24.1304 H   0  0  0  0  0  0
  -20.5666  -26.2359   23.3618 H   0  0  0  0  0  0
  -21.6663  -26.7413   22.1197 H   0  0  0  0  0  0
  -19.6949  -25.6269   21.1249 H   0  0  0  0  0  0
  -19.6725  -27.3150   20.6691 H   0  0  0  0  0  0
  -17.4219  -26.6645   21.4016 H   0  0  0  0  0  0
  -18.0379  -26.0076   22.9010 H   0  0  0  0  0  0
  -19.7979  -30.7263   24.2225 H   0  0  0  0  0  0
  -17.5063  -31.6267   24.5154 H   0  0  0  0  0  0
  -15.5382  -30.2977   23.7685 H   0  0  0  0  0  0
  -15.8694  -28.0803   22.7104 H   0  0  0  0  0  0
  -24.5927  -30.7049   25.7720 H   0  0  0  0  0  0
  -24.8878  -32.2904   26.4773 H   0  0  0  0  0  0
  -25.8004  -30.8949   27.0229 H   0  0  0  0  0  0
  -26.3067  -29.6621   24.1371 H   0  0  0  0  0  0
  -27.4021  -29.7272   25.4962 H   0  0  0  0  0  0
  -27.8986  -30.4144   23.9709 H   0  0  0  0  0  0
  -27.2661  -33.3678   26.1971 H   0  0  0  0  0  0
  -28.3926  -32.6811   25.0363 H   0  0  0  0  0  0
  -28.0672  -31.8529   26.5509 H   0  0  0  0  0  0
  -28.2564  -38.0099   24.7512 H   0  0  0  0  0  0
  -28.1103  -36.2620   24.6289 H   0  0  0  0  0  0
  -27.2289  -37.1411   25.8868 H   0  0  0  0  0  0
  -20.9495  -29.8794   21.6734 H   0  0  0  0  0  0
  -26.0152  -38.2791   24.1417 H   0  0  0  0  0  0
  -32.5675  -19.5366   22.1078 H   0  0  0  0  0  0
  -31.9683  -17.3084   21.4677 H   0  0  0  0  0  0
  -28.2578  -18.8782   19.8837 H   0  0  0  0  0  0
  -31.9223  -21.5754   22.9319 H   0  0  0  0  0  0
  -30.4871  -22.4240   22.4467 H   0  0  0  0  0  0
  -31.9250  -22.4073   21.3899 H   0  0  0  0  0  0
  -27.1785  -24.2905   21.0098 H   0  0  0  0  0  0
  -27.3251  -24.2762   19.2798 H   0  0  0  0  0  0
  -27.7447  -21.6071   20.3357 H   0  0  0  0  0  0
  -28.7433  -16.0709   20.3703 H   0  0  0  0  0  0
  1 25  1  0  0  0
  1 30  2  0  0  0
  1 81  1  0  0  0
  2  3  1  0  0  0
  2 25  1  0  0  0
  2 83  1  0  0  0
  2 84  1  0  0  0
  3  4  1  0  0  0
  3 85  1  0  0  0
  3 86  1  0  0  0
  4  5  1  0  0  0
  4 87  1  0  0  0
  4 88  1  0  0  0
  5  6  1  0  0  0
  5 26  1  0  0  0
  5 89  1  0  0  0
  6 25  1  0  0  0
  6 90  1  0  0  0
  6 91  1  0  0  0
  7  8  2  0  0  0
  7 26  1  0  0  0
  7 29  1  0  0  0
  8  9  1  0  0  0
  8 22  1  0  0  0
  9 10  1  0  0  0
  9 27  2  0  0  0
 10 11  2  0  0  0
 10 15  1  0  0  0
 11 12  1  0  0  0
 11 92  1  0  0  0
 12 13  2  0  0  0
 12 93  1  0  0  0
 13 14  1  0  0  0
 13 31  1  0  0  0
 14 15  2  0  0  0
 14 94  1  0  0  0
 15 95  1  0  0  0
 16 17  2  0  0  0
 16 21  1  0  0  0
 16 31  1  0  0  0
 17 18  1  0  0  0
 17 96  1  0  0  0
 18 19  2  0  0  0
 18 97  1  0  0  0
 19 20  1  0  0  0
 19 24  1  0  0  0
 20 21  2  0  0  0
 20 98  1  0  0  0
 21 23  1  0  0  0
 22 28  1  0  0  0
 22 32  2  0  0  0
 26 27  1  0  0  0
 28 99  1  0  0  0
 28100  1  0  0  0
 29101  1  0  0  0
 29102  1  0  0  0
 33 34  1  0  0  0
 33 66  1  0  0  0
 33 70  2  0  0  0
 34 36  1  0  0  0
 34 59  1  0  0  0
 34103  1  0  0  0
 35 44  2  0  0  0
 35 45  1  0  0  0
 35 68  1  0  0  0
 36 56  1  0  0  0
 36104  1  0  0  0
 37 39  1  0  0  0
 37 47  1  0  0  0
 37 66  1  0  0  0
 37105  1  0  0  0
 38 43  2  0  0  0
 38 46  1  0  0  0
 38 47  1  0  0  0
 39 64  1  0  0  0
 39 67  2  0  0  0
 40 52  1  0  0  0
 40 53  2  0  0  0
 40 58  1  0  0  0
 41106  1  0  0  0
 41107  1  0  0  0
 41108  1  0  0  0
 41 48  1  0  0  0
 42 43  1  0  0  0
 42 66  1  0  0  0
 42109  1  0  0  0
 42110  1  0  0  0
 43 44  1  0  0  0
 44111  1  0  0  0
 45 46  2  0  0  0
 45112  1  0  0  0
 46113  1  0  0  0
 47114  1  0  0  0
 47115  1  0  0  0
 48 56  1  0  0  0
 48 65  1  0  0  0
 48116  1  0  0  0
 49 50  1  0  0  0
 49 53  1  0  0  0
 49 64  1  0  0  0
 49117  1  0  0  0
 50 51  1  0  0  0
 50118  1  0  0  0
 50119  1  0  0  0
 51 52  1  0  0  0
 51120  1  0  0  0
 51121  1  0  0  0
 52122  1  0  0  0
 52123  1  0  0  0
 53 54  1  0  0  0
 54 55  2  0  0  0
 54124  1  0  0  0
 55 57  1  0  0  0
 55125  1  0  0  0
 56 69  2  0  0  0
 57 58  2  0  0  0
 57126  1  0  0  0
 58127  1  0  0  0
 59 60  1  0  0  0
 59 61  1  0  0  0
 59 62  1  0  0  0
 60128  1  0  0  0
 60129  1  0  0  0
 60130  1  0  0  0
 61131  1  0  0  0
 61132  1  0  0  0
 61133  1  0  0  0
 62134  1  0  0  0
 62135  1  0  0  0
 62136  1  0  0  0
 63 65  1  0  0  0
 63137  1  0  0  0
 63138  1  0  0  0
 63139  1  0  0  0
 64140  1  0  0  0
 65141  1  0  0  0
 68 79  1  0  0  0
 71 72  2  0  0  0
 71 74  1  0  0  0
 71142  1  0  0  0
 72 75  1  0  0  0
 72143  1  0  0  0
 73 75  2  0  0  0
 73 76  1  0  0  0
 73144  1  0  0  0
 74 76  2  0  0  0
 74 78  1  0  0  0
 75 81  1  0  0  0
 76 80  1  0  0  0
 77 79  1  0  0  0
 77 80  1  0  0  0
 77 82  2  0  0  0
 78145  1  0  0  0
 78146  1  0  0  0
 78147  1  0  0  0
 79148  1  0  0  0
 79149  1  0  0  0
 80150  1  0  0  0
 81151  1  0  0  0
M  ISO  4   1 100  68 101  79 101  81 100
M  END
> <chiral flag>
0

> <version>
0

> <s_m_source_file>
/data/baiqing/PycharmProjects/Reinvent-master-3.2/result/LINK_invent/BTK/process_docking_weight1_custom_sum_contain_oxygen_bond_distance_aromatic_linkinvent_7_9_3/rearranged_h_0011.sdf

> <i_m_source_file_index>
54

> <r_mmod_Potential_Energy-OPLS-2005>
672.253173828125

> <r_mmod_Stretch_Energy-OPLS-2005>
351.696807861328

> <r_mmod_Bend_Energy-OPLS-2005>
278.612426757812

> <r_mmod_Torsional_Energy-OPLS-2005>
238.690216064453

> <r_mmod_Improper_Torsional_Energy-OPLS-2005>
7.22449827194214

> <r_mmod_Van_der_Waal_Energy-OPLS-2005>
139.931900024414

> <r_mmod_Electrostatic_Energy-OPLS-2005>
-367.038391113281

> <r_mmod_Solvation_Energy-OPLS-2005>
-247.221771240234

> <b_mmod_Minimization_Converged-OPLS-2005>
0

> <r_mmod_RMS_Derivative-OPLS-2005>
1.25241470336914

$$$$
54
                    3D
 Structure written by MMmdl.
151159  0  0  1  0            999 V2000
  -30.6242  -14.6242   20.5043 C   0  0  0  0  0  0
  -30.4414  -12.3827   19.4496 C   0  0  0  0  0  0
  -29.5085  -12.5046   18.2235 C   0  0  0  0  0  0
  -28.0316  -12.3430   18.6369 C   0  0  0  0  0  0
  -27.6557  -13.2132   19.8659 C   0  0  2  0  0  0
  -28.7005  -13.0548   20.9944 C   0  0  0  0  0  0
  -25.2557  -13.8153   20.5672 C   0  0  0  0  0  0
  -24.1818  -13.0419   20.9156 C   0  0  0  0  0  0
  -24.6392  -11.6893   20.8720 C   0  0  0  0  0  0
  -23.9060  -10.4281   21.0400 C   0  0  0  0  0  0
  -24.3610   -9.4202   21.9185 C   0  0  0  0  0  0
  -23.6289   -8.2238   22.0752 C   0  0  0  0  0  0
  -22.4271   -8.0275   21.3543 C   0  0  0  0  0  0
  -21.9902   -9.0248   20.4650 C   0  0  0  0  0  0
  -22.7228  -10.2129   20.3057 C   0  0  0  0  0  0
  -21.6849   -6.0735   22.5285 C   0  0  0  0  0  0
  -21.4010   -6.5636   23.8218 C   0  0  0  0  0  0
  -21.3659   -5.6788   24.9178 C   0  0  0  0  0  0
  -21.6044   -4.3052   24.7226 C   0  0  0  0  0  0
  -21.8819   -3.8145   23.4347 C   0  0  0  0  0  0
  -21.9191   -4.6964   22.3406 C   0  0  0  0  0  0
  -22.7845  -13.5223   21.1836 C   0  0  0  0  0  0
  -22.1663   -4.2154   21.0984 F   0  0  0  0  0  0
  -21.5629   -3.4533   25.7735 F   0  0  0  0  0  0
  -30.0191  -13.3972   20.4346 N   0  0  0  0  0  0
  -26.2998  -12.9342   20.3337 N   0  0  0  0  0  0
  -25.9325  -11.6496   20.5753 N   0  0  0  0  0  0
  -22.0489  -12.8228   22.0407 N   0  0  0  0  0  0
  -25.4236  -15.1880   20.4147 N   0  0  0  0  0  0
  -31.7818  -14.7950   20.1108 O   0  0  0  0  0  0
  -21.6634   -6.8875   21.4245 O   0  0  0  0  0  0
  -22.3527  -14.5531   20.6691 O   0  0  0  0  0  0
  -24.6258  -31.8616   23.2045 C   0  0  0  0  0  0
  -25.9110  -32.4787   23.8372 C   0  0  1  0  0  0
  -27.2156  -27.3263   20.1061 C   0  0  0  0  0  0
  -25.5927  -33.8585   24.2301 N   0  0  0  0  0  0
  -23.4179  -30.4892   21.5482 C   0  0  2  0  0  0
  -24.8613  -28.9495   20.1095 C   0  0  0  0  0  0
  -22.7471  -29.4639   22.4937 C   0  0  0  0  0  0
  -18.0290  -28.1387   22.8492 C   0  0  0  0  0  0
  -24.1490  -36.7295   23.2636 C   0  0  0  0  0  0
  -25.9603  -30.7947   21.3749 C   0  0  0  0  0  0
  -26.0319  -29.4239   20.7148 C   0  0  0  0  0  0
  -27.2131  -28.6236   20.7041 C   0  0  0  0  0  0
  -26.0199  -26.9088   19.4741 C   0  0  0  0  0  0
  -24.8570  -27.6975   19.4807 C   0  0  0  0  0  0
  -23.6308  -29.8309   20.1608 C   0  0  0  0  0  0
  -25.4109  -36.3088   24.0338 C   0  0  1  0  0  0
  -20.5890  -28.3686   23.1290 C   0  0  2  0  0  0
  -20.6778  -26.9412   22.5410 C   0  0  0  0  0  0
  -19.5747  -26.6393   21.5216 C   0  0  0  0  0  0
  -18.1933  -26.7927   22.1636 C   0  0  0  0  0  0
  -19.1540  -28.8854   23.2891 C   0  0  0  0  0  0
  -18.9459  -30.1457   23.8906 C   0  0  0  0  0  0
  -17.6458  -30.6590   24.0566 C   0  0  0  0  0  0
  -25.9049  -34.9453   23.5120 C   0  0  0  0  0  0
  -16.5351  -29.9091   23.6329 C   0  0  0  0  0  0
  -16.7277  -28.6508   23.0355 C   0  0  0  0  0  0
  -26.4489  -31.6583   25.0731 C   0  0  0  0  0  0
  -25.3726  -31.3736   26.1467 C   0  0  0  0  0  0
  -27.0308  -30.3002   24.6171 C   0  0  0  0  0  0
  -27.6078  -32.4292   25.7483 C   0  0  0  0  0  0
  -27.5583  -37.1799   24.8466 C   0  0  0  0  0  0
  -21.4185  -29.3044   22.3683 N   0  0  0  0  0  0
  -26.4288  -37.3782   23.9418 N   0  0  0  0  0  0
  -24.6871  -31.0641   22.0995 N   0  0  0  0  0  0
  -23.4199  -28.8165   23.3002 O   0  0  0  0  0  0
  -28.3291  -26.4718   20.1556 O   0  0  0  0  0  0
  -26.5612  -34.8914   22.4684 O   0  0  0  0  0  0
  -23.5422  -32.1412   23.7376 O   0  0  0  0  0  0
  -30.9508  -19.2796   20.2034 C   0  0  0  0  0  0
  -31.0074  -17.8569   20.3112 C   0  0  0  0  0  0
  -28.6365  -19.2631   20.8627 C   0  0  0  0  0  0
  -29.7693  -20.0258   20.4730 C   0  0  0  0  0  0
  -29.8732  -17.1028   20.7108 C   0  0  0  0  0  0
  -28.6933  -17.8441   20.9799 C   0  0  0  0  0  0
  -28.8231  -22.4332   20.2980 C   0  0  0  0  0  0
  -29.2033  -23.9663   20.3720 C   0  0  0  0  0  0
  -28.0817  -25.0208   19.9848 C   0  0  0  0  0  0
  -29.8107  -21.4899   20.4054 N   0  0  0  0  0  0
  -29.8119  -15.6549   20.8827 N   0  0  0  0  0  0
  -27.6429  -22.1184   20.1318 O   0  0  0  0  0  0
  -27.5831  -17.1702   21.3664 F   0  0  0  0  0  0
  -31.4823  -12.5091   19.1470 H   0  0  0  0  0  0
  -30.3766  -11.3843   19.8850 H   0  0  0  0  0  0
  -29.7710  -11.7553   17.4755 H   0  0  0  0  0  0
  -29.6516  -13.4754   17.7460 H   0  0  0  0  0  0
  -27.8699  -11.2895   18.8698 H   0  0  0  0  0  0
  -27.3754  -12.5707   17.7956 H   0  0  0  0  0  0
  -27.6764  -14.2502   19.5294 H   0  0  0  0  0  0
  -28.7076  -12.0292   21.3666 H   0  0  0  0  0  0
  -28.4459  -13.6770   21.8535 H   0  0  0  0  0  0
  -25.2759   -9.5681   22.4754 H   0  0  0  0  0  0
  -24.0004   -7.4628   22.7466 H   0  0  0  0  0  0
  -21.0835   -8.8765   19.8958 H   0  0  0  0  0  0
  -22.3687  -10.9665   19.6163 H   0  0  0  0  0  0
  -21.1999   -7.6145   23.9721 H   0  0  0  0  0  0
  -21.1483   -6.0519   25.9082 H   0  0  0  0  0  0
  -22.0598   -2.7608   23.2842 H   0  0  0  0  0  0
  -22.4097  -11.9892   22.4808 H   0  0  0  0  0  0
  -21.1116  -13.1277   22.2623 H   0  0  0  0  0  0
  -24.6617  -15.8381   20.5686 H   0  0  0  0  0  0
  -26.3009  -15.6534   20.2175 H   0  0  0  0  0  0
  -26.7175  -32.5454   23.1119 H   0  0  0  0  0  0
  -25.0062  -33.9728   25.0435 H   0  0  0  0  0  0
  -22.7128  -31.3115   21.4102 H   0  0  0  0  0  0
  -23.3756  -35.9622   23.3283 H   0  0  0  0  0  0
  -24.3592  -36.8923   22.2054 H   0  0  0  0  0  0
  -23.7229  -37.6492   23.6657 H   0  0  0  0  0  0
  -26.0934  -31.5601   20.6086 H   0  0  0  0  0  0
  -26.8407  -30.8409   22.0041 H   0  0  0  0  0  0
  -28.1112  -28.9812   21.1875 H   0  0  0  0  0  0
  -25.9469  -25.9564   18.9714 H   0  0  0  0  0  0
  -23.9603  -27.3326   18.9986 H   0  0  0  0  0  0
  -23.7504  -30.6114   19.4084 H   0  0  0  0  0  0
  -22.7487  -29.2650   19.8566 H   0  0  0  0  0  0
  -25.1281  -36.1946   25.0830 H   0  0  0  0  0  0
  -20.9998  -28.3255   24.1406 H   0  0  0  0  0  0
  -20.5695  -26.2287   23.3604 H   0  0  0  0  0  0
  -21.6643  -26.7452   22.1193 H   0  0  0  0  0  0
  -19.6905  -25.6308   21.1244 H   0  0  0  0  0  0
  -19.6682  -27.3207   20.6747 H   0  0  0  0  0  0
  -17.4198  -26.6678   21.4043 H   0  0  0  0  0  0
  -18.0335  -26.0073   22.9038 H   0  0  0  0  0  0
  -19.7932  -30.7273   24.2283 H   0  0  0  0  0  0
  -17.5012  -31.6271   24.5164 H   0  0  0  0  0  0
  -15.5352  -30.2997   23.7643 H   0  0  0  0  0  0
  -15.8678  -28.0831   22.7065 H   0  0  0  0  0  0
  -24.5858  -30.7139   25.7788 H   0  0  0  0  0  0
  -24.8965  -32.2911   26.4934 H   0  0  0  0  0  0
  -25.8039  -30.8861   27.0217 H   0  0  0  0  0  0
  -26.2866  -29.6765   24.1203 H   0  0  0  0  0  0
  -27.4014  -29.7248   25.4663 H   0  0  0  0  0  0
  -27.8742  -30.4284   23.9381 H   0  0  0  0  0  0
  -27.2739  -33.3614   26.2046 H   0  0  0  0  0  0
  -28.3891  -32.6802   25.0297 H   0  0  0  0  0  0
  -28.0734  -31.8404   26.5396 H   0  0  0  0  0  0
  -28.2598  -38.0099   24.7522 H   0  0  0  0  0  0
  -28.1081  -36.2632   24.6278 H   0  0  0  0  0  0
  -27.2305  -37.1431   25.8869 H   0  0  0  0  0  0
  -20.9354  -29.8774   21.6905 H   0  0  0  0  0  0
  -26.0173  -38.2859   24.1417 H   0  0  0  0  0  0
  -31.8498  -19.8028   19.9079 H   0  0  0  0  0  0
  -31.9406  -17.3593   20.0917 H   0  0  0  0  0  0
  -27.7071  -19.7570   21.1029 H   0  0  0  0  0  0
  -30.0784  -24.1343   19.7452 H   0  0  0  0  0  0
  -29.5213  -24.1642   21.3957 H   0  0  0  0  0  0
  -27.1924  -24.7612   20.5624 H   0  0  0  0  0  0
  -27.8302  -24.8451   18.9378 H   0  0  0  0  0  0
  -30.7409  -21.8850   20.4370 H   0  0  0  0  0  0
  -28.9117  -15.3405   21.2131 H   0  0  0  0  0  0
  1 25  1  0  0  0
  1 30  2  0  0  0
  1 81  1  0  0  0
  2  3  1  0  0  0
  2 25  1  0  0  0
  2 84  1  0  0  0
  2 85  1  0  0  0
  3  4  1  0  0  0
  3 86  1  0  0  0
  3 87  1  0  0  0
  4  5  1  0  0  0
  4 88  1  0  0  0
  4 89  1  0  0  0
  5  6  1  0  0  0
  5 26  1  0  0  0
  5 90  1  0  0  0
  6 25  1  0  0  0
  6 91  1  0  0  0
  6 92  1  0  0  0
  7  8  2  0  0  0
  7 26  1  0  0  0
  7 29  1  0  0  0
  8  9  1  0  0  0
  8 22  1  0  0  0
  9 10  1  0  0  0
  9 27  2  0  0  0
 10 11  2  0  0  0
 10 15  1  0  0  0
 11 12  1  0  0  0
 11 93  1  0  0  0
 12 13  2  0  0  0
 12 94  1  0  0  0
 13 14  1  0  0  0
 13 31  1  0  0  0
 14 15  2  0  0  0
 14 95  1  0  0  0
 15 96  1  0  0  0
 16 17  2  0  0  0
 16 21  1  0  0  0
 16 31  1  0  0  0
 17 18  1  0  0  0
 17 97  1  0  0  0
 18 19  2  0  0  0
 18 98  1  0  0  0
 19 20  1  0  0  0
 19 24  1  0  0  0
 20 21  2  0  0  0
 20 99  1  0  0  0
 21 23  1  0  0  0
 22 28  1  0  0  0
 22 32  2  0  0  0
 26 27  1  0  0  0
 28100  1  0  0  0
 28101  1  0  0  0
 29102  1  0  0  0
 29103  1  0  0  0
 33 34  1  0  0  0
 33 66  1  0  0  0
 33 70  2  0  0  0
 34 36  1  0  0  0
 34 59  1  0  0  0
 34104  1  0  0  0
 35 44  2  0  0  0
 35 45  1  0  0  0
 35 68  1  0  0  0
 36 56  1  0  0  0
 36105  1  0  0  0
 37 39  1  0  0  0
 37 47  1  0  0  0
 37 66  1  0  0  0
 37106  1  0  0  0
 38 43  2  0  0  0
 38 46  1  0  0  0
 38 47  1  0  0  0
 39 64  1  0  0  0
 39 67  2  0  0  0
 40 52  1  0  0  0
 40 53  2  0  0  0
 40 58  1  0  0  0
 41107  1  0  0  0
 41108  1  0  0  0
 41109  1  0  0  0
 41 48  1  0  0  0
 42 43  1  0  0  0
 42 66  1  0  0  0
 42110  1  0  0  0
 42111  1  0  0  0
 43 44  1  0  0  0
 44112  1  0  0  0
 45 46  2  0  0  0
 45113  1  0  0  0
 46114  1  0  0  0
 47115  1  0  0  0
 47116  1  0  0  0
 48 56  1  0  0  0
 48 65  1  0  0  0
 48117  1  0  0  0
 49 50  1  0  0  0
 49 53  1  0  0  0
 49 64  1  0  0  0
 49118  1  0  0  0
 50 51  1  0  0  0
 50119  1  0  0  0
 50120  1  0  0  0
 51 52  1  0  0  0
 51121  1  0  0  0
 51122  1  0  0  0
 52123  1  0  0  0
 52124  1  0  0  0
 53 54  1  0  0  0
 54 55  2  0  0  0
 54125  1  0  0  0
 55 57  1  0  0  0
 55126  1  0  0  0
 56 69  2  0  0  0
 57 58  2  0  0  0
 57127  1  0  0  0
 58128  1  0  0  0
 59 60  1  0  0  0
 59 61  1  0  0  0
 59 62  1  0  0  0
 60129  1  0  0  0
 60130  1  0  0  0
 60131  1  0  0  0
 61132  1  0  0  0
 61133  1  0  0  0
 61134  1  0  0  0
 62135  1  0  0  0
 62136  1  0  0  0
 62137  1  0  0  0
 63 65  1  0  0  0
 63138  1  0  0  0
 63139  1  0  0  0
 63140  1  0  0  0
 64141  1  0  0  0
 65142  1  0  0  0
 68 79  1  0  0  0
 71 72  2  0  0  0
 71 74  1  0  0  0
 71143  1  0  0  0
 72 75  1  0  0  0
 72144  1  0  0  0
 73 74  2  0  0  0
 73 76  1  0  0  0
 73145  1  0  0  0
 74 80  1  0  0  0
 75 76  2  0  0  0
 75 81  1  0  0  0
 76 83  1  0  0  0
 77 78  1  0  0  0
 77 80  1  0  0  0
 77 82  2  0  0  0
 78 79  1  0  0  0
 78146  1  0  0  0
 78147  1  0  0  0
 79148  1  0  0  0
 79149  1  0  0  0
 80150  1  0  0  0
 81151  1  0  0  0
M  ISO  4   1 100  68 101  79 101  81 100
M  END
> <chiral flag>
0

> <version>
0

> <s_m_source_file>
/data/baiqing/PycharmProjects/Reinvent-master-3.2/result/LINK_invent/BTK/process_docking_weight1_custom_sum_contain_oxygen_bond_distance_aromatic_linkinvent_7_9_3/rearranged_h_0011.sdf

> <i_m_source_file_index>
55

> <r_mmod_Potential_Energy-OPLS-2005>
-42.3102340698242

> <r_mmod_Stretch_Energy-OPLS-2005>
73.474479675293

> <r_mmod_Bend_Energy-OPLS-2005>
137.113388061523

> <r_mmod_Torsional_Energy-OPLS-2005>
218.337249755859

> <r_mmod_Improper_Torsional_Energy-OPLS-2005>
4.02269601821899

> <r_mmod_Van_der_Waal_Energy-OPLS-2005>
148.6728515625

> <r_mmod_Electrostatic_Energy-OPLS-2005>
-448.560668945312

> <r_mmod_Solvation_Energy-OPLS-2005>
-220.761657714844

> <b_mmod_Minimization_Converged-OPLS-2005>
0

> <r_mmod_RMS_Derivative-OPLS-2005>
1.14069616794586

$$$$
55
                    3D
 Structure written by MMmdl.
154162  0  0  1  0            999 V2000
  -30.5567  -14.7098   20.4184 C   0  0  0  0  0  0
  -30.4428  -12.4253   19.4234 C   0  0  0  0  0  0
  -29.5007  -12.4897   18.2011 C   0  0  0  0  0  0
  -28.0277  -12.3242   18.6350 C   0  0  0  0  0  0
  -27.6433  -13.2101   19.8508 C   0  0  2  0  0  0
  -28.6995  -13.1125   20.9702 C   0  0  0  0  0  0
  -25.2588  -13.8130   20.5721 C   0  0  0  0  0  0
  -24.1864  -13.0446   20.9201 C   0  0  0  0  0  0
  -24.6414  -11.6884   20.8772 C   0  0  0  0  0  0
  -23.9097  -10.4282   21.0442 C   0  0  0  0  0  0
  -24.3642   -9.4183   21.9209 C   0  0  0  0  0  0
  -23.6293   -8.2237   22.0782 C   0  0  0  0  0  0
  -22.4277   -8.0291   21.3559 C   0  0  0  0  0  0
  -21.9931   -9.0285   20.4671 C   0  0  0  0  0  0
  -22.7284  -10.2144   20.3082 C   0  0  0  0  0  0
  -21.6860   -6.0747   22.5280 C   0  0  0  0  0  0
  -21.4003   -6.5645   23.8211 C   0  0  0  0  0  0
  -21.3651   -5.6794   24.9170 C   0  0  0  0  0  0
  -21.6043   -4.3062   24.7212 C   0  0  0  0  0  0
  -21.8826   -3.8154   23.4338 C   0  0  0  0  0  0
  -21.9191   -4.6973   22.3393 C   0  0  0  0  0  0
  -22.7872  -13.5229   21.1826 C   0  0  0  0  0  0
  -22.1669   -4.2163   21.0975 F   0  0  0  0  0  0
  -21.5624   -3.4543   25.7726 F   0  0  0  0  0  0
  -29.9897  -13.4628   20.3657 N   0  0  0  0  0  0
  -26.2977  -12.9300   20.3317 N   0  0  0  0  0  0
  -25.9326  -11.6460   20.5775 N   0  0  0  0  0  0
  -22.0506  -12.8253   22.0375 N   0  0  0  0  0  0
  -25.4324  -15.1867   20.4113 N   0  0  0  0  0  0
  -31.7680  -14.8659   20.2399 O   0  0  0  0  0  0
  -21.6646   -6.8898   21.4245 O   0  0  0  0  0  0
  -22.3578  -14.5554   20.6665 O   0  0  0  0  0  0
  -24.6305  -31.8610   23.2083 C   0  0  0  0  0  0
  -25.9123  -32.4778   23.8409 C   0  0  1  0  0  0
  -27.1550  -27.2632   20.1222 C   0  0  0  0  0  0
  -25.5947  -33.8598   24.2329 N   0  0  0  0  0  0
  -23.4182  -30.4988   21.5542 C   0  0  2  0  0  0
  -24.8481  -28.9613   20.1014 C   0  0  0  0  0  0
  -22.7472  -29.4652   22.4919 C   0  0  0  0  0  0
  -18.0288  -28.1405   22.8478 C   0  0  0  0  0  0
  -24.1475  -36.7269   23.2637 C   0  0  0  0  0  0
  -25.9644  -30.7822   21.3792 C   0  0  0  0  0  0
  -26.0268  -29.4061   20.7161 C   0  0  0  0  0  0
  -27.1917  -28.5698   20.7160 C   0  0  0  0  0  0
  -25.9765  -26.9155   19.4302 C   0  0  0  0  0  0
  -24.8293  -27.7268   19.4420 C   0  0  0  0  0  0
  -23.6287  -29.8614   20.1593 C   0  0  0  0  0  0
  -25.4088  -36.3064   24.0341 C   0  0  1  0  0  0
  -20.5896  -28.3707   23.1268 C   0  0  2  0  0  0
  -20.6775  -26.9419   22.5410 C   0  0  0  0  0  0
  -19.5762  -26.6396   21.5206 C   0  0  0  0  0  0
  -18.1933  -26.7956   22.1616 C   0  0  0  0  0  0
  -19.1548  -28.8864   23.2879 C   0  0  0  0  0  0
  -18.9472  -30.1472   23.8891 C   0  0  0  0  0  0
  -17.6478  -30.6606   24.0572 C   0  0  0  0  0  0
  -25.9050  -34.9454   23.5118 C   0  0  0  0  0  0
  -16.5371  -29.9106   23.6336 C   0  0  0  0  0  0
  -16.7281  -28.6539   23.0321 C   0  0  0  0  0  0
  -26.4494  -31.6557   25.0764 C   0  0  0  0  0  0
  -25.3742  -31.3699   26.1493 C   0  0  0  0  0  0
  -27.0301  -30.2994   24.6153 C   0  0  0  0  0  0
  -27.6051  -32.4276   25.7526 C   0  0  0  0  0  0
  -27.5564  -37.1785   24.8473 C   0  0  0  0  0  0
  -21.4181  -29.3070   22.3647 N   0  0  0  0  0  0
  -26.4262  -37.3775   23.9424 N   0  0  0  0  0  0
  -24.6916  -31.0618   22.1049 N   0  0  0  0  0  0
  -23.4204  -28.8139   23.2964 O   0  0  0  0  0  0
  -28.1948  -26.3108   20.1845 O   0  0  0  0  0  0
  -26.5587  -34.8918   22.4685 O   0  0  0  0  0  0
  -23.5464  -32.1415   23.7401 O   0  0  0  0  0  0
  -28.9977  -19.5055   22.2785 C   0  0  0  0  0  0
  -29.1787  -18.2812   22.9573 C   0  0  0  0  0  0
  -29.3802  -18.3432   20.1951 C   0  0  0  0  0  0
  -29.1055  -19.6165   20.8663 C   0  0  0  0  0  0
  -29.5887  -17.0745   20.8798 C   0  0  0  0  0  0
  -29.4884  -17.0863   22.2833 C   0  0  0  0  0  0
  -28.4639  -22.1614   20.7377 C   0  0  0  0  0  0
  -29.4624  -21.0604   18.8095 C   0  0  0  0  0  0
  -28.7370  -23.6289   20.1242 C   0  0  0  0  0  0
  -27.8207  -24.8884   20.5483 C   0  0  0  0  0  0
  -29.6817  -15.7602   20.2322 N   0  0  0  0  0  0
  -28.9782  -20.9655   20.1933 N   0  0  0  0  0  0
  -27.7608  -22.1440   21.7517 O   0  0  0  0  0  0
  -29.6473  -15.9408   22.9939 F   0  0  0  0  0  0
  -31.4791  -12.5812   19.1192 H   0  0  0  0  0  0
  -30.4013  -11.4370   19.8857 H   0  0  0  0  0  0
  -29.7635  -11.7102   17.4838 H   0  0  0  0  0  0
  -29.6364  -13.4380   17.6768 H   0  0  0  0  0  0
  -27.8849  -11.2754   18.8887 H   0  0  0  0  0  0
  -27.3616  -12.5279   17.7946 H   0  0  0  0  0  0
  -27.6390  -14.2322   19.4802 H   0  0  0  0  0  0
  -28.7336  -12.1088   21.3973 H   0  0  0  0  0  0
  -28.4622  -13.7898   21.7924 H   0  0  0  0  0  0
  -25.2790   -9.5643   22.4787 H   0  0  0  0  0  0
  -23.9991   -7.4631   22.7501 H   0  0  0  0  0  0
  -21.0864   -8.8830   19.8971 H   0  0  0  0  0  0
  -22.3770  -10.9704   19.6194 H   0  0  0  0  0  0
  -21.2004   -7.6154   23.9717 H   0  0  0  0  0  0
  -21.1460   -6.0523   25.9072 H   0  0  0  0  0  0
  -22.0612   -2.7617   23.2834 H   0  0  0  0  0  0
  -22.4107  -11.9888   22.4727 H   0  0  0  0  0  0
  -21.1126  -13.1309   22.2581 H   0  0  0  0  0  0
  -24.6713  -15.8433   20.5370 H   0  0  0  0  0  0
  -26.2783  -15.6302   20.0808 H   0  0  0  0  0  0
  -26.7176  -32.5410   23.1128 H   0  0  0  0  0  0
  -25.0106  -33.9778   25.0479 H   0  0  0  0  0  0
  -22.7125  -31.3244   21.4292 H   0  0  0  0  0  0
  -23.3750  -35.9605   23.3303 H   0  0  0  0  0  0
  -24.3585  -36.8893   22.2065 H   0  0  0  0  0  0
  -23.7240  -37.6479   23.6661 H   0  0  0  0  0  0
  -26.0944  -31.5558   20.6217 H   0  0  0  0  0  0
  -26.8489  -30.8283   22.0013 H   0  0  0  0  0  0
  -28.0938  -28.9028   21.2084 H   0  0  0  0  0  0
  -25.9237  -25.9998   18.8597 H   0  0  0  0  0  0
  -23.9365  -27.4001   18.9245 H   0  0  0  0  0  0
  -23.7612  -30.6616   19.4281 H   0  0  0  0  0  0
  -22.7384  -29.3213   19.8317 H   0  0  0  0  0  0
  -25.1275  -36.1922   25.0842 H   0  0  0  0  0  0
  -21.0010  -28.3287   24.1379 H   0  0  0  0  0  0
  -20.5653  -26.2323   23.3608 H   0  0  0  0  0  0
  -21.6638  -26.7430   22.1203 H   0  0  0  0  0  0
  -19.6910  -25.6294   21.1232 H   0  0  0  0  0  0
  -19.6680  -27.3197   20.6734 H   0  0  0  0  0  0
  -17.4177  -26.6682   21.4025 H   0  0  0  0  0  0
  -18.0339  -26.0092   22.9028 H   0  0  0  0  0  0
  -19.7964  -30.7296   24.2212 H   0  0  0  0  0  0
  -17.5044  -31.6255   24.5208 H   0  0  0  0  0  0
  -15.5374  -30.3005   23.7681 H   0  0  0  0  0  0
  -15.8675  -28.0882   22.6996 H   0  0  0  0  0  0
  -24.5968  -30.6934   25.7867 H   0  0  0  0  0  0
  -24.8830  -32.2848   26.4842 H   0  0  0  0  0  0
  -25.8111  -30.8983   27.0312 H   0  0  0  0  0  0
  -26.2871  -29.6801   24.1095 H   0  0  0  0  0  0
  -27.3942  -29.7181   25.4636 H   0  0  0  0  0  0
  -27.8770  -30.4293   23.9412 H   0  0  0  0  0  0
  -27.2687  -33.3637   26.2008 H   0  0  0  0  0  0
  -28.3913  -32.6730   25.0363 H   0  0  0  0  0  0
  -28.0612  -31.8423   26.5513 H   0  0  0  0  0  0
  -28.2555  -38.0099   24.7514 H   0  0  0  0  0  0
  -28.1089  -36.2637   24.6290 H   0  0  0  0  0  0
  -27.2299  -37.1427   25.8881 H   0  0  0  0  0  0
  -20.9319  -29.8898   21.6959 H   0  0  0  0  0  0
  -26.0131  -38.2850   24.1469 H   0  0  0  0  0  0
  -28.7855  -20.3578   22.9040 H   0  0  0  0  0  0
  -29.0745  -18.2549   24.0300 H   0  0  0  0  0  0
  -29.4337  -18.3024   19.1211 H   0  0  0  0  0  0
  -29.3937  -20.1311   18.2522 H   0  0  0  0  0  0
  -30.5011  -21.4028   18.7708 H   0  0  0  0  0  0
  -28.8583  -21.7374   18.2083 H   0  0  0  0  0  0
  -29.7662  -23.8645   20.3947 H   0  0  0  0  0  0
  -28.6960  -23.6094   19.0424 H   0  0  0  0  0  0
  -27.7007  -24.8557   21.6333 H   0  0  0  0  0  0
  -26.8180  -24.6482   20.2006 H   0  0  0  0  0  0
  -28.7810  -15.4338   19.9185 H   0  0  0  0  0  0
  1 25  1  0  0  0
  1 30  2  0  0  0
  1 81  1  0  0  0
  2  3  1  0  0  0
  2 25  1  0  0  0
  2 85  1  0  0  0
  2 86  1  0  0  0
  3  4  1  0  0  0
  3 87  1  0  0  0
  3 88  1  0  0  0
  4  5  1  0  0  0
  4 89  1  0  0  0
  4 90  1  0  0  0
  5  6  1  0  0  0
  5 26  1  0  0  0
  5 91  1  0  0  0
  6 25  1  0  0  0
  6 92  1  0  0  0
  6 93  1  0  0  0
  7  8  2  0  0  0
  7 26  1  0  0  0
  7 29  1  0  0  0
  8  9  1  0  0  0
  8 22  1  0  0  0
  9 10  1  0  0  0
  9 27  2  0  0  0
 10 11  2  0  0  0
 10 15  1  0  0  0
 11 12  1  0  0  0
 11 94  1  0  0  0
 12 13  2  0  0  0
 12 95  1  0  0  0
 13 14  1  0  0  0
 13 31  1  0  0  0
 14 15  2  0  0  0
 14 96  1  0  0  0
 15 97  1  0  0  0
 16 17  2  0  0  0
 16 21  1  0  0  0
 16 31  1  0  0  0
 17 18  1  0  0  0
 17 98  1  0  0  0
 18 19  2  0  0  0
 18 99  1  0  0  0
 19 20  1  0  0  0
 19 24  1  0  0  0
 20 21  2  0  0  0
 20100  1  0  0  0
 21 23  1  0  0  0
 22 28  1  0  0  0
 22 32  2  0  0  0
 26 27  1  0  0  0
 28101  1  0  0  0
 28102  1  0  0  0
 29103  1  0  0  0
 29104  1  0  0  0
 33 34  1  0  0  0
 33 66  1  0  0  0
 33 70  2  0  0  0
 34 36  1  0  0  0
 34 59  1  0  0  0
 34105  1  0  0  0
 35 44  2  0  0  0
 35 45  1  0  0  0
 35 68  1  0  0  0
 36 56  1  0  0  0
 36106  1  0  0  0
 37 39  1  0  0  0
 37 47  1  0  0  0
 37 66  1  0  0  0
 37107  1  0  0  0
 38 43  2  0  0  0
 38 46  1  0  0  0
 38 47  1  0  0  0
 39 64  1  0  0  0
 39 67  2  0  0  0
 40 52  1  0  0  0
 40 53  2  0  0  0
 40 58  1  0  0  0
 41108  1  0  0  0
 41109  1  0  0  0
 41110  1  0  0  0
 41 48  1  0  0  0
 42 43  1  0  0  0
 42 66  1  0  0  0
 42111  1  0  0  0
 42112  1  0  0  0
 43 44  1  0  0  0
 44113  1  0  0  0
 45 46  2  0  0  0
 45114  1  0  0  0
 46115  1  0  0  0
 47116  1  0  0  0
 47117  1  0  0  0
 48 56  1  0  0  0
 48 65  1  0  0  0
 48118  1  0  0  0
 49 50  1  0  0  0
 49 53  1  0  0  0
 49 64  1  0  0  0
 49119  1  0  0  0
 50 51  1  0  0  0
 50120  1  0  0  0
 50121  1  0  0  0
 51 52  1  0  0  0
 51122  1  0  0  0
 51123  1  0  0  0
 52124  1  0  0  0
 52125  1  0  0  0
 53 54  1  0  0  0
 54 55  2  0  0  0
 54126  1  0  0  0
 55 57  1  0  0  0
 55127  1  0  0  0
 56 69  2  0  0  0
 57 58  2  0  0  0
 57128  1  0  0  0
 58129  1  0  0  0
 59 60  1  0  0  0
 59 61  1  0  0  0
 59 62  1  0  0  0
 60130  1  0  0  0
 60131  1  0  0  0
 60132  1  0  0  0
 61133  1  0  0  0
 61134  1  0  0  0
 61135  1  0  0  0
 62136  1  0  0  0
 62137  1  0  0  0
 62138  1  0  0  0
 63 65  1  0  0  0
 63139  1  0  0  0
 63140  1  0  0  0
 63141  1  0  0  0
 64142  1  0  0  0
 65143  1  0  0  0
 68 80  1  0  0  0
 71 72  2  0  0  0
 71 74  1  0  0  0
 71144  1  0  0  0
 72 76  1  0  0  0
 72145  1  0  0  0
 73 74  2  0  0  0
 73 75  1  0  0  0
 73146  1  0  0  0
 74 82  1  0  0  0
 75 76  2  0  0  0
 75 81  1  0  0  0
 76 84  1  0  0  0
 77 79  1  0  0  0
 77 82  1  0  0  0
 77 83  2  0  0  0
 78 82  1  0  0  0
 78147  1  0  0  0
 78148  1  0  0  0
 78149  1  0  0  0
 79 80  1  0  0  0
 79150  1  0  0  0
 79151  1  0  0  0
 80152  1  0  0  0
 80153  1  0  0  0
 81154  1  0  0  0
M  ISO  4   1 100  68 101  80 101  81 100
M  END
> <chiral flag>
0

> <version>
0

> <s_m_source_file>
/data/baiqing/PycharmProjects/Reinvent-master-3.2/result/LINK_invent/BTK/process_docking_weight1_custom_sum_contain_oxygen_bond_distance_aromatic_linkinvent_7_9_3/rearranged_h_0011.sdf

> <i_m_source_file_index>
56

> <r_mmod_Potential_Energy-OPLS-2005>
245.323516845703

> <r_mmod_Stretch_Energy-OPLS-2005>
130.238861083984

> <r_mmod_Bend_Energy-OPLS-2005>
159.638610839844

> <r_mmod_Torsional_Energy-OPLS-2005>
306.738922119141

> <r_mmod_Improper_Torsional_Energy-OPLS-2005>
15.8498363494873

> <r_mmod_Van_der_Waal_Energy-OPLS-2005>
160.939880371094

> <r_mmod_Electrostatic_Energy-OPLS-2005>
-400.681091308594

> <r_mmod_Solvation_Energy-OPLS-2005>
-220.187316894531

> <b_mmod_Minimization_Converged-OPLS-2005>
0

> <r_mmod_RMS_Derivative-OPLS-2005>
6.67644357681274

$$$$
56
                    3D
 Structure written by MMmdl.
152160  0  0  1  0            999 V2000
  -30.6252  -14.7197   20.4334 C   0  0  0  0  0  0
  -30.4326  -12.4295   19.4805 C   0  0  0  0  0  0
  -29.5206  -12.4993   18.2342 C   0  0  0  0  0  0
  -28.0377  -12.3487   18.6315 C   0  0  0  0  0  0
  -27.6476  -13.2327   19.8471 C   0  0  2  0  0  0
  -28.6908  -13.1553   20.9853 C   0  0  0  0  0  0
  -25.2564  -13.8194   20.5705 C   0  0  0  0  0  0
  -24.1831  -13.0453   20.9164 C   0  0  0  0  0  0
  -24.6399  -11.6925   20.8703 C   0  0  0  0  0  0
  -23.9043  -10.4304   21.0367 C   0  0  0  0  0  0
  -24.3597   -9.4230   21.9158 C   0  0  0  0  0  0
  -23.6297   -8.2251   22.0736 C   0  0  0  0  0  0
  -22.4274   -8.0274   21.3529 C   0  0  0  0  0  0
  -21.9892   -9.0240   20.4629 C   0  0  0  0  0  0
  -22.7201  -10.2133   20.3032 C   0  0  0  0  0  0
  -21.6860   -6.0733   22.5275 C   0  0  0  0  0  0
  -21.4007   -6.5633   23.8211 C   0  0  0  0  0  0
  -21.3665   -5.6786   24.9170 C   0  0  0  0  0  0
  -21.6050   -4.3051   24.7217 C   0  0  0  0  0  0
  -21.8819   -3.8139   23.4334 C   0  0  0  0  0  0
  -21.9194   -4.6960   22.3388 C   0  0  0  0  0  0
  -22.7862  -13.5266   21.1847 C   0  0  0  0  0  0
  -22.1666   -4.2142   21.0974 F   0  0  0  0  0  0
  -21.5646   -3.4534   25.7727 F   0  0  0  0  0  0
  -29.9964  -13.4964   20.4095 N   0  0  0  0  0  0
  -26.2980  -12.9407   20.3241 N   0  0  0  0  0  0
  -25.9335  -11.6542   20.5681 N   0  0  0  0  0  0
  -22.0495  -12.8273   22.0404 N   0  0  0  0  0  0
  -25.4327  -15.1926   20.4186 N   0  0  0  0  0  0
  -31.8169  -14.7975   20.1210 O   0  0  0  0  0  0
  -21.6644   -6.8875   21.4233 O   0  0  0  0  0  0
  -22.3559  -14.5572   20.6696 O   0  0  0  0  0  0
  -24.6308  -31.8544   23.1968 C   0  0  0  0  0  0
  -25.9126  -32.4750   23.8321 C   0  0  1  0  0  0
  -27.2274  -27.2691   20.1224 C   0  0  0  0  0  0
  -25.5943  -33.8556   24.2255 N   0  0  0  0  0  0
  -23.4271  -30.4745   21.5394 C   0  0  2  0  0  0
  -24.8742  -28.9189   20.1042 C   0  0  0  0  0  0
  -22.7496  -29.4589   22.4908 C   0  0  0  0  0  0
  -18.0291  -28.1389   22.8482 C   0  0  0  0  0  0
  -24.1485  -36.7284   23.2640 C   0  0  0  0  0  0
  -25.9691  -30.7689   21.3714 C   0  0  0  0  0  0
  -26.0406  -29.3902   20.7171 C   0  0  0  0  0  0
  -27.2143  -28.5752   20.7183 C   0  0  0  0  0  0
  -26.0339  -26.8553   19.4885 C   0  0  0  0  0  0
  -24.8759  -27.6612   19.4777 C   0  0  0  0  0  0
  -23.6435  -29.8043   20.1553 C   0  0  0  0  0  0
  -25.4113  -36.3063   24.0327 C   0  0  1  0  0  0
  -20.5889  -28.3686   23.1283 C   0  0  2  0  0  0
  -20.6765  -26.9407   22.5420 C   0  0  0  0  0  0
  -19.5756  -26.6378   21.5210 C   0  0  0  0  0  0
  -18.1932  -26.7930   22.1614 C   0  0  0  0  0  0
  -19.1543  -28.8857   23.2869 C   0  0  0  0  0  0
  -18.9465  -30.1456   23.8894 C   0  0  0  0  0  0
  -17.6463  -30.6584   24.0565 C   0  0  0  0  0  0
  -25.9062  -34.9440   23.5093 C   0  0  0  0  0  0
  -16.5352  -29.9087   23.6330 C   0  0  0  0  0  0
  -16.7274  -28.6503   23.0347 C   0  0  0  0  0  0
  -26.4497  -31.6584   25.0719 C   0  0  0  0  0  0
  -25.3726  -31.3738   26.1450 C   0  0  0  0  0  0
  -27.0325  -30.3000   24.6185 C   0  0  0  0  0  0
  -27.6059  -32.4312   25.7493 C   0  0  0  0  0  0
  -27.5576  -37.1799   24.8461 C   0  0  0  0  0  0
  -21.4200  -29.3039   22.3669 N   0  0  0  0  0  0
  -26.4280  -37.3767   23.9418 N   0  0  0  0  0  0
  -24.6949  -31.0512   22.0931 N   0  0  0  0  0  0
  -23.4199  -28.8146   23.3012 O   0  0  0  0  0  0
  -28.3577  -26.4279   20.2101 O   0  0  0  0  0  0
  -26.5615  -34.8911   22.4650 O   0  0  0  0  0  0
  -23.5457  -32.1369   23.7261 O   0  0  0  0  0  0
  -29.4661  -18.4628   20.5805 C   0  0  0  0  0  0
  -30.7811  -17.3681   18.8566 C   0  0  0  0  0  0
  -30.0506  -17.2319   20.0588 C   0  0  0  0  0  0
  -29.6114  -19.7750   19.9535 C   0  0  0  0  0  0
  -30.9368  -18.6134   18.2217 C   0  0  0  0  0  0
  -30.3705  -19.7902   18.7497 C   0  0  0  0  0  0
  -28.4596  -23.6874   20.4798 C   0  0  0  0  0  0
  -29.0878  -22.3641   19.7962 C   0  0  0  0  0  0
  -28.4688  -25.0558   19.6151 C   0  0  0  0  0  0
  -29.8686  -15.8680   20.6310 N   0  0  0  0  0  0
  -29.0361  -21.0060   20.4808 N   0  0  0  0  0  0
  -31.6453  -18.6786   17.0676 F   0  0  0  0  0  0
  -30.5757  -20.9381   18.0571 F   0  0  0  0  0  0
  -31.4795  -12.5332   19.1890 H   0  0  0  0  0  0
  -30.3590  -11.4533   19.9609 H   0  0  0  0  0  0
  -29.7999  -11.7231   17.5196 H   0  0  0  0  0  0
  -29.6710  -13.4511   17.7225 H   0  0  0  0  0  0
  -27.8687  -11.2985   18.8666 H   0  0  0  0  0  0
  -27.3950  -12.5761   17.7791 H   0  0  0  0  0  0
  -27.6475  -14.2581   19.4776 H   0  0  0  0  0  0
  -28.7191  -12.1550   21.4200 H   0  0  0  0  0  0
  -28.4295  -13.8339   21.7990 H   0  0  0  0  0  0
  -25.2735   -9.5738   22.4731 H   0  0  0  0  0  0
  -24.0014   -7.4657   22.7468 H   0  0  0  0  0  0
  -21.0819   -8.8751   19.8944 H   0  0  0  0  0  0
  -22.3642  -10.9671   19.6146 H   0  0  0  0  0  0
  -21.1978   -7.6142   23.9719 H   0  0  0  0  0  0
  -21.1510   -6.0506   25.9086 H   0  0  0  0  0  0
  -22.0592   -2.7598   23.2826 H   0  0  0  0  0  0
  -22.4069  -11.9918   22.4791 H   0  0  0  0  0  0
  -21.1110  -13.1325   22.2574 H   0  0  0  0  0  0
  -24.6688  -15.8516   20.5252 H   0  0  0  0  0  0
  -26.2914  -15.6319   20.1118 H   0  0  0  0  0  0
  -26.7203  -32.5402   23.1075 H   0  0  0  0  0  0
  -25.0122  -33.9695   25.0417 H   0  0  0  0  0  0
  -22.7241  -31.2966   21.3916 H   0  0  0  0  0  0
  -23.3739  -35.9623   23.3293 H   0  0  0  0  0  0
  -24.3585  -36.8913   22.2060 H   0  0  0  0  0  0
  -23.7236  -37.6485   23.6661 H   0  0  0  0  0  0
  -26.1001  -31.5260   20.5966 H   0  0  0  0  0  0
  -26.8498  -30.8250   21.9990 H   0  0  0  0  0  0
  -28.1062  -28.9303   21.2152 H   0  0  0  0  0  0
  -25.9556  -25.8893   19.0152 H   0  0  0  0  0  0
  -23.9824  -27.2975   18.9885 H   0  0  0  0  0  0
  -23.7630  -30.5772   19.3957 H   0  0  0  0  0  0
  -22.7628  -29.2350   19.8539 H   0  0  0  0  0  0
  -25.1289  -36.1914   25.0815 H   0  0  0  0  0  0
  -20.9984  -28.3254   24.1399 H   0  0  0  0  0  0
  -20.5641  -26.2306   23.3618 H   0  0  0  0  0  0
  -21.6639  -26.7423   22.1234 H   0  0  0  0  0  0
  -19.6915  -25.6282   21.1256 H   0  0  0  0  0  0
  -19.6702  -27.3171   20.6724 H   0  0  0  0  0  0
  -17.4208  -26.6680   21.4005 H   0  0  0  0  0  0
  -18.0328  -26.0076   22.9015 H   0  0  0  0  0  0
  -19.7942  -30.7267   24.2271 H   0  0  0  0  0  0
  -17.5019  -31.6265   24.5169 H   0  0  0  0  0  0
  -15.5349  -30.2991   23.7651 H   0  0  0  0  0  0
  -15.8672  -28.0824   22.7059 H   0  0  0  0  0  0
  -24.5900  -30.7079   25.7793 H   0  0  0  0  0  0
  -24.8916  -32.2910   26.4862 H   0  0  0  0  0  0
  -25.8059  -30.8940   27.0238 H   0  0  0  0  0  0
  -26.2897  -29.6769   24.1193 H   0  0  0  0  0  0
  -27.3991  -29.7242   25.4695 H   0  0  0  0  0  0
  -27.8783  -30.4273   23.9422 H   0  0  0  0  0  0
  -27.2670  -33.3598   26.2091 H   0  0  0  0  0  0
  -28.3862  -32.6895   25.0325 H   0  0  0  0  0  0
  -28.0736  -31.8431   26.5399 H   0  0  0  0  0  0
  -28.2583  -38.0101   24.7509 H   0  0  0  0  0  0
  -28.1074  -36.2640   24.6267 H   0  0  0  0  0  0
  -27.2313  -37.1431   25.8865 H   0  0  0  0  0  0
  -20.9383  -29.8787   21.6895 H   0  0  0  0  0  0
  -26.0155  -38.2837   24.1415 H   0  0  0  0  0  0
  -28.8869  -18.3977   21.4896 H   0  0  0  0  0  0
  -31.2269  -16.5115   18.3732 H   0  0  0  0  0  0
  -28.9999  -23.8707   21.4077 H   0  0  0  0  0  0
  -27.4296  -23.4818   20.7735 H   0  0  0  0  0  0
  -30.1382  -22.5953   19.6067 H   0  0  0  0  0  0
  -28.6291  -22.2490   18.8128 H   0  0  0  0  0  0
  -27.8067  -24.9381   18.7603 H   0  0  0  0  0  0
  -29.4579  -25.0816   19.1553 H   0  0  0  0  0  0
  -28.9786  -15.7057   21.0769 H   0  0  0  0  0  0
  -28.5054  -20.9399   21.3461 H   0  0  0  0  0  0
  1 25  1  0  0  0
  1 30  2  0  0  0
  1 80  1  0  0  0
  2  3  1  0  0  0
  2 25  1  0  0  0
  2 84  1  0  0  0
  2 85  1  0  0  0
  3  4  1  0  0  0
  3 86  1  0  0  0
  3 87  1  0  0  0
  4  5  1  0  0  0
  4 88  1  0  0  0
  4 89  1  0  0  0
  5  6  1  0  0  0
  5 26  1  0  0  0
  5 90  1  0  0  0
  6 25  1  0  0  0
  6 91  1  0  0  0
  6 92  1  0  0  0
  7  8  2  0  0  0
  7 26  1  0  0  0
  7 29  1  0  0  0
  8  9  1  0  0  0
  8 22  1  0  0  0
  9 10  1  0  0  0
  9 27  2  0  0  0
 10 11  2  0  0  0
 10 15  1  0  0  0
 11 12  1  0  0  0
 11 93  1  0  0  0
 12 13  2  0  0  0
 12 94  1  0  0  0
 13 14  1  0  0  0
 13 31  1  0  0  0
 14 15  2  0  0  0
 14 95  1  0  0  0
 15 96  1  0  0  0
 16 17  2  0  0  0
 16 21  1  0  0  0
 16 31  1  0  0  0
 17 18  1  0  0  0
 17 97  1  0  0  0
 18 19  2  0  0  0
 18 98  1  0  0  0
 19 20  1  0  0  0
 19 24  1  0  0  0
 20 21  2  0  0  0
 20 99  1  0  0  0
 21 23  1  0  0  0
 22 28  1  0  0  0
 22 32  2  0  0  0
 26 27  1  0  0  0
 28100  1  0  0  0
 28101  1  0  0  0
 29102  1  0  0  0
 29103  1  0  0  0
 33 34  1  0  0  0
 33 66  1  0  0  0
 33 70  2  0  0  0
 34 36  1  0  0  0
 34 59  1  0  0  0
 34104  1  0  0  0
 35 44  2  0  0  0
 35 45  1  0  0  0
 35 68  1  0  0  0
 36 56  1  0  0  0
 36105  1  0  0  0
 37 39  1  0  0  0
 37 47  1  0  0  0
 37 66  1  0  0  0
 37106  1  0  0  0
 38 43  2  0  0  0
 38 46  1  0  0  0
 38 47  1  0  0  0
 39 64  1  0  0  0
 39 67  2  0  0  0
 40 52  1  0  0  0
 40 53  2  0  0  0
 40 58  1  0  0  0
 41107  1  0  0  0
 41108  1  0  0  0
 41109  1  0  0  0
 41 48  1  0  0  0
 42 43  1  0  0  0
 42 66  1  0  0  0
 42110  1  0  0  0
 42111  1  0  0  0
 43 44  1  0  0  0
 44112  1  0  0  0
 45 46  2  0  0  0
 45113  1  0  0  0
 46114  1  0  0  0
 47115  1  0  0  0
 47116  1  0  0  0
 48 56  1  0  0  0
 48 65  1  0  0  0
 48117  1  0  0  0
 49 50  1  0  0  0
 49 53  1  0  0  0
 49 64  1  0  0  0
 49118  1  0  0  0
 50 51  1  0  0  0
 50119  1  0  0  0
 50120  1  0  0  0
 51 52  1  0  0  0
 51121  1  0  0  0
 51122  1  0  0  0
 52123  1  0  0  0
 52124  1  0  0  0
 53 54  1  0  0  0
 54 55  2  0  0  0
 54125  1  0  0  0
 55 57  1  0  0  0
 55126  1  0  0  0
 56 69  2  0  0  0
 57 58  2  0  0  0
 57127  1  0  0  0
 58128  1  0  0  0
 59 60  1  0  0  0
 59 61  1  0  0  0
 59 62  1  0  0  0
 60129  1  0  0  0
 60130  1  0  0  0
 60131  1  0  0  0
 61132  1  0  0  0
 61133  1  0  0  0
 61134  1  0  0  0
 62135  1  0  0  0
 62136  1  0  0  0
 62137  1  0  0  0
 63 65  1  0  0  0
 63138  1  0  0  0
 63139  1  0  0  0
 63140  1  0  0  0
 64141  1  0  0  0
 65142  1  0  0  0
 68 79  1  0  0  0
 71 73  2  0  0  0
 71 74  1  0  0  0
 71143  1  0  0  0
 72 73  1  0  0  0
 72 75  2  0  0  0
 72144  1  0  0  0
 73 80  1  0  0  0
 74 76  2  0  0  0
 74 81  1  0  0  0
 75 76  1  0  0  0
 75 82  1  0  0  0
 76 83  1  0  0  0
 77 78  1  0  0  0
 77 79  1  0  0  0
 77145  1  0  0  0
 77146  1  0  0  0
 78 81  1  0  0  0
 78147  1  0  0  0
 78148  1  0  0  0
 79149  1  0  0  0
 79150  1  0  0  0
 80151  1  0  0  0
 81152  1  0  0  0
M  ISO  4   1 100  68 101  79 101  80 100
M  END
> <chiral flag>
0

> <version>
0

> <s_m_source_file>
/data/baiqing/PycharmProjects/Reinvent-master-3.2/result/LINK_invent/BTK/process_docking_weight1_custom_sum_contain_oxygen_bond_distance_aromatic_linkinvent_7_9_3/rearranged_h_0011.sdf

> <i_m_source_file_index>
57

> <r_mmod_Potential_Energy-OPLS-2005>
241.789901733398

> <r_mmod_Stretch_Energy-OPLS-2005>
120.638328552246

> <r_mmod_Bend_Energy-OPLS-2005>
179.879547119141

> <r_mmod_Torsional_Energy-OPLS-2005>
211.251586914062

> <r_mmod_Improper_Torsional_Energy-OPLS-2005>
4.54290914535522

> <r_mmod_Van_der_Waal_Energy-OPLS-2005>
145.046356201172

> <r_mmod_Electrostatic_Energy-OPLS-2005>
-276.619506835938

> <r_mmod_Solvation_Energy-OPLS-2005>
-218.599594116211

> <b_mmod_Minimization_Converged-OPLS-2005>
0

> <r_mmod_RMS_Derivative-OPLS-2005>
2.7104287147522

$$$$
57
                    3D
 Structure written by MMmdl.
159167  0  0  1  0            999 V2000
  -30.5835  -14.6749   20.5176 C   0  0  0  0  0  0
  -30.4513  -12.4203   19.4521 C   0  0  0  0  0  0
  -29.5113  -12.5277   18.2279 C   0  0  0  0  0  0
  -28.0348  -12.3532   18.6402 C   0  0  0  0  0  0
  -27.6558  -13.2155   19.8732 C   0  0  2  0  0  0
  -28.7028  -13.0503   20.9986 C   0  0  0  0  0  0
  -25.2509  -13.8119   20.5599 C   0  0  0  0  0  0
  -24.1794  -13.0392   20.9137 C   0  0  0  0  0  0
  -24.6394  -11.6878   20.8740 C   0  0  0  0  0  0
  -23.9068  -10.4267   21.0407 C   0  0  0  0  0  0
  -24.3619   -9.4187   21.9187 C   0  0  0  0  0  0
  -23.6288   -8.2227   22.0758 C   0  0  0  0  0  0
  -22.4273   -8.0272   21.3545 C   0  0  0  0  0  0
  -21.9911   -9.0243   20.4643 C   0  0  0  0  0  0
  -22.7243  -10.2119   20.3054 C   0  0  0  0  0  0
  -21.6846   -6.0732   22.5281 C   0  0  0  0  0  0
  -21.4011   -6.5636   23.8213 C   0  0  0  0  0  0
  -21.3661   -5.6789   24.9174 C   0  0  0  0  0  0
  -21.6047   -4.3051   24.7226 C   0  0  0  0  0  0
  -21.8821   -3.8144   23.4347 C   0  0  0  0  0  0
  -21.9190   -4.6962   22.3403 C   0  0  0  0  0  0
  -22.7823  -13.5196   21.1822 C   0  0  0  0  0  0
  -22.1659   -4.2149   21.0980 F   0  0  0  0  0  0
  -21.5632   -3.4536   25.7739 F   0  0  0  0  0  0
  -30.0164  -13.4252   20.4439 N   0  0  0  0  0  0
  -26.2999  -12.9333   20.3379 N   0  0  0  0  0  0
  -25.9340  -11.6487   20.5813 N   0  0  0  0  0  0
  -22.0482  -12.8194   22.0401 N   0  0  0  0  0  0
  -25.4104  -15.1814   20.3906 N   0  0  0  0  0  0
  -31.7242  -14.8904   20.0946 O   0  0  0  0  0  0
  -21.6630   -6.8878   21.4245 O   0  0  0  0  0  0
  -22.3503  -14.5513   20.6697 O   0  0  0  0  0  0
  -24.6259  -31.8581   23.1993 C   0  0  0  0  0  0
  -25.9101  -32.4770   23.8333 C   0  0  1  0  0  0
  -27.2357  -27.3164   20.1295 C   0  0  0  0  0  0
  -25.5914  -33.8570   24.2263 N   0  0  0  0  0  0
  -23.4208  -30.4769   21.5424 C   0  0  2  0  0  0
  -24.8696  -28.9194   20.1190 C   0  0  0  0  0  0
  -22.7470  -29.4611   22.4948 C   0  0  0  0  0  0
  -18.0284  -28.1384   22.8486 C   0  0  0  0  0  0
  -24.1490  -36.7294   23.2640 C   0  0  0  0  0  0
  -25.9595  -30.7884   21.3678 C   0  0  0  0  0  0
  -26.0370  -29.4118   20.7168 C   0  0  0  0  0  0
  -27.2254  -28.6242   20.7042 C   0  0  0  0  0  0
  -26.0464  -26.8622   19.5245 C   0  0  0  0  0  0
  -24.8755  -27.6496   19.5144 C   0  0  0  0  0  0
  -23.6365  -29.8009   20.1616 C   0  0  0  0  0  0
  -25.4116  -36.3081   24.0329 C   0  0  1  0  0  0
  -20.5881  -28.3686   23.1289 C   0  0  2  0  0  0
  -20.6775  -26.9409   22.5413 C   0  0  0  0  0  0
  -19.5752  -26.6383   21.5214 C   0  0  0  0  0  0
  -18.1930  -26.7930   22.1620 C   0  0  0  0  0  0
  -19.1534  -28.8853   23.2882 C   0  0  0  0  0  0
  -18.9459  -30.1459   23.8894 C   0  0  0  0  0  0
  -17.6459  -30.6589   24.0560 C   0  0  0  0  0  0
  -25.9051  -34.9449   23.5100 C   0  0  0  0  0  0
  -16.5350  -29.9084   23.6330 C   0  0  0  0  0  0
  -16.7271  -28.6500   23.0354 C   0  0  0  0  0  0
  -26.4486  -31.6584   25.0705 C   0  0  0  0  0  0
  -25.3723  -31.3718   26.1433 C   0  0  0  0  0  0
  -27.0337  -30.3015   24.6155 C   0  0  0  0  0  0
  -27.6042  -32.4324   25.7480 C   0  0  0  0  0  0
  -27.5584  -37.1797   24.8460 C   0  0  0  0  0  0
  -21.4184  -29.3039   22.3686 N   0  0  0  0  0  0
  -26.4292  -37.3777   23.9410 N   0  0  0  0  0  0
  -24.6876  -31.0582   22.0943 N   0  0  0  0  0  0
  -23.4187  -28.8167   23.3046 O   0  0  0  0  0  0
  -28.3769  -26.5058   20.1046 O   0  0  0  0  0  0
  -26.5625  -34.8920   22.4670 O   0  0  0  0  0  0
  -23.5420  -32.1376   23.7321 O   0  0  0  0  0  0
  -30.5041  -18.0676   20.3243 C   0  0  0  0  0  0
  -30.1988  -19.4743   20.2954 C   0  0  0  0  0  0
  -29.5946  -17.1140   20.8626 C   0  0  0  0  0  0
  -28.9683  -20.0167   20.7810 C   0  0  0  0  0  0
  -28.3698  -17.6330   21.3561 C   0  0  0  0  0  0
  -28.0524  -19.0325   21.2772 C   0  0  0  0  0  0
  -27.8843  -21.8712   21.9958 C   0  0  0  0  0  0
  -26.5744  -17.0721   22.8761 C   0  0  0  0  0  0
  -28.5931  -23.8768   19.6796 C   0  0  0  0  0  0
  -29.3847  -22.5510   20.1526 C   0  0  0  0  0  0
  -28.3243  -25.1237   20.6423 C   0  0  0  0  0  0
  -29.7477  -15.6553   20.9879 N   0  0  0  0  0  0
  -28.6317  -21.4389   20.8128 N   0  0  0  0  0  0
  -27.5197  -16.6797   21.8881 O   0  0  0  0  0  0
  -26.8148  -19.4385   21.6578 F   0  0  0  0  0  0
  -31.4880  -12.5723   19.1470 H   0  0  0  0  0  0
  -30.4110  -11.4195   19.8847 H   0  0  0  0  0  0
  -29.7805  -11.7840   17.4767 H   0  0  0  0  0  0
  -29.6416  -13.5017   17.7528 H   0  0  0  0  0  0
  -27.8761  -11.2980   18.8658 H   0  0  0  0  0  0
  -27.3786  -12.5859   17.8004 H   0  0  0  0  0  0
  -27.6758  -14.2549   19.5448 H   0  0  0  0  0  0
  -28.7254  -12.0168   21.3475 H   0  0  0  0  0  0
  -28.4371  -13.6448   21.8739 H   0  0  0  0  0  0
  -25.2767   -9.5659   22.4757 H   0  0  0  0  0  0
  -23.9992   -7.4620   22.7481 H   0  0  0  0  0  0
  -21.0844   -8.8766   19.8945 H   0  0  0  0  0  0
  -22.3709  -10.9659   19.6162 H   0  0  0  0  0  0
  -21.2002   -7.6145   23.9719 H   0  0  0  0  0  0
  -21.1483   -6.0516   25.9077 H   0  0  0  0  0  0
  -22.0602   -2.7608   23.2844 H   0  0  0  0  0  0
  -22.4096  -11.9847   22.4772 H   0  0  0  0  0  0
  -21.1109  -13.1231   22.2631 H   0  0  0  0  0  0
  -24.6435  -15.8305   20.5236 H   0  0  0  0  0  0
  -26.2954  -15.6431   20.2241 H   0  0  0  0  0  0
  -26.7169  -32.5443   23.1083 H   0  0  0  0  0  0
  -25.0052  -33.9712   25.0401 H   0  0  0  0  0  0
  -22.7151  -31.2968   21.3940 H   0  0  0  0  0  0
  -23.3758  -35.9619   23.3287 H   0  0  0  0  0  0
  -24.3583  -36.8933   22.2058 H   0  0  0  0  0  0
  -23.7234  -37.6486   23.6676 H   0  0  0  0  0  0
  -26.0869  -31.5480   20.5950 H   0  0  0  0  0  0
  -26.8414  -30.8430   21.9949 H   0  0  0  0  0  0
  -28.1282  -29.0049   21.1610 H   0  0  0  0  0  0
  -26.0242  -25.8876   19.0573 H   0  0  0  0  0  0
  -23.9797  -27.2649   19.0463 H   0  0  0  0  0  0
  -23.7554  -30.5717   19.3994 H   0  0  0  0  0  0
  -22.7571  -29.2273   19.8638 H   0  0  0  0  0  0
  -25.1296  -36.1932   25.0820 H   0  0  0  0  0  0
  -20.9971  -28.3263   24.1411 H   0  0  0  0  0  0
  -20.5681  -26.2294   23.3611 H   0  0  0  0  0  0
  -21.6645  -26.7445   22.1205 H   0  0  0  0  0  0
  -19.6916  -25.6294   21.1245 H   0  0  0  0  0  0
  -19.6697  -27.3190   20.6742 H   0  0  0  0  0  0
  -17.4205  -26.6683   21.4018 H   0  0  0  0  0  0
  -18.0324  -26.0070   22.9010 H   0  0  0  0  0  0
  -19.7935  -30.7276   24.2261 H   0  0  0  0  0  0
  -17.5012  -31.6271   24.5158 H   0  0  0  0  0  0
  -15.5350  -30.2986   23.7657 H   0  0  0  0  0  0
  -15.8670  -28.0819   22.7073 H   0  0  0  0  0  0
  -24.5896  -30.7072   25.7758 H   0  0  0  0  0  0
  -24.8916  -32.2882   26.4867 H   0  0  0  0  0  0
  -25.8047  -30.8886   27.0203 H   0  0  0  0  0  0
  -26.2910  -29.6759   24.1191 H   0  0  0  0  0  0
  -27.4056  -29.7277   25.4654 H   0  0  0  0  0  0
  -27.8765  -30.4312   23.9362 H   0  0  0  0  0  0
  -27.2649  -33.3624   26.2056 H   0  0  0  0  0  0
  -28.3853  -32.6886   25.0310 H   0  0  0  0  0  0
  -28.0711  -31.8451   26.5398 H   0  0  0  0  0  0
  -28.2584  -38.0112   24.7536 H   0  0  0  0  0  0
  -28.1101  -36.2644   24.6254 H   0  0  0  0  0  0
  -27.2305  -37.1403   25.8862 H   0  0  0  0  0  0
  -20.9368  -29.8744   21.6876 H   0  0  0  0  0  0
  -26.0175  -38.2849   24.1423 H   0  0  0  0  0  0
  -31.4573  -17.7319   19.9406 H   0  0  0  0  0  0
  -30.9464  -20.1444   19.8977 H   0  0  0  0  0  0
  -26.8149  -21.9043   21.7829 H   0  0  0  0  0  0
  -28.1844  -22.8684   22.3193 H   0  0  0  0  0  0
  -28.0446  -21.2129   22.8514 H   0  0  0  0  0  0
  -25.6794  -17.4987   22.4224 H   0  0  0  0  0  0
  -26.9944  -17.7787   23.5932 H   0  0  0  0  0  0
  -26.2572  -16.1916   23.4348 H   0  0  0  0  0  0
  -27.6608  -23.5918   19.1915 H   0  0  0  0  0  0
  -29.2020  -24.2851   18.8723 H   0  0  0  0  0  0
  -30.2195  -22.8413   20.7925 H   0  0  0  0  0  0
  -29.8446  -22.1236   19.2603 H   0  0  0  0  0  0
  -29.0913  -25.0983   21.4164 H   0  0  0  0  0  0
  -27.3867  -24.9661   21.1773 H   0  0  0  0  0  0
  -28.9160  -15.2445   21.3869 H   0  0  0  0  0  0
  1 25  1  0  0  0
  1 30  2  0  0  0
  1 82  1  0  0  0
  2  3  1  0  0  0
  2 25  1  0  0  0
  2 86  1  0  0  0
  2 87  1  0  0  0
  3  4  1  0  0  0
  3 88  1  0  0  0
  3 89  1  0  0  0
  4  5  1  0  0  0
  4 90  1  0  0  0
  4 91  1  0  0  0
  5  6  1  0  0  0
  5 26  1  0  0  0
  5 92  1  0  0  0
  6 25  1  0  0  0
  6 93  1  0  0  0
  6 94  1  0  0  0
  7  8  2  0  0  0
  7 26  1  0  0  0
  7 29  1  0  0  0
  8  9  1  0  0  0
  8 22  1  0  0  0
  9 10  1  0  0  0
  9 27  2  0  0  0
 10 11  2  0  0  0
 10 15  1  0  0  0
 11 12  1  0  0  0
 11 95  1  0  0  0
 12 13  2  0  0  0
 12 96  1  0  0  0
 13 14  1  0  0  0
 13 31  1  0  0  0
 14 15  2  0  0  0
 14 97  1  0  0  0
 15 98  1  0  0  0
 16 17  2  0  0  0
 16 21  1  0  0  0
 16 31  1  0  0  0
 17 18  1  0  0  0
 17 99  1  0  0  0
 18 19  2  0  0  0
 18100  1  0  0  0
 19 20  1  0  0  0
 19 24  1  0  0  0
 20 21  2  0  0  0
 20101  1  0  0  0
 21 23  1  0  0  0
 22 28  1  0  0  0
 22 32  2  0  0  0
 26 27  1  0  0  0
 28102  1  0  0  0
 28103  1  0  0  0
 29104  1  0  0  0
 29105  1  0  0  0
 33 34  1  0  0  0
 33 66  1  0  0  0
 33 70  2  0  0  0
 34 36  1  0  0  0
 34 59  1  0  0  0
 34106  1  0  0  0
 35 44  2  0  0  0
 35 45  1  0  0  0
 35 68  1  0  0  0
 36 56  1  0  0  0
 36107  1  0  0  0
 37 39  1  0  0  0
 37 47  1  0  0  0
 37 66  1  0  0  0
 37108  1  0  0  0
 38 43  2  0  0  0
 38 46  1  0  0  0
 38 47  1  0  0  0
 39 64  1  0  0  0
 39 67  2  0  0  0
 40 52  1  0  0  0
 40 53  2  0  0  0
 40 58  1  0  0  0
 41109  1  0  0  0
 41110  1  0  0  0
 41111  1  0  0  0
 41 48  1  0  0  0
 42 43  1  0  0  0
 42 66  1  0  0  0
 42112  1  0  0  0
 42113  1  0  0  0
 43 44  1  0  0  0
 44114  1  0  0  0
 45 46  2  0  0  0
 45115  1  0  0  0
 46116  1  0  0  0
 47117  1  0  0  0
 47118  1  0  0  0
 48 56  1  0  0  0
 48 65  1  0  0  0
 48119  1  0  0  0
 49 50  1  0  0  0
 49 53  1  0  0  0
 49 64  1  0  0  0
 49120  1  0  0  0
 50 51  1  0  0  0
 50121  1  0  0  0
 50122  1  0  0  0
 51 52  1  0  0  0
 51123  1  0  0  0
 51124  1  0  0  0
 52125  1  0  0  0
 52126  1  0  0  0
 53 54  1  0  0  0
 54 55  2  0  0  0
 54127  1  0  0  0
 55 57  1  0  0  0
 55128  1  0  0  0
 56 69  2  0  0  0
 57 58  2  0  0  0
 57129  1  0  0  0
 58130  1  0  0  0
 59 60  1  0  0  0
 59 61  1  0  0  0
 59 62  1  0  0  0
 60131  1  0  0  0
 60132  1  0  0  0
 60133  1  0  0  0
 61134  1  0  0  0
 61135  1  0  0  0
 61136  1  0  0  0
 62137  1  0  0  0
 62138  1  0  0  0
 62139  1  0  0  0
 63 65  1  0  0  0
 63140  1  0  0  0
 63141  1  0  0  0
 63142  1  0  0  0
 64143  1  0  0  0
 65144  1  0  0  0
 68 81  1  0  0  0
 71 72  2  0  0  0
 71 73  1  0  0  0
 71145  1  0  0  0
 72 74  1  0  0  0
 72146  1  0  0  0
 73 75  2  0  0  0
 73 82  1  0  0  0
 74 76  2  0  0  0
 74 83  1  0  0  0
 75 76  1  0  0  0
 75 84  1  0  0  0
 76 85  1  0  0  0
 77 83  1  0  0  0
 77147  1  0  0  0
 77148  1  0  0  0
 77149  1  0  0  0
 78 84  1  0  0  0
 78150  1  0  0  0
 78151  1  0  0  0
 78152  1  0  0  0
 79 80  1  0  0  0
 79 81  1  0  0  0
 79153  1  0  0  0
 79154  1  0  0  0
 80 83  1  0  0  0
 80155  1  0  0  0
 80156  1  0  0  0
 81157  1  0  0  0
 81158  1  0  0  0
 82159  1  0  0  0
M  ISO  4   1 100  68 101  81 101  82 100
M  END
> <chiral flag>
0

> <version>
0

> <s_m_source_file>
/data/baiqing/PycharmProjects/Reinvent-master-3.2/result/LINK_invent/BTK/process_docking_weight1_custom_sum_contain_oxygen_bond_distance_aromatic_linkinvent_7_9_3/rearranged_h_0011.sdf

> <i_m_source_file_index>
58

> <r_mmod_Potential_Energy-OPLS-2005>
192.139602661133

> <r_mmod_Stretch_Energy-OPLS-2005>
94.4855728149414

> <r_mmod_Bend_Energy-OPLS-2005>
195.813751220703

> <r_mmod_Torsional_Energy-OPLS-2005>
244.673751831055

> <r_mmod_Improper_Torsional_Energy-OPLS-2005>
5.23680448532104

> <r_mmod_Van_der_Waal_Energy-OPLS-2005>
150.075897216797

> <r_mmod_Electrostatic_Energy-OPLS-2005>
-339.143646240234

> <r_mmod_Solvation_Energy-OPLS-2005>
-211.64631652832

> <b_mmod_Minimization_Converged-OPLS-2005>
0

> <r_mmod_RMS_Derivative-OPLS-2005>
0.63679301738739

$$$$
58
                    3D
 Structure written by MMmdl.
166174  0  0  1  0            999 V2000
  -30.7568  -14.3577   20.6937 C   0  0  0  0  0  0
  -30.4211  -12.2885   19.3877 C   0  0  0  0  0  0
  -29.4844  -12.5329   18.1895 C   0  0  0  0  0  0
  -28.0079  -12.3881   18.6050 C   0  0  0  0  0  0
  -27.6682  -13.2003   19.8820 C   0  0  2  0  0  0
  -28.7045  -12.9193   20.9914 C   0  0  0  0  0  0
  -25.2604  -13.8150   20.5656 C   0  0  0  0  0  0
  -24.1846  -13.0434   20.9146 C   0  0  0  0  0  0
  -24.6395  -11.6898   20.8716 C   0  0  0  0  0  0
  -23.9056  -10.4291   21.0399 C   0  0  0  0  0  0
  -24.3612   -9.4209   21.9180 C   0  0  0  0  0  0
  -23.6289   -8.2245   22.0753 C   0  0  0  0  0  0
  -22.4270   -8.0281   21.3544 C   0  0  0  0  0  0
  -21.9903   -9.0250   20.4644 C   0  0  0  0  0  0
  -22.7228  -10.2131   20.3050 C   0  0  0  0  0  0
  -21.6851   -6.0735   22.5280 C   0  0  0  0  0  0
  -21.4015   -6.5639   23.8213 C   0  0  0  0  0  0
  -21.3659   -5.6792   24.9175 C   0  0  0  0  0  0
  -21.6043   -4.3054   24.7225 C   0  0  0  0  0  0
  -21.8819   -3.8147   23.4346 C   0  0  0  0  0  0
  -21.9192   -4.6963   22.3403 C   0  0  0  0  0  0
  -22.7872  -13.5239   21.1822 C   0  0  0  0  0  0
  -22.1660   -4.2150   21.0980 F   0  0  0  0  0  0
  -21.5629   -3.4538   25.7737 F   0  0  0  0  0  0
  -30.0512  -13.2202   20.4625 N   0  0  0  0  0  0
  -26.3051  -12.9314   20.3385 N   0  0  0  0  0  0
  -25.9320  -11.6474   20.5749 N   0  0  0  0  0  0
  -22.0513  -12.8236   22.0386 N   0  0  0  0  0  0
  -25.4324  -15.1865   20.4059 N   0  0  0  0  0  0
  -31.7723  -14.6607   20.0587 O   0  0  0  0  0  0
  -21.6636   -6.8877   21.4241 O   0  0  0  0  0  0
  -22.3548  -14.5543   20.6675 O   0  0  0  0  0  0
  -24.6096  -31.8704   23.2107 C   0  0  0  0  0  0
  -25.9006  -32.4834   23.8394 C   0  0  1  0  0  0
  -27.2455  -27.4798   20.0985 C   0  0  0  0  0  0
  -25.5887  -33.8629   24.2337 N   0  0  0  0  0  0
  -23.3950  -30.4914   21.5504 C   0  0  2  0  0  0
  -24.8429  -28.9525   20.1231 C   0  0  0  0  0  0
  -22.7377  -29.4672   22.5018 C   0  0  0  0  0  0
  -18.0266  -28.1378   22.8487 C   0  0  0  0  0  0
  -24.1493  -36.7316   23.2642 C   0  0  0  0  0  0
  -25.9159  -30.8522   21.3519 C   0  0  0  0  0  0
  -25.9979  -29.4859   20.7083 C   0  0  0  0  0  0
  -27.2039  -28.7598   20.6849 C   0  0  0  0  0  0
  -26.0779  -26.9419   19.5188 C   0  0  0  0  0  0
  -24.8753  -27.6773   19.5267 C   0  0  0  0  0  0
  -23.6017  -29.8142   20.1679 C   0  0  0  0  0  0
  -25.4113  -36.3118   24.0344 C   0  0  1  0  0  0
  -20.5850  -28.3652   23.1342 C   0  0  2  0  0  0
  -20.6761  -26.9396   22.5421 C   0  0  0  0  0  0
  -19.5747  -26.6388   21.5209 C   0  0  0  0  0  0
  -18.1921  -26.7925   22.1618 C   0  0  0  0  0  0
  -19.1513  -28.8829   23.2911 C   0  0  0  0  0  0
  -18.9447  -30.1436   23.8920 C   0  0  0  0  0  0
  -17.6454  -30.6587   24.0570 C   0  0  0  0  0  0
  -25.9033  -34.9482   23.5138 C   0  0  0  0  0  0
  -16.5345  -29.9091   23.6325 C   0  0  0  0  0  0
  -16.7256  -28.6511   23.0338 C   0  0  0  0  0  0
  -26.4460  -31.6592   25.0695 C   0  0  0  0  0  0
  -25.3748  -31.3683   26.1460 C   0  0  0  0  0  0
  -27.0290  -30.3049   24.6010 C   0  0  0  0  0  0
  -27.6043  -32.4299   25.7456 C   0  0  0  0  0  0
  -27.5585  -37.1817   24.8467 C   0  0  0  0  0  0
  -21.4113  -29.3027   22.3758 N   0  0  0  0  0  0
  -26.4304  -37.3797   23.9407 N   0  0  0  0  0  0
  -24.6586  -31.0845   22.0978 N   0  0  0  0  0  0
  -23.4172  -28.8219   23.3045 O   0  0  0  0  0  0
  -28.4370  -26.8073   20.0224 O   0  0  0  0  0  0
  -26.5590  -34.8930   22.4692 O   0  0  0  0  0  0
  -23.5303  -32.1425   23.7540 O   0  0  0  0  0  0
  -31.9937  -18.4084   22.2341 C   0  0  0  0  0  0
  -31.7982  -17.0698   21.8434 C   0  0  0  0  0  0
  -29.7086  -18.5033   23.0680 C   0  0  0  0  0  0
  -30.9576  -19.1342   22.8572 C   0  0  0  0  0  0
  -30.5485  -16.4418   22.0540 C   0  0  0  0  0  0
  -29.5093  -17.1656   22.6784 C   0  0  0  0  0  0
  -29.4014  -24.5837   24.3312 C   0  0  0  0  0  0
  -30.6155  -21.2586   24.1245 C   0  0  0  0  0  0
  -28.4643  -25.3496   25.2182 C   0  0  0  0  0  0
  -29.9222  -27.2547   22.4204 C   0  0  0  0  0  0
  -31.0970  -22.7070   24.2036 C   0  0  0  0  0  0
  -28.5798  -25.6743   20.8750 C   0  0  0  0  0  0
  -28.9505  -26.0617   22.3270 C   0  0  1  0  0  0
  -31.2175  -20.4892   23.2017 N   0  0  0  0  0  0
  -30.2788  -15.0927   21.7062 N   0  0  0  0  0  0
  -29.5528  -24.9161   23.0300 N   0  0  0  0  0  0
  -30.1001  -23.5629   24.8715 N   0  3  0  0  0  0
  -29.7509  -20.8559   24.9084 O   0  0  0  0  0  0
  -27.9715  -16.4236   22.9596 Cl  0  0  0  0  0  0
  -31.4630  -12.3982   19.0806 H   0  0  0  0  0  0
  -30.3265  -11.2608   19.7420 H   0  0  0  0  0  0
  -29.7150  -11.8366   17.3822 H   0  0  0  0  0  0
  -29.6557  -13.5330   17.7882 H   0  0  0  0  0  0
  -27.8108  -11.3290   18.7752 H   0  0  0  0  0  0
  -27.3558  -12.6899   17.7846 H   0  0  0  0  0  0
  -27.7323  -14.2576   19.6234 H   0  0  0  0  0  0
  -28.6651  -11.8680   21.2807 H   0  0  0  0  0  0
  -28.4431  -13.4679   21.8963 H   0  0  0  0  0  0
  -25.2761   -9.5686   22.4745 H   0  0  0  0  0  0
  -23.9999   -7.4638   22.7475 H   0  0  0  0  0  0
  -21.0833   -8.8767   19.8952 H   0  0  0  0  0  0
  -22.3689  -10.9666   19.6153 H   0  0  0  0  0  0
  -21.2009   -7.6146   23.9717 H   0  0  0  0  0  0
  -21.1480   -6.0521   25.9077 H   0  0  0  0  0  0
  -22.0599   -2.7608   23.2846 H   0  0  0  0  0  0
  -22.4127  -11.9896   22.4772 H   0  0  0  0  0  0
  -21.1132  -13.1267   22.2596 H   0  0  0  0  0  0
  -24.6751  -15.8472   20.5390 H   0  0  0  0  0  0
  -26.3059  -15.6300   20.1518 H   0  0  0  0  0  0
  -26.7084  -32.5576   23.1176 H   0  0  0  0  0  0
  -25.0061  -33.9790   25.0498 H   0  0  0  0  0  0
  -22.6819  -31.3060   21.4086 H   0  0  0  0  0  0
  -23.3750  -35.9655   23.3317 H   0  0  0  0  0  0
  -24.3592  -36.8911   22.2054 H   0  0  0  0  0  0
  -23.7248  -37.6529   23.6642 H   0  0  0  0  0  0
  -26.0124  -31.6162   20.5792 H   0  0  0  0  0  0
  -26.8099  -30.9160   21.9605 H   0  0  0  0  0  0
  -28.1029  -29.1909   21.1001 H   0  0  0  0  0  0
  -26.1061  -25.9706   19.0443 H   0  0  0  0  0  0
  -23.9877  -27.2601   19.0712 H   0  0  0  0  0  0
  -23.7053  -30.5841   19.4021 H   0  0  0  0  0  0
  -22.7279  -29.2273   19.8783 H   0  0  0  0  0  0
  -25.1287  -36.1992   25.0839 H   0  0  0  0  0  0
  -20.9942  -28.3220   24.1464 H   0  0  0  0  0  0
  -20.5676  -26.2257   23.3602 H   0  0  0  0  0  0
  -21.6636  -26.7459   22.1212 H   0  0  0  0  0  0
  -19.6917  -25.6302   21.1230 H   0  0  0  0  0  0
  -19.6699  -27.3210   20.6749 H   0  0  0  0  0  0
  -17.4193  -26.6671   21.4015 H   0  0  0  0  0  0
  -18.0318  -26.0061   22.9009 H   0  0  0  0  0  0
  -19.7928  -30.7234   24.2307 H   0  0  0  0  0  0
  -17.5017  -31.6272   24.5159 H   0  0  0  0  0  0
  -15.5350  -30.3005   23.7634 H   0  0  0  0  0  0
  -15.8656  -28.0848   22.7031 H   0  0  0  0  0  0
  -24.5904  -30.7049   25.7801 H   0  0  0  0  0  0
  -24.8958  -32.2837   26.4940 H   0  0  0  0  0  0
  -25.8113  -30.8830   27.0197 H   0  0  0  0  0  0
  -26.2819  -29.6814   24.1086 H   0  0  0  0  0  0
  -27.4127  -29.7265   25.4421 H   0  0  0  0  0  0
  -27.8612  -30.4395   23.9099 H   0  0  0  0  0  0
  -27.2656  -33.3569   26.2091 H   0  0  0  0  0  0
  -28.3821  -32.6902   25.0266 H   0  0  0  0  0  0
  -28.0746  -31.8387   26.5326 H   0  0  0  0  0  0
  -28.2610  -38.0106   24.7506 H   0  0  0  0  0  0
  -28.1073  -36.2639   24.6302 H   0  0  0  0  0  0
  -27.2304  -37.1477   25.8870 H   0  0  0  0  0  0
  -20.9259  -29.8743   21.6987 H   0  0  0  0  0  0
  -26.0201  -38.2879   24.1399 H   0  0  0  0  0  0
  -32.9555  -18.8697   22.0577 H   0  0  0  0  0  0
  -32.6244  -16.5424   21.3905 H   0  0  0  0  0  0
  -28.8811  -19.0295   23.5181 H   0  0  0  0  0  0
  -27.4307  -25.1660   24.9251 H   0  0  0  0  0  0
  -28.6627  -26.4194   25.1557 H   0  0  0  0  0  0
  -28.5773  -25.0546   26.2618 H   0  0  0  0  0  0
  -29.3818  -28.1794   22.6138 H   0  0  0  0  0  0
  -30.4974  -27.3867   21.5034 H   0  0  0  0  0  0
  -30.6362  -27.1384   23.2358 H   0  0  0  0  0  0
  -31.3413  -23.0771   23.2088 H   0  0  0  0  0  0
  -32.0200  -22.7335   24.7829 H   0  0  0  0  0  0
  -27.6734  -25.0668   20.8681 H   0  0  0  0  0  0
  -29.3630  -25.0479   20.4477 H   0  0  0  0  0  0
  -28.0273  -26.3381   22.8361 H   0  0  0  0  0  0
  -31.9879  -20.9263   22.7137 H   0  0  0  0  0  0
  -29.4491  -14.7098   22.1337 H   0  0  0  0  0  0
  -30.2246  -24.3959   22.4833 H   0  0  0  0  0  0
  -29.8856  -23.2844   25.8205 H   0  0  0  0  0  0
  1 25  1  0  0  0
  1 30  2  0  0  0
  1 85  1  0  0  0
  2  3  1  0  0  0
  2 25  1  0  0  0
  2 90  1  0  0  0
  2 91  1  0  0  0
  3  4  1  0  0  0
  3 92  1  0  0  0
  3 93  1  0  0  0
  4  5  1  0  0  0
  4 94  1  0  0  0
  4 95  1  0  0  0
  5  6  1  0  0  0
  5 26  1  0  0  0
  5 96  1  0  0  0
  6 25  1  0  0  0
  6 97  1  0  0  0
  6 98  1  0  0  0
  7  8  2  0  0  0
  7 26  1  0  0  0
  7 29  1  0  0  0
  8  9  1  0  0  0
  8 22  1  0  0  0
  9 10  1  0  0  0
  9 27  2  0  0  0
 10 11  2  0  0  0
 10 15  1  0  0  0
 11 12  1  0  0  0
 11 99  1  0  0  0
 12 13  2  0  0  0
 12100  1  0  0  0
 13 14  1  0  0  0
 13 31  1  0  0  0
 14 15  2  0  0  0
 14101  1  0  0  0
 15102  1  0  0  0
 16 17  2  0  0  0
 16 21  1  0  0  0
 16 31  1  0  0  0
 17 18  1  0  0  0
 17103  1  0  0  0
 18 19  2  0  0  0
 18104  1  0  0  0
 19 20  1  0  0  0
 19 24  1  0  0  0
 20 21  2  0  0  0
 20105  1  0  0  0
 21 23  1  0  0  0
 22 28  1  0  0  0
 22 32  2  0  0  0
 26 27  1  0  0  0
 28106  1  0  0  0
 28107  1  0  0  0
 29108  1  0  0  0
 29109  1  0  0  0
 33 34  1  0  0  0
 33 66  1  0  0  0
 33 70  2  0  0  0
 34 36  1  0  0  0
 34 59  1  0  0  0
 34110  1  0  0  0
 35 44  2  0  0  0
 35 45  1  0  0  0
 35 68  1  0  0  0
 36 56  1  0  0  0
 36111  1  0  0  0
 37 39  1  0  0  0
 37 47  1  0  0  0
 37 66  1  0  0  0
 37112  1  0  0  0
 38 43  2  0  0  0
 38 46  1  0  0  0
 38 47  1  0  0  0
 39 64  1  0  0  0
 39 67  2  0  0  0
 40 52  1  0  0  0
 40 53  2  0  0  0
 40 58  1  0  0  0
 41113  1  0  0  0
 41114  1  0  0  0
 41115  1  0  0  0
 41 48  1  0  0  0
 42 43  1  0  0  0
 42 66  1  0  0  0
 42116  1  0  0  0
 42117  1  0  0  0
 43 44  1  0  0  0
 44118  1  0  0  0
 45 46  2  0  0  0
 45119  1  0  0  0
 46120  1  0  0  0
 47121  1  0  0  0
 47122  1  0  0  0
 48 56  1  0  0  0
 48 65  1  0  0  0
 48123  1  0  0  0
 49 50  1  0  0  0
 49 53  1  0  0  0
 49 64  1  0  0  0
 49124  1  0  0  0
 50 51  1  0  0  0
 50125  1  0  0  0
 50126  1  0  0  0
 51 52  1  0  0  0
 51127  1  0  0  0
 51128  1  0  0  0
 52129  1  0  0  0
 52130  1  0  0  0
 53 54  1  0  0  0
 54 55  2  0  0  0
 54131  1  0  0  0
 55 57  1  0  0  0
 55132  1  0  0  0
 56 69  2  0  0  0
 57 58  2  0  0  0
 57133  1  0  0  0
 58134  1  0  0  0
 59 60  1  0  0  0
 59 61  1  0  0  0
 59 62  1  0  0  0
 60135  1  0  0  0
 60136  1  0  0  0
 60137  1  0  0  0
 61138  1  0  0  0
 61139  1  0  0  0
 61140  1  0  0  0
 62141  1  0  0  0
 62142  1  0  0  0
 62143  1  0  0  0
 63 65  1  0  0  0
 63144  1  0  0  0
 63145  1  0  0  0
 63146  1  0  0  0
 64147  1  0  0  0
 65148  1  0  0  0
 68 82  1  0  0  0
 71 72  2  0  0  0
 71 74  1  0  0  0
 71149  1  0  0  0
 72 75  1  0  0  0
 72150  1  0  0  0
 73 74  2  0  0  0
 73 76  1  0  0  0
 73151  1  0  0  0
 74 84  1  0  0  0
 75 76  2  0  0  0
 75 85  1  0  0  0
 76 89  1  0  0  0
 77 79  1  0  0  0
 77 86  1  0  0  0
 77 87  2  0  0  0
 78 81  1  0  0  0
 78 84  1  0  0  0
 78 88  2  0  0  0
 79152  1  0  0  0
 79153  1  0  0  0
 79154  1  0  0  0
 80155  1  0  0  0
 80156  1  0  0  0
 80157  1  0  0  0
 80 83  1  0  0  0
 81 87  1  0  0  0
 81158  1  0  0  0
 81159  1  0  0  0
 82 83  1  0  0  0
 82160  1  0  0  0
 82161  1  0  0  0
 83 86  1  0  0  0
 83162  1  0  0  0
 84163  1  0  0  0
 85164  1  0  0  0
 86165  1  0  0  0
 87166  1  0  0  0
M  CHG  1  87   1
M  ISO  4   1 100  68 101  82 101  85 100
M  END
> <chiral flag>
0

> <version>
0

> <s_m_source_file>
/data/baiqing/PycharmProjects/Reinvent-master-3.2/result/LINK_invent/BTK/process_docking_weight1_custom_sum_contain_oxygen_bond_distance_aromatic_linkinvent_7_9_3/rearranged_h_0011.sdf

> <i_m_source_file_index>
59

> <r_mmod_Potential_Energy-OPLS-2005>
-232.727294921875

> <r_mmod_Stretch_Energy-OPLS-2005>
32.9596786499023

> <r_mmod_Bend_Energy-OPLS-2005>
104.125305175781

> <r_mmod_Torsional_Energy-OPLS-2005>
245.411987304688

> <r_mmod_Improper_Torsional_Energy-OPLS-2005>
3.10563850402832

> <r_mmod_Van_der_Waal_Energy-OPLS-2005>
158.34651184082

> <r_mmod_Electrostatic_Energy-OPLS-2005>
-340.213317871094

> <r_mmod_Solvation_Energy-OPLS-2005>
-443.059387207031

> <b_mmod_Minimization_Converged-OPLS-2005>
0

> <r_mmod_RMS_Derivative-OPLS-2005>
0.877719938755035

$$$$
59
                    3D
 Structure written by MMmdl.
156164  0  0  1  0            999 V2000
  -30.5145  -14.9053   20.4324 C   0  0  0  0  0  0
  -30.4480  -12.5559   19.4968 C   0  0  0  0  0  0
  -29.5225  -12.5262   18.2565 C   0  0  0  0  0  0
  -28.0525  -12.3187   18.6708 C   0  0  0  0  0  0
  -27.6357  -13.2384   19.8480 C   0  0  2  0  0  0
  -28.6774  -13.2149   20.9872 C   0  0  0  0  0  0
  -25.2478  -13.8203   20.5714 C   0  0  0  0  0  0
  -24.1778  -13.0433   20.9213 C   0  0  0  0  0  0
  -24.6383  -11.6917   20.8750 C   0  0  0  0  0  0
  -23.9067  -10.4288   21.0405 C   0  0  0  0  0  0
  -24.3615   -9.4203   21.9183 C   0  0  0  0  0  0
  -23.6287   -8.2239   22.0750 C   0  0  0  0  0  0
  -22.4268   -8.0278   21.3540 C   0  0  0  0  0  0
  -21.9909   -9.0252   20.4644 C   0  0  0  0  0  0
  -22.7239  -10.2130   20.3053 C   0  0  0  0  0  0
  -21.6849   -6.0733   22.5276 C   0  0  0  0  0  0
  -21.4013   -6.5635   23.8213 C   0  0  0  0  0  0
  -21.3660   -5.6788   24.9175 C   0  0  0  0  0  0
  -21.6043   -4.3051   24.7227 C   0  0  0  0  0  0
  -21.8820   -3.8142   23.4345 C   0  0  0  0  0  0
  -21.9190   -4.6961   22.3401 C   0  0  0  0  0  0
  -22.7801  -13.5214   21.1878 C   0  0  0  0  0  0
  -22.1658   -4.2146   21.0979 F   0  0  0  0  0  0
  -21.5628   -3.4533   25.7741 F   0  0  0  0  0  0
  -29.9624  -13.6291   20.4068 N   0  0  0  0  0  0
  -26.2903  -12.9415   20.3273 N   0  0  0  0  0  0
  -25.9314  -11.6553   20.5746 N   0  0  0  0  0  0
  -22.0448  -12.8200   22.0436 N   0  0  0  0  0  0
  -25.4157  -15.1932   20.4175 N   0  0  0  0  0  0
  -31.6982  -15.0323   20.0975 O   0  0  0  0  0  0
  -21.6629   -6.8876   21.4239 O   0  0  0  0  0  0
  -22.3482  -14.5518   20.6730 O   0  0  0  0  0  0
  -24.6441  -31.8427   23.1870 C   0  0  0  0  0  0
  -25.9213  -32.4682   23.8258 C   0  0  1  0  0  0
  -27.2162  -27.1386   20.1368 C   0  0  0  0  0  0
  -25.5964  -33.8487   24.2177 N   0  0  0  0  0  0
  -23.4466  -30.4625   21.5321 C   0  0  2  0  0  0
  -24.8934  -28.8901   20.1055 C   0  0  0  0  0  0
  -22.7570  -29.4533   22.4841 C   0  0  0  0  0  0
  -18.0308  -28.1390   22.8463 C   0  0  0  0  0  0
  -24.1489  -36.7253   23.2640 C   0  0  0  0  0  0
  -26.0014  -30.7160   21.3849 C   0  0  0  0  0  0
  -26.0697  -29.3284   20.7245 C   0  0  0  0  0  0
  -27.2277  -28.4666   20.7255 C   0  0  0  0  0  0
  -26.0121  -26.8008   19.4782 C   0  0  0  0  0  0
  -24.8772  -27.6402   19.4691 C   0  0  0  0  0  0
  -23.6723  -29.7934   20.1501 C   0  0  0  0  0  0
  -25.4115  -36.3018   24.0315 C   0  0  1  0  0  0
  -20.5918  -28.3711   23.1228 C   0  0  2  0  0  0
  -20.6785  -26.9412   22.5402 C   0  0  0  0  0  0
  -19.5761  -26.6372   21.5202 C   0  0  0  0  0  0
  -18.1939  -26.7923   22.1611 C   0  0  0  0  0  0
  -19.1565  -28.8866   23.2836 C   0  0  0  0  0  0
  -18.9485  -30.1457   23.8869 C   0  0  0  0  0  0
  -17.6484  -30.6586   24.0553 C   0  0  0  0  0  0
  -25.9072  -34.9397   23.5050 C   0  0  0  0  0  0
  -16.5373  -29.9083   23.6331 C   0  0  0  0  0  0
  -16.7293  -28.6500   23.0354 C   0  0  0  0  0  0
  -26.4540  -31.6559   25.0706 C   0  0  0  0  0  0
  -25.3735  -31.3756   26.1412 C   0  0  0  0  0  0
  -27.0407  -30.2957   24.6281 C   0  0  0  0  0  0
  -27.6056  -32.4338   25.7503 C   0  0  0  0  0  0
  -27.5573  -37.1768   24.8460 C   0  0  0  0  0  0
  -21.4263  -29.3037   22.3601 N   0  0  0  0  0  0
  -26.4271  -37.3742   23.9423 N   0  0  0  0  0  0
  -24.7173  -31.0289   22.0898 N   0  0  0  0  0  0
  -23.4218  -28.8073   23.2981 O   0  0  0  0  0  0
  -28.2891  -26.1830   20.2480 O   0  0  0  0  0  0
  -26.5658  -34.8900   22.4632 O   0  0  0  0  0  0
  -23.5564  -32.1307   23.7099 O   0  0  0  0  0  0
  -30.4911  -19.7529   19.6377 C   0  0  0  0  0  0
  -30.6070  -18.3172   19.7976 C   0  0  0  0  0  0
  -28.5188  -19.7956   20.9110 C   0  0  0  0  0  0
  -29.4560  -20.6075   20.1846 C   0  0  0  0  0  0
  -29.6718  -17.5254   20.5240 C   0  0  0  0  0  0
  -28.6082  -18.3364   21.0674 C   0  0  0  0  0  0
  -30.7207  -22.5827   19.4845 C   0  0  0  0  0  0
  -26.4993  -18.2673   22.2398 C   0  0  0  0  0  0
  -28.5990  -23.2783   20.5718 C   0  0  0  0  0  0
  -28.3066  -24.7163   19.7278 C   0  0  0  0  0  0
  -29.6692  -16.0064   20.6966 N   0  0  0  0  0  0
  -29.4253  -22.0964   19.9700 N   0  0  0  0  0  0
  -27.6604  -17.6046   21.7559 O   0  0  0  0  0  0
  -31.4804  -12.7231   19.1865 H   0  0  0  0  0  0
  -30.4437  -11.5919   20.0079 H   0  0  0  0  0  0
  -29.8342  -11.7372   17.5710 H   0  0  0  0  0  0
  -29.6161  -13.4638   17.7063 H   0  0  0  0  0  0
  -27.9391  -11.2742   18.9643 H   0  0  0  0  0  0
  -27.3907  -12.4681   17.8165 H   0  0  0  0  0  0
  -27.6140  -14.2502   19.4422 H   0  0  0  0  0  0
  -28.7516  -12.2182   21.4245 H   0  0  0  0  0  0
  -28.3815  -13.8831   21.7970 H   0  0  0  0  0  0
  -25.2761   -9.5671   22.4760 H   0  0  0  0  0  0
  -23.9993   -7.4625   22.7463 H   0  0  0  0  0  0
  -21.0842   -8.8772   19.8947 H   0  0  0  0  0  0
  -22.3699  -10.9669   19.6160 H   0  0  0  0  0  0
  -21.2007   -7.6143   23.9716 H   0  0  0  0  0  0
  -21.1482   -6.0517   25.9079 H   0  0  0  0  0  0
  -22.0601   -2.7602   23.2847 H   0  0  0  0  0  0
  -22.4066  -11.9861   22.4822 H   0  0  0  0  0  0
  -21.1067  -13.1220   22.2650 H   0  0  0  0  0  0
  -24.6465  -15.8429   20.5353 H   0  0  0  0  0  0
  -26.2716  -15.6439   20.1207 H   0  0  0  0  0  0
  -26.7270  -32.5284   23.0981 H   0  0  0  0  0  0
  -25.0098  -33.9592   25.0317 H   0  0  0  0  0  0
  -22.7488  -31.2887   21.3778 H   0  0  0  0  0  0
  -23.3753  -35.9582   23.3280 H   0  0  0  0  0  0
  -24.3578  -36.8919   22.2059 H   0  0  0  0  0  0
  -23.7235  -37.6438   23.6700 H   0  0  0  0  0  0
  -26.1561  -31.4697   20.6121 H   0  0  0  0  0  0
  -26.8729  -30.7660   22.0265 H   0  0  0  0  0  0
  -28.1254  -28.7924   21.2322 H   0  0  0  0  0  0
  -25.8900  -25.8499   18.9875 H   0  0  0  0  0  0
  -23.9772  -27.2983   18.9755 H   0  0  0  0  0  0
  -23.8143  -30.5696   19.3965 H   0  0  0  0  0  0
  -22.7862  -29.2398   19.8353 H   0  0  0  0  0  0
  -25.1295  -36.1839   25.0803 H   0  0  0  0  0  0
  -21.0000  -28.3305   24.1355 H   0  0  0  0  0  0
  -20.5665  -26.2328   23.3623 H   0  0  0  0  0  0
  -21.6652  -26.7410   22.1206 H   0  0  0  0  0  0
  -19.6923  -25.6279   21.1245 H   0  0  0  0  0  0
  -19.6704  -27.3166   20.6715 H   0  0  0  0  0  0
  -17.4208  -26.6672   21.4015 H   0  0  0  0  0  0
  -18.0341  -26.0073   22.9013 H   0  0  0  0  0  0
  -19.7967  -30.7261   24.2247 H   0  0  0  0  0  0
  -17.5048  -31.6269   24.5150 H   0  0  0  0  0  0
  -15.5374  -30.2977   23.7672 H   0  0  0  0  0  0
  -15.8694  -28.0807   22.7093 H   0  0  0  0  0  0
  -24.5914  -30.7096   25.7753 H   0  0  0  0  0  0
  -24.8925  -32.2943   26.4779 H   0  0  0  0  0  0
  -25.8027  -30.8980   27.0231 H   0  0  0  0  0  0
  -26.3022  -29.6671   24.1290 H   0  0  0  0  0  0
  -27.4036  -29.7261   25.4849 H   0  0  0  0  0  0
  -27.8925  -30.4203   23.9589 H   0  0  0  0  0  0
  -27.2632  -33.3658   26.2015 H   0  0  0  0  0  0
  -28.3906  -32.6870   25.0364 H   0  0  0  0  0  0
  -28.0686  -31.8515   26.5484 H   0  0  0  0  0  0
  -28.2544  -38.0106   24.7533 H   0  0  0  0  0  0
  -28.1109  -36.2632   24.6243 H   0  0  0  0  0  0
  -27.2304  -37.1365   25.8865 H   0  0  0  0  0  0
  -20.9480  -29.8792   21.6813 H   0  0  0  0  0  0
  -26.0136  -38.2798   24.1469 H   0  0  0  0  0  0
  -31.2731  -20.1878   19.0350 H   0  0  0  0  0  0
  -31.4386  -17.8190   19.3195 H   0  0  0  0  0  0
  -27.6935  -20.3274   21.3578 H   0  0  0  0  0  0
  -30.8820  -22.3016   18.4430 H   0  0  0  0  0  0
  -31.5401  -22.1828   20.0846 H   0  0  0  0  0  0
  -30.8194  -23.6661   19.5425 H   0  0  0  0  0  0
  -25.8415  -17.5344   22.7081 H   0  0  0  0  0  0
  -25.9397  -18.7389   21.4306 H   0  0  0  0  0  0
  -26.7457  -19.0137   22.9958 H   0  0  0  0  0  0
  -27.6399  -22.8842   20.9106 H   0  0  0  0  0  0
  -29.1164  -23.5583   21.4905 H   0  0  0  0  0  0
  -27.4203  -24.5213   19.1323 H   0  0  0  0  0  0
  -29.0756  -24.7734   18.9592 H   0  0  0  0  0  0
  -28.7848  -15.6858   21.0624 H   0  0  0  0  0  0
  1 25  1  0  0  0
  1 30  2  0  0  0
  1 81  1  0  0  0
  2  3  1  0  0  0
  2 25  1  0  0  0
  2 84  1  0  0  0
  2 85  1  0  0  0
  3  4  1  0  0  0
  3 86  1  0  0  0
  3 87  1  0  0  0
  4  5  1  0  0  0
  4 88  1  0  0  0
  4 89  1  0  0  0
  5  6  1  0  0  0
  5 26  1  0  0  0
  5 90  1  0  0  0
  6 25  1  0  0  0
  6 91  1  0  0  0
  6 92  1  0  0  0
  7  8  2  0  0  0
  7 26  1  0  0  0
  7 29  1  0  0  0
  8  9  1  0  0  0
  8 22  1  0  0  0
  9 10  1  0  0  0
  9 27  2  0  0  0
 10 11  2  0  0  0
 10 15  1  0  0  0
 11 12  1  0  0  0
 11 93  1  0  0  0
 12 13  2  0  0  0
 12 94  1  0  0  0
 13 14  1  0  0  0
 13 31  1  0  0  0
 14 15  2  0  0  0
 14 95  1  0  0  0
 15 96  1  0  0  0
 16 17  2  0  0  0
 16 21  1  0  0  0
 16 31  1  0  0  0
 17 18  1  0  0  0
 17 97  1  0  0  0
 18 19  2  0  0  0
 18 98  1  0  0  0
 19 20  1  0  0  0
 19 24  1  0  0  0
 20 21  2  0  0  0
 20 99  1  0  0  0
 21 23  1  0  0  0
 22 28  1  0  0  0
 22 32  2  0  0  0
 26 27  1  0  0  0
 28100  1  0  0  0
 28101  1  0  0  0
 29102  1  0  0  0
 29103  1  0  0  0
 33 34  1  0  0  0
 33 66  1  0  0  0
 33 70  2  0  0  0
 34 36  1  0  0  0
 34 59  1  0  0  0
 34104  1  0  0  0
 35 44  2  0  0  0
 35 45  1  0  0  0
 35 68  1  0  0  0
 36 56  1  0  0  0
 36105  1  0  0  0
 37 39  1  0  0  0
 37 47  1  0  0  0
 37 66  1  0  0  0
 37106  1  0  0  0
 38 43  2  0  0  0
 38 46  1  0  0  0
 38 47  1  0  0  0
 39 64  1  0  0  0
 39 67  2  0  0  0
 40 52  1  0  0  0
 40 53  2  0  0  0
 40 58  1  0  0  0
 41107  1  0  0  0
 41108  1  0  0  0
 41109  1  0  0  0
 41 48  1  0  0  0
 42 43  1  0  0  0
 42 66  1  0  0  0
 42110  1  0  0  0
 42111  1  0  0  0
 43 44  1  0  0  0
 44112  1  0  0  0
 45 46  2  0  0  0
 45113  1  0  0  0
 46114  1  0  0  0
 47115  1  0  0  0
 47116  1  0  0  0
 48 56  1  0  0  0
 48 65  1  0  0  0
 48117  1  0  0  0
 49 50  1  0  0  0
 49 53  1  0  0  0
 49 64  1  0  0  0
 49118  1  0  0  0
 50 51  1  0  0  0
 50119  1  0  0  0
 50120  1  0  0  0
 51 52  1  0  0  0
 51121  1  0  0  0
 51122  1  0  0  0
 52123  1  0  0  0
 52124  1  0  0  0
 53 54  1  0  0  0
 54 55  2  0  0  0
 54125  1  0  0  0
 55 57  1  0  0  0
 55126  1  0  0  0
 56 69  2  0  0  0
 57 58  2  0  0  0
 57127  1  0  0  0
 58128  1  0  0  0
 59 60  1  0  0  0
 59 61  1  0  0  0
 59 62  1  0  0  0
 60129  1  0  0  0
 60130  1  0  0  0
 60131  1  0  0  0
 61132  1  0  0  0
 61133  1  0  0  0
 61134  1  0  0  0
 62135  1  0  0  0
 62136  1  0  0  0
 62137  1  0  0  0
 63 65  1  0  0  0
 63138  1  0  0  0
 63139  1  0  0  0
 63140  1  0  0  0
 64141  1  0  0  0
 65142  1  0  0  0
 68 80  1  0  0  0
 71 72  2  0  0  0
 71 74  1  0  0  0
 71143  1  0  0  0
 72 75  1  0  0  0
 72144  1  0  0  0
 73 74  2  0  0  0
 73 76  1  0  0  0
 73145  1  0  0  0
 74 82  1  0  0  0
 75 76  2  0  0  0
 75 81  1  0  0  0
 76 83  1  0  0  0
 77 82  1  0  0  0
 77146  1  0  0  0
 77147  1  0  0  0
 77148  1  0  0  0
 78 83  1  0  0  0
 78149  1  0  0  0
 78150  1  0  0  0
 78151  1  0  0  0
 79 80  1  0  0  0
 79 82  1  0  0  0
 79152  1  0  0  0
 79153  1  0  0  0
 80154  1  0  0  0
 80155  1  0  0  0
 81156  1  0  0  0
M  ISO  4   1 100  68 101  80 101  81 100
M  END
> <chiral flag>
0

> <version>
0

> <s_m_source_file>
/data/baiqing/PycharmProjects/Reinvent-master-3.2/result/LINK_invent/BTK/process_docking_weight1_custom_sum_contain_oxygen_bond_distance_aromatic_linkinvent_7_9_3/rearranged_h_0011.sdf

> <i_m_source_file_index>
60

> <r_mmod_Potential_Energy-OPLS-2005>
424.484832763672

> <r_mmod_Stretch_Energy-OPLS-2005>
228.331268310547

> <r_mmod_Bend_Energy-OPLS-2005>
292.592132568359

> <r_mmod_Torsional_Energy-OPLS-2005>
204.113418579102

> <r_mmod_Improper_Torsional_Energy-OPLS-2005>
4.99237012863159

> <r_mmod_Van_der_Waal_Energy-OPLS-2005>
147.752883911133

> <r_mmod_Electrostatic_Energy-OPLS-2005>
-400.192108154297

> <r_mmod_Solvation_Energy-OPLS-2005>
-227.937301635742

> <b_mmod_Minimization_Converged-OPLS-2005>
0

> <r_mmod_RMS_Derivative-OPLS-2005>
1.31793749332428

$$$$
60
                    3D
 Structure written by MMmdl.
151159  0  0  1  0            999 V2000
  -30.5111  -15.0566   20.4114 C   0  0  0  0  0  0
  -30.4398  -12.6667   19.4996 C   0  0  0  0  0  0
  -29.5220  -12.5363   18.2617 C   0  0  0  0  0  0
  -28.0619  -12.2976   18.6887 C   0  0  0  0  0  0
  -27.6191  -13.2541   19.8256 C   0  0  2  0  0  0
  -28.6611  -13.3441   20.9592 C   0  0  0  0  0  0
  -25.2415  -13.8219   20.5706 C   0  0  0  0  0  0
  -24.1756  -13.0433   20.9251 C   0  0  0  0  0  0
  -24.6389  -11.6923   20.8767 C   0  0  0  0  0  0
  -23.9078  -10.4293   21.0414 C   0  0  0  0  0  0
  -24.3621   -9.4205   21.9192 C   0  0  0  0  0  0
  -23.6296   -8.2241   22.0755 C   0  0  0  0  0  0
  -22.4277   -8.0282   21.3544 C   0  0  0  0  0  0
  -21.9920   -9.0254   20.4638 C   0  0  0  0  0  0
  -22.7253  -10.2134   20.3055 C   0  0  0  0  0  0
  -21.6852   -6.0738   22.5278 C   0  0  0  0  0  0
  -21.4011   -6.5638   23.8212 C   0  0  0  0  0  0
  -21.3659   -5.6791   24.9174 C   0  0  0  0  0  0
  -21.6043   -4.3054   24.7225 C   0  0  0  0  0  0
  -21.8817   -3.8146   23.4344 C   0  0  0  0  0  0
  -21.9191   -4.6964   22.3401 C   0  0  0  0  0  0
  -22.7774  -13.5198   21.1893 C   0  0  0  0  0  0
  -22.1660   -4.2151   21.0980 F   0  0  0  0  0  0
  -21.5628   -3.4537   25.7738 F   0  0  0  0  0  0
  -29.9179  -13.7868   20.3421 N   0  0  0  0  0  0
  -26.2835  -12.9462   20.3213 N   0  0  0  0  0  0
  -25.9320  -11.6583   20.5737 N   0  0  0  0  0  0
  -22.0425  -12.8185   22.0443 N   0  0  0  0  0  0
  -25.4056  -15.1950   20.4095 N   0  0  0  0  0  0
  -31.7318  -15.0800   20.2111 O   0  0  0  0  0  0
  -21.6639   -6.8881   21.4240 O   0  0  0  0  0  0
  -22.3462  -14.5509   20.6743 O   0  0  0  0  0  0
  -24.6506  -31.8378   23.1818 C   0  0  0  0  0  0
  -25.9246  -32.4663   23.8228 C   0  0  1  0  0  0
  -27.2130  -27.0624   20.1629 C   0  0  0  0  0  0
  -25.5967  -33.8469   24.2148 N   0  0  0  0  0  0
  -23.4574  -30.4552   21.5298 C   0  0  2  0  0  0
  -24.9077  -28.8698   20.1115 C   0  0  0  0  0  0
  -22.7601  -29.4516   22.4825 C   0  0  0  0  0  0
  -18.0313  -28.1407   22.8466 C   0  0  0  0  0  0
  -24.1491  -36.7243   23.2643 C   0  0  0  0  0  0
  -26.0177  -30.6904   21.3876 C   0  0  0  0  0  0
  -26.0892  -29.2925   20.7342 C   0  0  0  0  0  0
  -27.2429  -28.4079   20.7385 C   0  0  0  0  0  0
  -26.0034  -26.7644   19.4953 C   0  0  0  0  0  0
  -24.8815  -27.6217   19.4750 C   0  0  0  0  0  0
  -23.6893  -29.7826   20.1505 C   0  0  0  0  0  0
  -25.4123  -36.3011   24.0311 C   0  0  1  0  0  0
  -20.5929  -28.3742   23.1213 C   0  0  2  0  0  0
  -20.6801  -26.9439   22.5394 C   0  0  0  0  0  0
  -19.5775  -26.6395   21.5203 C   0  0  0  0  0  0
  -18.1954  -26.7943   22.1617 C   0  0  0  0  0  0
  -19.1572  -28.8888   23.2833 C   0  0  0  0  0  0
  -18.9484  -30.1476   23.8871 C   0  0  0  0  0  0
  -17.6485  -30.6597   24.0565 C   0  0  0  0  0  0
  -25.9083  -34.9389   23.5046 C   0  0  0  0  0  0
  -16.5375  -29.9094   23.6336 C   0  0  0  0  0  0
  -16.7299  -28.6512   23.0354 C   0  0  0  0  0  0
  -26.4547  -31.6539   25.0683 C   0  0  0  0  0  0
  -25.3718  -31.3717   26.1364 C   0  0  0  0  0  0
  -27.0420  -30.2941   24.6268 C   0  0  0  0  0  0
  -27.6072  -32.4303   25.7482 C   0  0  0  0  0  0
  -27.5570  -37.1777   24.8465 C   0  0  0  0  0  0
  -21.4284  -29.3064   22.3583 N   0  0  0  0  0  0
  -26.4276  -37.3736   23.9410 N   0  0  0  0  0  0
  -24.7295  -31.0159   22.0891 N   0  0  0  0  0  0
  -23.4209  -28.8059   23.2995 O   0  0  0  0  0  0
  -28.2381  -26.0233   20.2236 O   0  0  0  0  0  0
  -26.5677  -34.8907   22.4631 O   0  0  0  0  0  0
  -23.5609  -32.1284   23.7004 O   0  0  0  0  0  0
  -31.2633  -18.1142   21.2348 C   0  0  0  0  0  0
  -29.2106  -19.0373   20.3475 C   0  0  0  0  0  0
  -31.6216  -19.4286   21.6145 C   0  0  0  0  0  0
  -30.0338  -17.7994   20.6285 C   0  0  0  0  0  0
  -29.5585  -20.4769   20.6644 C   0  0  0  0  0  0
  -30.7857  -20.5618   21.3940 C   0  0  0  0  0  0
  -28.9914  -23.2004   20.2383 C   0  0  0  0  0  0
  -32.9524  -19.6069   22.3325 C   0  0  0  0  0  0
  -27.8804  -24.4706   20.2342 C   0  0  0  0  0  0
  -28.7153  -21.7867   20.4257 N   0  0  0  0  0  0
  -29.7298  -16.2761   20.4370 N   0  0  0  0  0  0
  -30.1445  -23.5377   19.9604 O   0  0  0  0  0  0
  -31.2704  -22.0278   22.1855 Cl  0  0  0  0  0  0
  -31.4655  -12.8485   19.1758 H   0  0  0  0  0  0
  -30.4670  -11.7353   20.0676 H   0  0  0  0  0  0
  -29.8633  -11.7234   17.6193 H   0  0  0  0  0  0
  -29.5830  -13.4471   17.6639 H   0  0  0  0  0  0
  -27.9866  -11.2647   19.0314 H   0  0  0  0  0  0
  -27.3932  -12.3835   17.8312 H   0  0  0  0  0  0
  -27.5614  -14.2396   19.3634 H   0  0  0  0  0  0
  -28.7805  -12.3864   21.4678 H   0  0  0  0  0  0
  -28.3413  -14.0622   21.7159 H   0  0  0  0  0  0
  -25.2756   -9.5685   22.4780 H   0  0  0  0  0  0
  -23.9994   -7.4636   22.7480 H   0  0  0  0  0  0
  -21.0854   -8.8772   19.8947 H   0  0  0  0  0  0
  -22.3706  -10.9671   19.6167 H   0  0  0  0  0  0
  -21.2005   -7.6145   23.9714 H   0  0  0  0  0  0
  -21.1482   -6.0522   25.9077 H   0  0  0  0  0  0
  -22.0596   -2.7608   23.2843 H   0  0  0  0  0  0
  -22.4039  -11.9838   22.4819 H   0  0  0  0  0  0
  -21.1035  -13.1192   22.2639 H   0  0  0  0  0  0
  -24.6279  -15.8394   20.5060 H   0  0  0  0  0  0
  -26.2371  -15.6337   20.0361 H   0  0  0  0  0  0
  -26.7301  -32.5261   23.0939 H   0  0  0  0  0  0
  -25.0084  -33.9566   25.0282 H   0  0  0  0  0  0
  -22.7645  -31.2837   21.3692 H   0  0  0  0  0  0
  -23.3765  -35.9563   23.3281 H   0  0  0  0  0  0
  -24.3574  -36.8918   22.2061 H   0  0  0  0  0  0
  -23.7235  -37.6425   23.6711 H   0  0  0  0  0  0
  -26.1696  -31.4365   20.6065 H   0  0  0  0  0  0
  -26.8899  -30.7541   22.0259 H   0  0  0  0  0  0
  -28.1415  -28.7270   21.2473 H   0  0  0  0  0  0
  -25.8841  -25.8185   18.9911 H   0  0  0  0  0  0
  -23.9818  -27.2954   18.9709 H   0  0  0  0  0  0
  -23.8361  -30.5568   19.3964 H   0  0  0  0  0  0
  -22.8022  -29.2305   19.8351 H   0  0  0  0  0  0
  -25.1308  -36.1830   25.0801 H   0  0  0  0  0  0
  -21.0015  -28.3348   24.1340 H   0  0  0  0  0  0
  -20.5703  -26.2353   23.3614 H   0  0  0  0  0  0
  -21.6661  -26.7452   22.1179 H   0  0  0  0  0  0
  -19.6945  -25.6302   21.1244 H   0  0  0  0  0  0
  -19.6716  -27.3195   20.6723 H   0  0  0  0  0  0
  -17.4217  -26.6684   21.4021 H   0  0  0  0  0  0
  -18.0358  -26.0088   22.9015 H   0  0  0  0  0  0
  -19.7963  -30.7280   24.2246 H   0  0  0  0  0  0
  -17.5046  -31.6275   24.5165 H   0  0  0  0  0  0
  -15.5377  -30.2987   23.7675 H   0  0  0  0  0  0
  -15.8699  -28.0824   22.7083 H   0  0  0  0  0  0
  -24.5956  -30.7005   25.7667 H   0  0  0  0  0  0
  -24.8837  -32.2880   26.4691 H   0  0  0  0  0  0
  -25.7993  -30.8963   27.0203 H   0  0  0  0  0  0
  -26.3038  -29.6648   24.1287 H   0  0  0  0  0  0
  -27.4061  -29.7248   25.4829 H   0  0  0  0  0  0
  -27.8932  -30.4178   23.9572 H   0  0  0  0  0  0
  -27.2698  -33.3677   26.1916 H   0  0  0  0  0  0
  -28.3967  -32.6733   25.0356 H   0  0  0  0  0  0
  -28.0638  -31.8503   26.5515 H   0  0  0  0  0  0
  -28.2550  -38.0105   24.7523 H   0  0  0  0  0  0
  -28.1102  -36.2631   24.6275 H   0  0  0  0  0  0
  -27.2286  -37.1397   25.8867 H   0  0  0  0  0  0
  -20.9505  -29.8782   21.6758 H   0  0  0  0  0  0
  -26.0143  -38.2800   24.1440 H   0  0  0  0  0  0
  -31.9453  -17.3123   21.4779 H   0  0  0  0  0  0
  -28.2534  -18.8769   19.8746 H   0  0  0  0  0  0
  -33.5352  -18.6857   22.3538 H   0  0  0  0  0  0
  -32.7934  -19.9222   23.3646 H   0  0  0  0  0  0
  -33.5558  -20.3626   21.8279 H   0  0  0  0  0  0
  -27.2262  -24.3106   21.0918 H   0  0  0  0  0  0
  -27.2676  -24.2680   19.3581 H   0  0  0  0  0  0
  -27.7193  -21.6135   20.4285 H   0  0  0  0  0  0
  -28.7447  -16.0779   20.3477 H   0  0  0  0  0  0
  1 25  1  0  0  0
  1 30  2  0  0  0
  1 81  1  0  0  0
  2  3  1  0  0  0
  2 25  1  0  0  0
  2 84  1  0  0  0
  2 85  1  0  0  0
  3  4  1  0  0  0
  3 86  1  0  0  0
  3 87  1  0  0  0
  4  5  1  0  0  0
  4 88  1  0  0  0
  4 89  1  0  0  0
  5  6  1  0  0  0
  5 26  1  0  0  0
  5 90  1  0  0  0
  6 25  1  0  0  0
  6 91  1  0  0  0
  6 92  1  0  0  0
  7  8  2  0  0  0
  7 26  1  0  0  0
  7 29  1  0  0  0
  8  9  1  0  0  0
  8 22  1  0  0  0
  9 10  1  0  0  0
  9 27  2  0  0  0
 10 11  2  0  0  0
 10 15  1  0  0  0
 11 12  1  0  0  0
 11 93  1  0  0  0
 12 13  2  0  0  0
 12 94  1  0  0  0
 13 14  1  0  0  0
 13 31  1  0  0  0
 14 15  2  0  0  0
 14 95  1  0  0  0
 15 96  1  0  0  0
 16 17  2  0  0  0
 16 21  1  0  0  0
 16 31  1  0  0  0
 17 18  1  0  0  0
 17 97  1  0  0  0
 18 19  2  0  0  0
 18 98  1  0  0  0
 19 20  1  0  0  0
 19 24  1  0  0  0
 20 21  2  0  0  0
 20 99  1  0  0  0
 21 23  1  0  0  0
 22 28  1  0  0  0
 22 32  2  0  0  0
 26 27  1  0  0  0
 28100  1  0  0  0
 28101  1  0  0  0
 29102  1  0  0  0
 29103  1  0  0  0
 33 34  1  0  0  0
 33 66  1  0  0  0
 33 70  2  0  0  0
 34 36  1  0  0  0
 34 59  1  0  0  0
 34104  1  0  0  0
 35 44  2  0  0  0
 35 45  1  0  0  0
 35 68  1  0  0  0
 36 56  1  0  0  0
 36105  1  0  0  0
 37 39  1  0  0  0
 37 47  1  0  0  0
 37 66  1  0  0  0
 37106  1  0  0  0
 38 43  2  0  0  0
 38 46  1  0  0  0
 38 47  1  0  0  0
 39 64  1  0  0  0
 39 67  2  0  0  0
 40 52  1  0  0  0
 40 53  2  0  0  0
 40 58  1  0  0  0
 41107  1  0  0  0
 41108  1  0  0  0
 41109  1  0  0  0
 41 48  1  0  0  0
 42 43  1  0  0  0
 42 66  1  0  0  0
 42110  1  0  0  0
 42111  1  0  0  0
 43 44  1  0  0  0
 44112  1  0  0  0
 45 46  2  0  0  0
 45113  1  0  0  0
 46114  1  0  0  0
 47115  1  0  0  0
 47116  1  0  0  0
 48 56  1  0  0  0
 48 65  1  0  0  0
 48117  1  0  0  0
 49 50  1  0  0  0
 49 53  1  0  0  0
 49 64  1  0  0  0
 49118  1  0  0  0
 50 51  1  0  0  0
 50119  1  0  0  0
 50120  1  0  0  0
 51 52  1  0  0  0
 51121  1  0  0  0
 51122  1  0  0  0
 52123  1  0  0  0
 52124  1  0  0  0
 53 54  1  0  0  0
 54 55  2  0  0  0
 54125  1  0  0  0
 55 57  1  0  0  0
 55126  1  0  0  0
 56 69  2  0  0  0
 57 58  2  0  0  0
 57127  1  0  0  0
 58128  1  0  0  0
 59 60  1  0  0  0
 59 61  1  0  0  0
 59 62  1  0  0  0
 60129  1  0  0  0
 60130  1  0  0  0
 60131  1  0  0  0
 61132  1  0  0  0
 61133  1  0  0  0
 61134  1  0  0  0
 62135  1  0  0  0
 62136  1  0  0  0
 62137  1  0  0  0
 63 65  1  0  0  0
 63138  1  0  0  0
 63139  1  0  0  0
 63140  1  0  0  0
 64141  1  0  0  0
 65142  1  0  0  0
 68 79  1  0  0  0
 71 73  2  0  0  0
 71 74  1  0  0  0
 71143  1  0  0  0
 72 74  2  0  0  0
 72 75  1  0  0  0
 72144  1  0  0  0
 73 76  1  0  0  0
 73 78  1  0  0  0
 74 81  1  0  0  0
 75 76  2  0  0  0
 75 80  1  0  0  0
 76 83  1  0  0  0
 77 79  1  0  0  0
 77 80  1  0  0  0
 77 82  2  0  0  0
 78145  1  0  0  0
 78146  1  0  0  0
 78147  1  0  0  0
 79148  1  0  0  0
 79149  1  0  0  0
 80150  1  0  0  0
 81151  1  0  0  0
M  ISO  4   1 100  68 101  79 101  81 100
M  END
> <chiral flag>
0

> <version>
0

> <s_m_source_file>
/data/baiqing/PycharmProjects/Reinvent-master-3.2/result/LINK_invent/BTK/process_docking_weight1_custom_sum_contain_oxygen_bond_distance_aromatic_linkinvent_7_9_3/rearranged_h_0011.sdf

> <i_m_source_file_index>
61

> <r_mmod_Potential_Energy-OPLS-2005>
677.935241699219

> <r_mmod_Stretch_Energy-OPLS-2005>
350.303497314453

> <r_mmod_Bend_Energy-OPLS-2005>
274.354339599609

> <r_mmod_Torsional_Energy-OPLS-2005>
242.703063964844

> <r_mmod_Improper_Torsional_Energy-OPLS-2005>
7.8297004699707

> <r_mmod_Van_der_Waal_Energy-OPLS-2005>
143.313537597656

> <r_mmod_Electrostatic_Energy-OPLS-2005>
-359.522735595703

> <r_mmod_Solvation_Energy-OPLS-2005>
-254.280426025391

> <b_mmod_Minimization_Converged-OPLS-2005>
0

> <r_mmod_RMS_Derivative-OPLS-2005>
1.40960967540741

$$$$
61
                    3D
 Structure written by MMmdl.
165173  0  0  1  0            999 V2000
  -30.5957  -14.6553   20.4762 C   0  0  0  0  0  0
  -30.4436  -12.3949   19.4491 C   0  0  0  0  0  0
  -29.5097  -12.4877   18.2219 C   0  0  0  0  0  0
  -28.0297  -12.3384   18.6328 C   0  0  0  0  0  0
  -27.6512  -13.2102   19.8591 C   0  0  2  0  0  0
  -28.6976  -13.0700   20.9864 C   0  0  0  0  0  0
  -25.2577  -13.8140   20.5720 C   0  0  0  0  0  0
  -24.1831  -13.0417   20.9204 C   0  0  0  0  0  0
  -24.6390  -11.6889   20.8745 C   0  0  0  0  0  0
  -23.9057  -10.4280   21.0413 C   0  0  0  0  0  0
  -24.3610   -9.4197   21.9187 C   0  0  0  0  0  0
  -23.6286   -8.2236   22.0759 C   0  0  0  0  0  0
  -22.4270   -8.0278   21.3547 C   0  0  0  0  0  0
  -21.9905   -9.0248   20.4647 C   0  0  0  0  0  0
  -22.7232  -10.2126   20.3055 C   0  0  0  0  0  0
  -21.6848   -6.0734   22.5281 C   0  0  0  0  0  0
  -21.4013   -6.5640   23.8214 C   0  0  0  0  0  0
  -21.3658   -5.6792   24.9176 C   0  0  0  0  0  0
  -21.6042   -4.3055   24.7224 C   0  0  0  0  0  0
  -21.8818   -3.8149   23.4346 C   0  0  0  0  0  0
  -21.9192   -4.6963   22.3401 C   0  0  0  0  0  0
  -22.7859  -13.5223   21.1865 C   0  0  0  0  0  0
  -22.1660   -4.2149   21.0978 F   0  0  0  0  0  0
  -21.5629   -3.4538   25.7738 F   0  0  0  0  0  0
  -30.0087  -13.4193   20.4172 N   0  0  0  0  0  0
  -26.2982  -12.9312   20.3302 N   0  0  0  0  0  0
  -25.9312  -11.6475   20.5744 N   0  0  0  0  0  0
  -22.0492  -12.8210   22.0408 N   0  0  0  0  0  0
  -25.4309  -15.1853   20.4203 N   0  0  0  0  0  0
  -31.7708  -14.8307   20.1396 O   0  0  0  0  0  0
  -21.6634   -6.8876   21.4245 O   0  0  0  0  0  0
  -22.3543  -14.5529   20.6715 O   0  0  0  0  0  0
  -24.6251  -31.8596   23.2023 C   0  0  0  0  0  0
  -25.9098  -32.4782   23.8355 C   0  0  1  0  0  0
  -27.2297  -27.3290   20.1228 C   0  0  0  0  0  0
  -25.5916  -33.8583   24.2281 N   0  0  0  0  0  0
  -23.4190  -30.4814   21.5450 C   0  0  2  0  0  0
  -24.8669  -28.9334   20.1153 C   0  0  0  0  0  0
  -22.7464  -29.4622   22.4947 C   0  0  0  0  0  0
  -18.0282  -28.1390   22.8501 C   0  0  0  0  0  0
  -24.1485  -36.7292   23.2641 C   0  0  0  0  0  0
  -25.9581  -30.7949   21.3703 C   0  0  0  0  0  0
  -26.0347  -29.4213   20.7160 C   0  0  0  0  0  0
  -27.2214  -28.6316   20.7065 C   0  0  0  0  0  0
  -26.0429  -26.8897   19.4975 C   0  0  0  0  0  0
  -24.8722  -27.6727   19.4964 C   0  0  0  0  0  0
  -23.6335  -29.8119   20.1620 C   0  0  0  0  0  0
  -25.4114  -36.3086   24.0329 C   0  0  1  0  0  0
  -20.5880  -28.3693   23.1296 C   0  0  2  0  0  0
  -20.6768  -26.9417   22.5422 C   0  0  0  0  0  0
  -19.5743  -26.6391   21.5223 C   0  0  0  0  0  0
  -18.1921  -26.7936   22.1630 C   0  0  0  0  0  0
  -19.1534  -28.8858   23.2891 C   0  0  0  0  0  0
  -18.9459  -30.1461   23.8907 C   0  0  0  0  0  0
  -17.6458  -30.6593   24.0573 C   0  0  0  0  0  0
  -25.9049  -34.9455   23.5105 C   0  0  0  0  0  0
  -16.5349  -29.9096   23.6334 C   0  0  0  0  0  0
  -16.7268  -28.6510   23.0360 C   0  0  0  0  0  0
  -26.4492  -31.6593   25.0724 C   0  0  0  0  0  0
  -25.3730  -31.3719   26.1451 C   0  0  0  0  0  0
  -27.0345  -30.3025   24.6170 C   0  0  0  0  0  0
  -27.6048  -32.4334   25.7496 C   0  0  0  0  0  0
  -27.5581  -37.1799   24.8463 C   0  0  0  0  0  0
  -21.4179  -29.3043   22.3689 N   0  0  0  0  0  0
  -26.4289  -37.3784   23.9414 N   0  0  0  0  0  0
  -24.6862  -31.0613   22.0970 N   0  0  0  0  0  0
  -23.4186  -28.8167   23.3032 O   0  0  0  0  0  0
  -28.3576  -26.4997   20.1277 O   0  0  0  0  0  0
  -26.5621  -34.8922   22.4674 O   0  0  0  0  0  0
  -23.5417  -32.1385   23.7361 O   0  0  0  0  0  0
  -28.8877  -19.1137   19.2921 C   0  0  0  0  0  0
  -30.5716  -18.0317   21.2381 C   0  0  0  0  0  0
  -28.9507  -17.6969   19.4715 C   0  0  0  0  0  0
  -29.6385  -20.0265   20.0754 C   0  0  0  0  0  0
  -29.8139  -17.1213   20.4519 C   0  0  0  0  0  0
  -30.4929  -19.4485   21.0571 C   0  0  0  0  0  0
  -29.0047  -22.4753   20.3869 C   0  0  0  0  0  0
  -29.2614  -17.1641   16.4146 C   0  0  0  0  0  0
  -30.3388  -21.7537   18.4616 C   0  0  0  0  0  0
  -26.8201  -17.3206   18.3404 C   0  0  0  0  0  0
  -29.0780  -23.9734   19.8566 C   0  0  0  0  0  0
  -28.9194  -16.2130   17.5716 C   0  0  0  0  0  0
  -28.1945  -25.0917   20.5620 C   0  0  0  0  0  0
  -29.7422  -15.6896   20.7454 N   0  0  0  0  0  0
  -29.6515  -21.4502   19.7196 N   0  0  0  0  0  0
  -28.1707  -16.8552   18.6524 N   0  0  0  0  0  0
  -28.3579  -22.2523   21.4143 O   0  0  0  0  0  0
  -31.4991  -20.4611   22.0307 Cl  0  0  0  0  0  0
  -31.4827  -12.5337   19.1447 H   0  0  0  0  0  0
  -30.3907  -11.4032   19.9001 H   0  0  0  0  0  0
  -29.7710  -11.7195   17.4926 H   0  0  0  0  0  0
  -29.6594  -13.4417   17.7179 H   0  0  0  0  0  0
  -27.8599  -11.2865   18.8637 H   0  0  0  0  0  0
  -27.3787  -12.5714   17.7901 H   0  0  0  0  0  0
  -27.6635  -14.2423   19.5140 H   0  0  0  0  0  0
  -28.7143  -12.0498   21.3715 H   0  0  0  0  0  0
  -28.4447  -13.7036   21.8383 H   0  0  0  0  0  0
  -25.2760   -9.5667   22.4753 H   0  0  0  0  0  0
  -23.9993   -7.4624   22.7475 H   0  0  0  0  0  0
  -21.0839   -8.8766   19.8947 H   0  0  0  0  0  0
  -22.3700  -10.9665   19.6159 H   0  0  0  0  0  0
  -21.2009   -7.6149   23.9714 H   0  0  0  0  0  0
  -21.1482   -6.0527   25.9076 H   0  0  0  0  0  0
  -22.0601   -2.7610   23.2851 H   0  0  0  0  0  0
  -22.4115  -11.9867   22.4779 H   0  0  0  0  0  0
  -21.1108  -13.1230   22.2613 H   0  0  0  0  0  0
  -24.6625  -15.8373   20.5295 H   0  0  0  0  0  0
  -26.2701  -15.6159   20.0488 H   0  0  0  0  0  0
  -26.7169  -32.5460   23.1110 H   0  0  0  0  0  0
  -25.0064  -33.9731   25.0426 H   0  0  0  0  0  0
  -22.7136  -31.3021   21.4000 H   0  0  0  0  0  0
  -23.3753  -35.9617   23.3300 H   0  0  0  0  0  0
  -24.3573  -36.8921   22.2055 H   0  0  0  0  0  0
  -23.7227  -37.6488   23.6669 H   0  0  0  0  0  0
  -26.0830  -31.5570   20.5998 H   0  0  0  0  0  0
  -26.8408  -30.8484   21.9964 H   0  0  0  0  0  0
  -28.1214  -29.0046   21.1749 H   0  0  0  0  0  0
  -26.0131  -25.9282   19.0052 H   0  0  0  0  0  0
  -23.9788  -27.2958   19.0180 H   0  0  0  0  0  0
  -23.7501  -30.5856   19.4022 H   0  0  0  0  0  0
  -22.7546  -29.2377   19.8629 H   0  0  0  0  0  0
  -25.1289  -36.1942   25.0820 H   0  0  0  0  0  0
  -20.9975  -28.3268   24.1415 H   0  0  0  0  0  0
  -20.5679  -26.2298   23.3617 H   0  0  0  0  0  0
  -21.6636  -26.7451   22.1212 H   0  0  0  0  0  0
  -19.6904  -25.6305   21.1245 H   0  0  0  0  0  0
  -19.6678  -27.3210   20.6758 H   0  0  0  0  0  0
  -17.4193  -26.6706   21.4024 H   0  0  0  0  0  0
  -18.0304  -26.0071   22.9017 H   0  0  0  0  0  0
  -19.7930  -30.7283   24.2275 H   0  0  0  0  0  0
  -17.5008  -31.6270   24.5180 H   0  0  0  0  0  0
  -15.5350  -30.3004   23.7646 H   0  0  0  0  0  0
  -15.8669  -28.0831   22.7076 H   0  0  0  0  0  0
  -24.5912  -30.7061   25.7780 H   0  0  0  0  0  0
  -24.8911  -32.2879   26.4876 H   0  0  0  0  0  0
  -25.8057  -30.8902   27.0228 H   0  0  0  0  0  0
  -26.2922  -29.6768   24.1203 H   0  0  0  0  0  0
  -27.4066  -29.7287   25.4668 H   0  0  0  0  0  0
  -27.8774  -30.4327   23.9380 H   0  0  0  0  0  0
  -27.2656  -33.3641   26.2060 H   0  0  0  0  0  0
  -28.3862  -32.6887   25.0325 H   0  0  0  0  0  0
  -28.0712  -31.8469   26.5424 H   0  0  0  0  0  0
  -28.2589  -38.0105   24.7533 H   0  0  0  0  0  0
  -28.1089  -36.2639   24.6268 H   0  0  0  0  0  0
  -27.2300  -37.1427   25.8865 H   0  0  0  0  0  0
  -20.9357  -29.8761   21.6897 H   0  0  0  0  0  0
  -26.0170  -38.2855   24.1438 H   0  0  0  0  0  0
  -28.2685  -19.5242   18.5085 H   0  0  0  0  0  0
  -31.2170  -17.6443   22.0123 H   0  0  0  0  0  0
  -29.8222  -16.6354   15.6432 H   0  0  0  0  0  0
  -29.8784  -18.0001   16.7447 H   0  0  0  0  0  0
  -28.3680  -17.5687   15.9390 H   0  0  0  0  0  0
  -30.8679  -20.8816   18.0745 H   0  0  0  0  0  0
  -31.0839  -22.5392   18.5924 H   0  0  0  0  0  0
  -29.6295  -22.0652   17.6939 H   0  0  0  0  0  0
  -26.3312  -17.7404   19.2212 H   0  0  0  0  0  0
  -26.2055  -16.4941   17.9808 H   0  0  0  0  0  0
  -26.8236  -18.0849   17.5628 H   0  0  0  0  0  0
  -28.8147  -23.9715   18.7994 H   0  0  0  0  0  0
  -30.1216  -24.2826   19.9111 H   0  0  0  0  0  0
  -29.8448  -15.7862   17.9580 H   0  0  0  0  0  0
  -28.3355  -15.3741   17.1896 H   0  0  0  0  0  0
  -28.4325  -25.0812   21.6262 H   0  0  0  0  0  0
  -27.1536  -24.7742   20.5151 H   0  0  0  0  0  0
  -28.7965  -15.3611   20.8629 H   0  0  0  0  0  0
  1 25  1  0  0  0
  1 30  2  0  0  0
  1 84  1  0  0  0
  2  3  1  0  0  0
  2 25  1  0  0  0
  2 89  1  0  0  0
  2 90  1  0  0  0
  3  4  1  0  0  0
  3 91  1  0  0  0
  3 92  1  0  0  0
  4  5  1  0  0  0
  4 93  1  0  0  0
  4 94  1  0  0  0
  5  6  1  0  0  0
  5 26  1  0  0  0
  5 95  1  0  0  0
  6 25  1  0  0  0
  6 96  1  0  0  0
  6 97  1  0  0  0
  7  8  2  0  0  0
  7 26  1  0  0  0
  7 29  1  0  0  0
  8  9  1  0  0  0
  8 22  1  0  0  0
  9 10  1  0  0  0
  9 27  2  0  0  0
 10 11  2  0  0  0
 10 15  1  0  0  0
 11 12  1  0  0  0
 11 98  1  0  0  0
 12 13  2  0  0  0
 12 99  1  0  0  0
 13 14  1  0  0  0
 13 31  1  0  0  0
 14 15  2  0  0  0
 14100  1  0  0  0
 15101  1  0  0  0
 16 17  2  0  0  0
 16 21  1  0  0  0
 16 31  1  0  0  0
 17 18  1  0  0  0
 17102  1  0  0  0
 18 19  2  0  0  0
 18103  1  0  0  0
 19 20  1  0  0  0
 19 24  1  0  0  0
 20 21  2  0  0  0
 20104  1  0  0  0
 21 23  1  0  0  0
 22 28  1  0  0  0
 22 32  2  0  0  0
 26 27  1  0  0  0
 28105  1  0  0  0
 28106  1  0  0  0
 29107  1  0  0  0
 29108  1  0  0  0
 33 34  1  0  0  0
 33 66  1  0  0  0
 33 70  2  0  0  0
 34 36  1  0  0  0
 34 59  1  0  0  0
 34109  1  0  0  0
 35 44  2  0  0  0
 35 45  1  0  0  0
 35 68  1  0  0  0
 36 56  1  0  0  0
 36110  1  0  0  0
 37 39  1  0  0  0
 37 47  1  0  0  0
 37 66  1  0  0  0
 37111  1  0  0  0
 38 43  2  0  0  0
 38 46  1  0  0  0
 38 47  1  0  0  0
 39 64  1  0  0  0
 39 67  2  0  0  0
 40 52  1  0  0  0
 40 53  2  0  0  0
 40 58  1  0  0  0
 41112  1  0  0  0
 41113  1  0  0  0
 41114  1  0  0  0
 41 48  1  0  0  0
 42 43  1  0  0  0
 42 66  1  0  0  0
 42115  1  0  0  0
 42116  1  0  0  0
 43 44  1  0  0  0
 44117  1  0  0  0
 45 46  2  0  0  0
 45118  1  0  0  0
 46119  1  0  0  0
 47120  1  0  0  0
 47121  1  0  0  0
 48 56  1  0  0  0
 48 65  1  0  0  0
 48122  1  0  0  0
 49 50  1  0  0  0
 49 53  1  0  0  0
 49 64  1  0  0  0
 49123  1  0  0  0
 50 51  1  0  0  0
 50124  1  0  0  0
 50125  1  0  0  0
 51 52  1  0  0  0
 51126  1  0  0  0
 51127  1  0  0  0
 52128  1  0  0  0
 52129  1  0  0  0
 53 54  1  0  0  0
 54 55  2  0  0  0
 54130  1  0  0  0
 55 57  1  0  0  0
 55131  1  0  0  0
 56 69  2  0  0  0
 57 58  2  0  0  0
 57132  1  0  0  0
 58133  1  0  0  0
 59 60  1  0  0  0
 59 61  1  0  0  0
 59 62  1  0  0  0
 60134  1  0  0  0
 60135  1  0  0  0
 60136  1  0  0  0
 61137  1  0  0  0
 61138  1  0  0  0
 61139  1  0  0  0
 62140  1  0  0  0
 62141  1  0  0  0
 62142  1  0  0  0
 63 65  1  0  0  0
 63143  1  0  0  0
 63144  1  0  0  0
 63145  1  0  0  0
 64146  1  0  0  0
 65147  1  0  0  0
 68 83  1  0  0  0
 71 73  2  0  0  0
 71 74  1  0  0  0
 71148  1  0  0  0
 72 75  2  0  0  0
 72 76  1  0  0  0
 72149  1  0  0  0
 73 75  1  0  0  0
 73 86  1  0  0  0
 74 76  2  0  0  0
 74 85  1  0  0  0
 75 84  1  0  0  0
 76 88  1  0  0  0
 77 81  1  0  0  0
 77 85  1  0  0  0
 77 87  2  0  0  0
 78 82  1  0  0  0
 78150  1  0  0  0
 78151  1  0  0  0
 78152  1  0  0  0
 79 85  1  0  0  0
 79153  1  0  0  0
 79154  1  0  0  0
 79155  1  0  0  0
 80 86  1  0  0  0
 80156  1  0  0  0
 80157  1  0  0  0
 80158  1  0  0  0
 81 83  1  0  0  0
 81159  1  0  0  0
 81160  1  0  0  0
 82 86  1  0  0  0
 82161  1  0  0  0
 82162  1  0  0  0
 83163  1  0  0  0
 83164  1  0  0  0
 84165  1  0  0  0
M  ISO  4   1 100  68 101  83 101  84 100
M  END
> <chiral flag>
0

> <version>
0

> <s_m_source_file>
/data/baiqing/PycharmProjects/Reinvent-master-3.2/result/LINK_invent/BTK/process_docking_weight1_custom_sum_contain_oxygen_bond_distance_aromatic_linkinvent_7_9_3/rearranged_h_0011.sdf

> <i_m_source_file_index>
62

> <r_mmod_Potential_Energy-OPLS-2005>
55.9410552978516

> <r_mmod_Stretch_Energy-OPLS-2005>
81.2700805664062

> <r_mmod_Bend_Energy-OPLS-2005>
133.074020385742

> <r_mmod_Torsional_Energy-OPLS-2005>
329.312133789062

> <r_mmod_Improper_Torsional_Energy-OPLS-2005>
11.0187950134277

> <r_mmod_Van_der_Waal_Energy-OPLS-2005>
135.874176025391

> <r_mmod_Electrostatic_Energy-OPLS-2005>
-468.728057861328

> <r_mmod_Solvation_Energy-OPLS-2005>
-215.070327758789

> <b_mmod_Minimization_Converged-OPLS-2005>
0

> <r_mmod_RMS_Derivative-OPLS-2005>
0.791133344173431

$$$$
62
                    3D
 Structure written by MMmdl.
152160  0  0  1  0            999 V2000
  -30.5402  -14.9163   20.4320 C   0  0  0  0  0  0
  -30.4476  -12.5618   19.4955 C   0  0  0  0  0  0
  -29.5174  -12.5114   18.2600 C   0  0  0  0  0  0
  -28.0586  -12.2833   18.6933 C   0  0  0  0  0  0
  -27.6376  -13.2306   19.8449 C   0  0  2  0  0  0
  -28.6788  -13.2436   20.9860 C   0  0  0  0  0  0
  -25.2518  -13.8191   20.5690 C   0  0  0  0  0  0
  -24.1805  -13.0442   20.9207 C   0  0  0  0  0  0
  -24.6392  -11.6922   20.8761 C   0  0  0  0  0  0
  -23.9070  -10.4295   21.0420 C   0  0  0  0  0  0
  -24.3618   -9.4209   21.9194 C   0  0  0  0  0  0
  -23.6292   -8.2245   22.0768 C   0  0  0  0  0  0
  -22.4274   -8.0291   21.3552 C   0  0  0  0  0  0
  -21.9911   -9.0258   20.4650 C   0  0  0  0  0  0
  -22.7246  -10.2137   20.3066 C   0  0  0  0  0  0
  -21.6847   -6.0744   22.5272 C   0  0  0  0  0  0
  -21.4010   -6.5643   23.8209 C   0  0  0  0  0  0
  -21.3665   -5.6797   24.9169 C   0  0  0  0  0  0
  -21.6039   -4.3057   24.7214 C   0  0  0  0  0  0
  -21.8826   -3.8153   23.4332 C   0  0  0  0  0  0
  -21.9189   -4.6969   22.3393 C   0  0  0  0  0  0
  -22.7823  -13.5233   21.1856 C   0  0  0  0  0  0
  -22.1658   -4.2162   21.0968 F   0  0  0  0  0  0
  -21.5630   -3.4546   25.7727 F   0  0  0  0  0  0
  -29.9670  -13.6467   20.4005 N   0  0  0  0  0  0
  -26.2925  -12.9386   20.3270 N   0  0  0  0  0  0
  -25.9318  -11.6539   20.5768 N   0  0  0  0  0  0
  -22.0462  -12.8223   22.0411 N   0  0  0  0  0  0
  -25.4246  -15.1908   20.4112 N   0  0  0  0  0  0
  -31.7229  -15.0247   20.0869 O   0  0  0  0  0  0
  -21.6639   -6.8884   21.4238 O   0  0  0  0  0  0
  -22.3516  -14.5534   20.6705 O   0  0  0  0  0  0
  -24.6422  -31.8444   23.1891 C   0  0  0  0  0  0
  -25.9194  -32.4692   23.8265 C   0  0  1  0  0  0
  -27.2133  -27.1471   20.1348 C   0  0  0  0  0  0
  -25.5965  -33.8499   24.2189 N   0  0  0  0  0  0
  -23.4442  -30.4656   21.5353 C   0  0  2  0  0  0
  -24.8892  -28.8931   20.1078 C   0  0  0  0  0  0
  -22.7569  -29.4546   22.4869 C   0  0  0  0  0  0
  -18.0308  -28.1387   22.8434 C   0  0  0  0  0  0
  -24.1498  -36.7261   23.2652 C   0  0  0  0  0  0
  -25.9982  -30.7226   21.3836 C   0  0  0  0  0  0
  -26.0662  -29.3340   20.7230 C   0  0  0  0  0  0
  -27.2259  -28.4746   20.7231 C   0  0  0  0  0  0
  -26.0040  -26.8010   19.4890 C   0  0  0  0  0  0
  -24.8685  -27.6396   19.4788 C   0  0  0  0  0  0
  -23.6686  -29.7990   20.1512 C   0  0  0  0  0  0
  -25.4124  -36.3035   24.0335 C   0  0  1  0  0  0
  -20.5919  -28.3703   23.1230 C   0  0  2  0  0  0
  -20.6791  -26.9419   22.5391 C   0  0  0  0  0  0
  -19.5764  -26.6372   21.5185 C   0  0  0  0  0  0
  -18.1943  -26.7918   22.1587 C   0  0  0  0  0  0
  -19.1565  -28.8860   23.2807 C   0  0  0  0  0  0
  -18.9496  -30.1449   23.8844 C   0  0  0  0  0  0
  -17.6499  -30.6570   24.0553 C   0  0  0  0  0  0
  -25.9074  -34.9410   23.5063 C   0  0  0  0  0  0
  -16.5381  -29.9074   23.6334 C   0  0  0  0  0  0
  -16.7298  -28.6504   23.0324 C   0  0  0  0  0  0
  -26.4537  -31.6563   25.0700 C   0  0  0  0  0  0
  -25.3739  -31.3741   26.1411 C   0  0  0  0  0  0
  -27.0435  -30.2990   24.6243 C   0  0  0  0  0  0
  -27.6054  -32.4340   25.7474 C   0  0  0  0  0  0
  -27.5575  -37.1782   24.8473 C   0  0  0  0  0  0
  -21.4271  -29.3029   22.3611 N   0  0  0  0  0  0
  -26.4279  -37.3753   23.9432 N   0  0  0  0  0  0
  -24.7144  -31.0316   22.0919 N   0  0  0  0  0  0
  -23.4224  -28.8098   23.2998 O   0  0  0  0  0  0
  -28.2911  -26.1962   20.2384 O   0  0  0  0  0  0
  -26.5657  -34.8908   22.4644 O   0  0  0  0  0  0
  -23.5547  -32.1313   23.7148 O   0  0  0  0  0  0
  -30.5767  -18.3313   19.6604 C   0  0  0  0  0  0
  -28.7406  -19.8707   21.0722 C   0  0  0  0  0  0
  -29.7628  -17.5629   20.5471 C   0  0  0  0  0  0
  -29.5441  -20.6551   20.1775 C   0  0  0  0  0  0
  -28.8401  -18.4242   21.2424 C   0  0  0  0  0  0
  -30.4677  -19.7696   19.4774 C   0  0  0  0  0  0
  -30.7968  -22.7009   19.6284 C   0  0  0  0  0  0
  -28.5863  -23.2934   20.5400 C   0  0  0  0  0  0
  -28.3190  -24.7376   19.7019 C   0  0  0  0  0  0
  -29.7307  -16.0383   20.7274 N   0  0  0  0  0  0
  -29.4845  -22.1497   19.9768 N   0  0  0  0  0  0
  -27.9954  -17.8373   22.1232 F   0  0  0  0  0  0
  -31.3010  -20.2893   18.5435 F   0  0  0  0  0  0
  -31.4779  -12.7213   19.1741 H   0  0  0  0  0  0
  -30.4476  -11.6022   20.0146 H   0  0  0  0  0  0
  -29.8322  -11.7172   17.5804 H   0  0  0  0  0  0
  -29.5932  -13.4441   17.7004 H   0  0  0  0  0  0
  -27.9785  -11.2470   19.0286 H   0  0  0  0  0  0
  -27.3821  -12.3787   17.8433 H   0  0  0  0  0  0
  -27.6116  -14.2309   19.4121 H   0  0  0  0  0  0
  -28.7535  -12.2636   21.4599 H   0  0  0  0  0  0
  -28.3745  -13.9376   21.7703 H   0  0  0  0  0  0
  -25.2759   -9.5684   22.4775 H   0  0  0  0  0  0
  -24.0000   -7.4636   22.7487 H   0  0  0  0  0  0
  -21.0849   -8.8774   19.8944 H   0  0  0  0  0  0
  -22.3705  -10.9678   19.6181 H   0  0  0  0  0  0
  -21.2012   -7.6155   23.9710 H   0  0  0  0  0  0
  -21.1476   -6.0528   25.9072 H   0  0  0  0  0  0
  -22.0601   -2.7619   23.2823 H   0  0  0  0  0  0
  -22.4078  -11.9866   22.4763 H   0  0  0  0  0  0
  -21.1089  -13.1259   22.2645 H   0  0  0  0  0  0
  -24.6628  -15.8483   20.5318 H   0  0  0  0  0  0
  -26.2792  -15.6283   20.0904 H   0  0  0  0  0  0
  -26.7253  -32.5309   23.0985 H   0  0  0  0  0  0
  -25.0112  -33.9604   25.0335 H   0  0  0  0  0  0
  -22.7457  -31.2922   21.3845 H   0  0  0  0  0  0
  -23.3758  -35.9585   23.3296 H   0  0  0  0  0  0
  -24.3581  -36.8906   22.2065 H   0  0  0  0  0  0
  -23.7238  -37.6450   23.6689 H   0  0  0  0  0  0
  -26.1492  -31.4788   20.6122 H   0  0  0  0  0  0
  -26.8711  -30.7721   22.0238 H   0  0  0  0  0  0
  -28.1214  -28.8047   21.2310 H   0  0  0  0  0  0
  -25.8753  -25.8428   19.0167 H   0  0  0  0  0  0
  -23.9643  -27.2934   18.9966 H   0  0  0  0  0  0
  -23.8147  -30.5780   19.4018 H   0  0  0  0  0  0
  -22.7812  -29.2507   19.8307 H   0  0  0  0  0  0
  -25.1298  -36.1872   25.0825 H   0  0  0  0  0  0
  -20.9974  -28.3285   24.1363 H   0  0  0  0  0  0
  -20.5674  -26.2332   23.3606 H   0  0  0  0  0  0
  -21.6659  -26.7421   22.1208 H   0  0  0  0  0  0
  -19.6954  -25.6283   21.1221 H   0  0  0  0  0  0
  -19.6718  -27.3170   20.6702 H   0  0  0  0  0  0
  -17.4225  -26.6654   21.3971 H   0  0  0  0  0  0
  -18.0344  -26.0056   22.8993 H   0  0  0  0  0  0
  -19.7992  -30.7240   24.2213 H   0  0  0  0  0  0
  -17.5080  -31.6254   24.5160 H   0  0  0  0  0  0
  -15.5385  -30.2966   23.7695 H   0  0  0  0  0  0
  -15.8696  -28.0823   22.7046 H   0  0  0  0  0  0
  -24.5908  -30.7098   25.7738 H   0  0  0  0  0  0
  -24.8946  -32.2925   26.4800 H   0  0  0  0  0  0
  -25.8035  -30.8936   27.0212 H   0  0  0  0  0  0
  -26.3054  -29.6677   24.1281 H   0  0  0  0  0  0
  -27.4144  -29.7306   25.4776 H   0  0  0  0  0  0
  -27.8907  -30.4274   23.9503 H   0  0  0  0  0  0
  -27.2637  -33.3666   26.1970 H   0  0  0  0  0  0
  -28.3890  -32.6864   25.0322 H   0  0  0  0  0  0
  -28.0693  -31.8536   26.5457 H   0  0  0  0  0  0
  -28.2577  -38.0087   24.7520 H   0  0  0  0  0  0
  -28.1080  -36.2620   24.6286 H   0  0  0  0  0  0
  -27.2302  -37.1412   25.8873 H   0  0  0  0  0  0
  -20.9506  -29.8809   21.6841 H   0  0  0  0  0  0
  -26.0157  -38.2825   24.1434 H   0  0  0  0  0  0
  -31.3074  -17.8123   19.0585 H   0  0  0  0  0  0
  -28.0076  -20.3865   21.6730 H   0  0  0  0  0  0
  -31.5965  -22.2458   20.2161 H   0  0  0  0  0  0
  -30.8588  -23.7731   19.8200 H   0  0  0  0  0  0
  -31.0172  -22.5677   18.5701 H   0  0  0  0  0  0
  -27.6153  -22.8654   20.7955 H   0  0  0  0  0  0
  -29.0242  -23.5668   21.4998 H   0  0  0  0  0  0
  -27.4481  -24.5494   19.0815 H   0  0  0  0  0  0
  -29.1028  -24.7978   18.9483 H   0  0  0  0  0  0
  -28.8571  -15.7362   21.1322 H   0  0  0  0  0  0
  1 25  1  0  0  0
  1 30  2  0  0  0
  1 80  1  0  0  0
  2  3  1  0  0  0
  2 25  1  0  0  0
  2 84  1  0  0  0
  2 85  1  0  0  0
  3  4  1  0  0  0
  3 86  1  0  0  0
  3 87  1  0  0  0
  4  5  1  0  0  0
  4 88  1  0  0  0
  4 89  1  0  0  0
  5  6  1  0  0  0
  5 26  1  0  0  0
  5 90  1  0  0  0
  6 25  1  0  0  0
  6 91  1  0  0  0
  6 92  1  0  0  0
  7  8  2  0  0  0
  7 26  1  0  0  0
  7 29  1  0  0  0
  8  9  1  0  0  0
  8 22  1  0  0  0
  9 10  1  0  0  0
  9 27  2  0  0  0
 10 11  2  0  0  0
 10 15  1  0  0  0
 11 12  1  0  0  0
 11 93  1  0  0  0
 12 13  2  0  0  0
 12 94  1  0  0  0
 13 14  1  0  0  0
 13 31  1  0  0  0
 14 15  2  0  0  0
 14 95  1  0  0  0
 15 96  1  0  0  0
 16 17  2  0  0  0
 16 21  1  0  0  0
 16 31  1  0  0  0
 17 18  1  0  0  0
 17 97  1  0  0  0
 18 19  2  0  0  0
 18 98  1  0  0  0
 19 20  1  0  0  0
 19 24  1  0  0  0
 20 21  2  0  0  0
 20 99  1  0  0  0
 21 23  1  0  0  0
 22 28  1  0  0  0
 22 32  2  0  0  0
 26 27  1  0  0  0
 28100  1  0  0  0
 28101  1  0  0  0
 29102  1  0  0  0
 29103  1  0  0  0
 33 34  1  0  0  0
 33 66  1  0  0  0
 33 70  2  0  0  0
 34 36  1  0  0  0
 34 59  1  0  0  0
 34104  1  0  0  0
 35 44  2  0  0  0
 35 45  1  0  0  0
 35 68  1  0  0  0
 36 56  1  0  0  0
 36105  1  0  0  0
 37 39  1  0  0  0
 37 47  1  0  0  0
 37 66  1  0  0  0
 37106  1  0  0  0
 38 43  2  0  0  0
 38 46  1  0  0  0
 38 47  1  0  0  0
 39 64  1  0  0  0
 39 67  2  0  0  0
 40 52  1  0  0  0
 40 53  2  0  0  0
 40 58  1  0  0  0
 41107  1  0  0  0
 41108  1  0  0  0
 41109  1  0  0  0
 41 48  1  0  0  0
 42 43  1  0  0  0
 42 66  1  0  0  0
 42110  1  0  0  0
 42111  1  0  0  0
 43 44  1  0  0  0
 44112  1  0  0  0
 45 46  2  0  0  0
 45113  1  0  0  0
 46114  1  0  0  0
 47115  1  0  0  0
 47116  1  0  0  0
 48 56  1  0  0  0
 48 65  1  0  0  0
 48117  1  0  0  0
 49 50  1  0  0  0
 49 53  1  0  0  0
 49 64  1  0  0  0
 49118  1  0  0  0
 50 51  1  0  0  0
 50119  1  0  0  0
 50120  1  0  0  0
 51 52  1  0  0  0
 51121  1  0  0  0
 51122  1  0  0  0
 52123  1  0  0  0
 52124  1  0  0  0
 53 54  1  0  0  0
 54 55  2  0  0  0
 54125  1  0  0  0
 55 57  1  0  0  0
 55126  1  0  0  0
 56 69  2  0  0  0
 57 58  2  0  0  0
 57127  1  0  0  0
 58128  1  0  0  0
 59 60  1  0  0  0
 59 61  1  0  0  0
 59 62  1  0  0  0
 60129  1  0  0  0
 60130  1  0  0  0
 60131  1  0  0  0
 61132  1  0  0  0
 61133  1  0  0  0
 61134  1  0  0  0
 62135  1  0  0  0
 62136  1  0  0  0
 62137  1  0  0  0
 63 65  1  0  0  0
 63138  1  0  0  0
 63139  1  0  0  0
 63140  1  0  0  0
 64141  1  0  0  0
 65142  1  0  0  0
 68 79  1  0  0  0
 71 73  2  0  0  0
 71 76  1  0  0  0
 71143  1  0  0  0
 72 74  1  0  0  0
 72 75  2  0  0  0
 72144  1  0  0  0
 73 75  1  0  0  0
 73 80  1  0  0  0
 74 76  2  0  0  0
 74 81  1  0  0  0
 75 82  1  0  0  0
 76 83  1  0  0  0
 77 81  1  0  0  0
 77145  1  0  0  0
 77146  1  0  0  0
 77147  1  0  0  0
 78 79  1  0  0  0
 78 81  1  0  0  0
 78148  1  0  0  0
 78149  1  0  0  0
 79150  1  0  0  0
 79151  1  0  0  0
 80152  1  0  0  0
M  ISO  4   1 100  68 101  79 101  80 100
M  END
> <chiral flag>
0

> <version>
0

> <s_m_source_file>
/data/baiqing/PycharmProjects/Reinvent-master-3.2/result/LINK_invent/BTK/process_docking_weight1_custom_sum_contain_oxygen_bond_distance_aromatic_linkinvent_7_9_3/rearranged_h_0011.sdf

> <i_m_source_file_index>
63

> <r_mmod_Potential_Energy-OPLS-2005>
476.563720703125

> <r_mmod_Stretch_Energy-OPLS-2005>
230.876602172852

> <r_mmod_Bend_Energy-OPLS-2005>
286.58837890625

> <r_mmod_Torsional_Energy-OPLS-2005>
210.085144042969

> <r_mmod_Improper_Torsional_Energy-OPLS-2005>
5.06855201721191

> <r_mmod_Van_der_Waal_Energy-OPLS-2005>
144.009994506836

> <r_mmod_Electrostatic_Energy-OPLS-2005>
-353.039520263672

> <r_mmod_Solvation_Energy-OPLS-2005>
-221.398712158203

> <b_mmod_Minimization_Converged-OPLS-2005>
0

> <r_mmod_RMS_Derivative-OPLS-2005>
2.88075685501099

$$$$
63
                    3D
 Structure written by MMmdl.
152160  0  0  1  0            999 V2000
  -30.6254  -14.6991   20.4648 C   0  0  0  0  0  0
  -30.4192  -12.4175   19.4850 C   0  0  0  0  0  0
  -29.5104  -12.5322   18.2418 C   0  0  0  0  0  0
  -28.0310  -12.3819   18.6417 C   0  0  0  0  0  0
  -27.6498  -13.2480   19.8729 C   0  0  2  0  0  0
  -28.6904  -13.1347   21.0076 C   0  0  0  0  0  0
  -25.2478  -13.8294   20.5720 C   0  0  0  0  0  0
  -24.1776  -13.0495   20.9183 C   0  0  0  0  0  0
  -24.6394  -11.6993   20.8671 C   0  0  0  0  0  0
  -23.9076  -10.4354   21.0341 C   0  0  0  0  0  0
  -24.3624   -9.4294   21.9142 C   0  0  0  0  0  0
  -23.6331   -8.2315   22.0726 C   0  0  0  0  0  0
  -22.4308   -8.0315   21.3535 C   0  0  0  0  0  0
  -21.9926   -9.0276   20.4621 C   0  0  0  0  0  0
  -22.7223  -10.2180   20.3022 C   0  0  0  0  0  0
  -21.6918   -6.0746   22.5267 C   0  0  0  0  0  0
  -21.4065   -6.5633   23.8198 C   0  0  0  0  0  0
  -21.3668   -5.6754   24.9135 C   0  0  0  0  0  0
  -21.6053   -4.3023   24.7181 C   0  0  0  0  0  0
  -21.8849   -3.8136   23.4306 C   0  0  0  0  0  0
  -21.9239   -4.6970   22.3373 C   0  0  0  0  0  0
  -22.7802  -13.5249   21.1830 C   0  0  0  0  0  0
  -22.1699   -4.2176   21.0944 F   0  0  0  0  0  0
  -21.5606   -3.4487   25.7696 F   0  0  0  0  0  0
  -30.0059  -13.4681   20.4448 N   0  0  0  0  0  0
  -26.2977  -12.9539   20.3368 N   0  0  0  0  0  0
  -25.9335  -11.6658   20.5716 N   0  0  0  0  0  0
  -22.0464  -12.8217   22.0392 N   0  0  0  0  0  0
  -25.4078  -15.2030   20.4140 N   0  0  0  0  0  0
  -31.7850  -14.8174   20.0580 O   0  0  0  0  0  0
  -21.6709   -6.8886   21.4228 O   0  0  0  0  0  0
  -22.3498  -14.5575   20.6726 O   0  0  0  0  0  0
  -24.6314  -31.8590   23.2005 C   0  0  0  0  0  0
  -25.9140  -32.4798   23.8322 C   0  0  1  0  0  0
  -27.2096  -27.2753   20.1189 C   0  0  0  0  0  0
  -25.5950  -33.8596   24.2266 N   0  0  0  0  0  0
  -23.4261  -30.4885   21.5403 C   0  0  2  0  0  0
  -24.8719  -28.9454   20.1000 C   0  0  0  0  0  0
  -22.7492  -29.4654   22.4861 C   0  0  0  0  0  0
  -18.0297  -28.1427   22.8478 C   0  0  0  0  0  0
  -24.1496  -36.7320   23.2636 C   0  0  0  0  0  0
  -25.9720  -30.7804   21.3740 C   0  0  0  0  0  0
  -26.0436  -29.4031   20.7168 C   0  0  0  0  0  0
  -27.2132  -28.5787   20.7209 C   0  0  0  0  0  0
  -26.0233  -26.9033   19.4427 C   0  0  0  0  0  0
  -24.8681  -27.7060   19.4467 C   0  0  0  0  0  0
  -23.6432  -29.8299   20.1529 C   0  0  0  0  0  0
  -25.4136  -36.3118   24.0315 C   0  0  1  0  0  0
  -20.5908  -28.3742   23.1274 C   0  0  2  0  0  0
  -20.6835  -26.9468   22.5413 C   0  0  0  0  0  0
  -19.5805  -26.6421   21.5232 C   0  0  0  0  0  0
  -18.1970  -26.7972   22.1621 C   0  0  0  0  0  0
  -19.1550  -28.8893   23.2878 C   0  0  0  0  0  0
  -18.9462  -30.1485   23.8920 C   0  0  0  0  0  0
  -17.6466  -30.6630   24.0576 C   0  0  0  0  0  0
  -25.9054  -34.9476   23.5092 C   0  0  0  0  0  0
  -16.5355  -29.9126   23.6350 C   0  0  0  0  0  0
  -16.7275  -28.6544   23.0361 C   0  0  0  0  0  0
  -26.4517  -31.6597   25.0688 C   0  0  0  0  0  0
  -25.3725  -31.3725   26.1381 C   0  0  0  0  0  0
  -27.0319  -30.3025   24.6115 C   0  0  0  0  0  0
  -27.6059  -32.4312   25.7477 C   0  0  0  0  0  0
  -27.5597  -37.1831   24.8464 C   0  0  0  0  0  0
  -21.4192  -29.3081   22.3633 N   0  0  0  0  0  0
  -26.4319  -37.3810   23.9403 N   0  0  0  0  0  0
  -24.6959  -31.0607   22.0944 N   0  0  0  0  0  0
  -23.4203  -28.8187   23.2950 O   0  0  0  0  0  0
  -28.2916  -26.3650   20.2025 O   0  0  0  0  0  0
  -26.5614  -34.8924   22.4651 O   0  0  0  0  0  0
  -23.5481  -32.1354   23.7352 O   0  0  0  0  0  0
  -29.6073  -17.0275   18.6800 C   0  0  0  0  0  0
  -29.7450  -17.0962   20.0809 C   0  0  0  0  0  0
  -29.3313  -19.6366   19.9091 C   0  0  0  0  0  0
  -29.3107  -18.1694   17.9151 C   0  0  0  0  0  0
  -29.1689  -19.4426   18.5081 C   0  0  0  0  0  0
  -29.5984  -18.4192   20.6785 C   0  0  0  0  0  0
  -28.9286  -23.6928   20.4873 C   0  0  0  0  0  0
  -28.6568  -22.2217   19.8700 C   0  0  0  0  0  0
  -28.0257  -24.9109   19.9306 C   0  0  0  0  0  0
  -29.8876  -15.8144   20.8126 N   0  0  0  0  0  0
  -29.2421  -20.9699   20.5057 N   0  0  0  0  0  0
  -29.1372  -18.0386   16.5774 F   0  0  0  0  0  0
  -28.8671  -20.4713   17.6790 F   0  0  0  0  0  0
  -29.7293  -18.5510   22.3962 Cl  0  0  0  0  0  0
  -31.4658  -12.5141   19.1960 H   0  0  0  0  0  0
  -30.3295  -11.4265   19.9352 H   0  0  0  0  0  0
  -29.7746  -11.7753   17.5009 H   0  0  0  0  0  0
  -29.6613  -13.5002   17.7627 H   0  0  0  0  0  0
  -27.8538  -11.3294   18.8594 H   0  0  0  0  0  0
  -27.3877  -12.6301   17.7977 H   0  0  0  0  0  0
  -27.6605  -14.2837   19.5355 H   0  0  0  0  0  0
  -28.6990  -12.1251   21.4219 H   0  0  0  0  0  0
  -28.4312  -13.8022   21.8317 H   0  0  0  0  0  0
  -25.2761   -9.5861   22.4699 H   0  0  0  0  0  0
  -24.0112   -7.4743   22.7449 H   0  0  0  0  0  0
  -21.0852   -8.8739   19.8932 H   0  0  0  0  0  0
  -22.3606  -10.9697   19.6134 H   0  0  0  0  0  0
  -21.2092   -7.6141   23.9731 H   0  0  0  0  0  0
  -21.1437   -6.0442   25.9037 H   0  0  0  0  0  0
  -22.0642   -2.7615   23.2760 H   0  0  0  0  0  0
  -22.4096  -11.9878   22.4768 H   0  0  0  0  0  0
  -21.1112  -13.1247   22.2647 H   0  0  0  0  0  0
  -24.6308  -15.8438   20.5360 H   0  0  0  0  0  0
  -26.2465  -15.6607   20.0839 H   0  0  0  0  0  0
  -26.7188  -32.5461   23.1045 H   0  0  0  0  0  0
  -25.0156  -33.9726   25.0457 H   0  0  0  0  0  0
  -22.7217  -31.3118   21.4008 H   0  0  0  0  0  0
  -23.3766  -35.9642   23.3308 H   0  0  0  0  0  0
  -24.3590  -36.8948   22.2052 H   0  0  0  0  0  0
  -23.7218  -37.6515   23.6644 H   0  0  0  0  0  0
  -26.1045  -31.5425   20.6043 H   0  0  0  0  0  0
  -26.8559  -30.8360   21.9973 H   0  0  0  0  0  0
  -28.1028  -28.9245   21.2260 H   0  0  0  0  0  0
  -25.9529  -25.9715   18.9014 H   0  0  0  0  0  0
  -23.9769  -27.3694   18.9340 H   0  0  0  0  0  0
  -23.7586  -30.6114   19.4005 H   0  0  0  0  0  0
  -22.7616  -29.2639   19.8473 H   0  0  0  0  0  0
  -25.1316  -36.1995   25.0807 H   0  0  0  0  0  0
  -21.0002  -28.3362   24.1391 H   0  0  0  0  0  0
  -20.5871  -26.2320   23.3598 H   0  0  0  0  0  0
  -21.6694  -26.7587   22.1129 H   0  0  0  0  0  0
  -19.6992  -25.6330   21.1278 H   0  0  0  0  0  0
  -19.6795  -27.3230   20.6764 H   0  0  0  0  0  0
  -17.4264  -26.6714   21.3999 H   0  0  0  0  0  0
  -18.0355  -26.0115   22.9013 H   0  0  0  0  0  0
  -19.7928  -30.7303   24.2322 H   0  0  0  0  0  0
  -17.5014  -31.6316   24.5181 H   0  0  0  0  0  0
  -15.5366  -30.3055   23.7671 H   0  0  0  0  0  0
  -15.8647  -28.0884   22.7079 H   0  0  0  0  0  0
  -24.5931  -30.7045   25.7710 H   0  0  0  0  0  0
  -24.8868  -32.2872   26.4776 H   0  0  0  0  0  0
  -25.8032  -30.8933   27.0172 H   0  0  0  0  0  0
  -26.2847  -29.6800   24.1176 H   0  0  0  0  0  0
  -27.4065  -29.7272   25.4594 H   0  0  0  0  0  0
  -27.8707  -30.4337   23.9268 H   0  0  0  0  0  0
  -27.2676  -33.3633   26.2011 H   0  0  0  0  0  0
  -28.3898  -32.6837   25.0323 H   0  0  0  0  0  0
  -28.0651  -31.8428   26.5430 H   0  0  0  0  0  0
  -28.2625  -38.0117   24.7541 H   0  0  0  0  0  0
  -28.1068  -36.2663   24.6266 H   0  0  0  0  0  0
  -27.2289  -37.1454   25.8848 H   0  0  0  0  0  0
  -20.9361  -29.8741   21.6792 H   0  0  0  0  0  0
  -26.0213  -38.2891   24.1393 H   0  0  0  0  0  0
  -29.6791  -16.0760   18.1713 H   0  0  0  0  0  0
  -29.9782  -23.9403   20.3228 H   0  0  0  0  0  0
  -28.8039  -23.6545   21.5694 H   0  0  0  0  0  0
  -28.9931  -22.2991   18.8392 H   0  0  0  0  0  0
  -27.5765  -22.0756   19.8247 H   0  0  0  0  0  0
  -27.0291  -24.6807   20.3067 H   0  0  0  0  0  0
  -27.9649  -24.8061   18.8480 H   0  0  0  0  0  0
  -29.1323  -15.6221   21.4517 H   0  0  0  0  0  0
  -29.3339  -20.9866   21.5182 H   0  0  0  0  0  0
  1 25  1  0  0  0
  1 30  2  0  0  0
  1 80  1  0  0  0
  2  3  1  0  0  0
  2 25  1  0  0  0
  2 85  1  0  0  0
  2 86  1  0  0  0
  3  4  1  0  0  0
  3 87  1  0  0  0
  3 88  1  0  0  0
  4  5  1  0  0  0
  4 89  1  0  0  0
  4 90  1  0  0  0
  5  6  1  0  0  0
  5 26  1  0  0  0
  5 91  1  0  0  0
  6 25  1  0  0  0
  6 92  1  0  0  0
  6 93  1  0  0  0
  7  8  2  0  0  0
  7 26  1  0  0  0
  7 29  1  0  0  0
  8  9  1  0  0  0
  8 22  1  0  0  0
  9 10  1  0  0  0
  9 27  2  0  0  0
 10 11  2  0  0  0
 10 15  1  0  0  0
 11 12  1  0  0  0
 11 94  1  0  0  0
 12 13  2  0  0  0
 12 95  1  0  0  0
 13 14  1  0  0  0
 13 31  1  0  0  0
 14 15  2  0  0  0
 14 96  1  0  0  0
 15 97  1  0  0  0
 16 17  2  0  0  0
 16 21  1  0  0  0
 16 31  1  0  0  0
 17 18  1  0  0  0
 17 98  1  0  0  0
 18 19  2  0  0  0
 18 99  1  0  0  0
 19 20  1  0  0  0
 19 24  1  0  0  0
 20 21  2  0  0  0
 20100  1  0  0  0
 21 23  1  0  0  0
 22 28  1  0  0  0
 22 32  2  0  0  0
 26 27  1  0  0  0
 28101  1  0  0  0
 28102  1  0  0  0
 29103  1  0  0  0
 29104  1  0  0  0
 33 34  1  0  0  0
 33 66  1  0  0  0
 33 70  2  0  0  0
 34 36  1  0  0  0
 34 59  1  0  0  0
 34105  1  0  0  0
 35 44  2  0  0  0
 35 45  1  0  0  0
 35 68  1  0  0  0
 36 56  1  0  0  0
 36106  1  0  0  0
 37 39  1  0  0  0
 37 47  1  0  0  0
 37 66  1  0  0  0
 37107  1  0  0  0
 38 43  2  0  0  0
 38 46  1  0  0  0
 38 47  1  0  0  0
 39 64  1  0  0  0
 39 67  2  0  0  0
 40 52  1  0  0  0
 40 53  2  0  0  0
 40 58  1  0  0  0
 41108  1  0  0  0
 41109  1  0  0  0
 41110  1  0  0  0
 41 48  1  0  0  0
 42 43  1  0  0  0
 42 66  1  0  0  0
 42111  1  0  0  0
 42112  1  0  0  0
 43 44  1  0  0  0
 44113  1  0  0  0
 45 46  2  0  0  0
 45114  1  0  0  0
 46115  1  0  0  0
 47116  1  0  0  0
 47117  1  0  0  0
 48 56  1  0  0  0
 48 65  1  0  0  0
 48118  1  0  0  0
 49 50  1  0  0  0
 49 53  1  0  0  0
 49 64  1  0  0  0
 49119  1  0  0  0
 50 51  1  0  0  0
 50120  1  0  0  0
 50121  1  0  0  0
 51 52  1  0  0  0
 51122  1  0  0  0
 51123  1  0  0  0
 52124  1  0  0  0
 52125  1  0  0  0
 53 54  1  0  0  0
 54 55  2  0  0  0
 54126  1  0  0  0
 55 57  1  0  0  0
 55127  1  0  0  0
 56 69  2  0  0  0
 57 58  2  0  0  0
 57128  1  0  0  0
 58129  1  0  0  0
 59 60  1  0  0  0
 59 61  1  0  0  0
 59 62  1  0  0  0
 60130  1  0  0  0
 60131  1  0  0  0
 60132  1  0  0  0
 61133  1  0  0  0
 61134  1  0  0  0
 61135  1  0  0  0
 62136  1  0  0  0
 62137  1  0  0  0
 62138  1  0  0  0
 63 65  1  0  0  0
 63139  1  0  0  0
 63140  1  0  0  0
 63141  1  0  0  0
 64142  1  0  0  0
 65143  1  0  0  0
 68 79  1  0  0  0
 71 72  2  0  0  0
 71 74  1  0  0  0
 71144  1  0  0  0
 72 76  1  0  0  0
 72 80  1  0  0  0
 73 75  1  0  0  0
 73 76  2  0  0  0
 73 81  1  0  0  0
 74 75  2  0  0  0
 74 82  1  0  0  0
 75 83  1  0  0  0
 76 84  1  0  0  0
 77 78  1  0  0  0
 77 79  1  0  0  0
 77145  1  0  0  0
 77146  1  0  0  0
 78 81  1  0  0  0
 78147  1  0  0  0
 78148  1  0  0  0
 79149  1  0  0  0
 79150  1  0  0  0
 80151  1  0  0  0
 81152  1  0  0  0
M  ISO  4   1 100  68 101  79 101  80 100
M  END
> <chiral flag>
0

> <version>
0

> <s_m_source_file>
/data/baiqing/PycharmProjects/Reinvent-master-3.2/result/LINK_invent/BTK/process_docking_weight1_custom_sum_contain_oxygen_bond_distance_aromatic_linkinvent_7_9_3/rearranged_h_0011.sdf

> <i_m_source_file_index>
64

> <r_mmod_Potential_Energy-OPLS-2005>
246.167343139648

> <r_mmod_Stretch_Energy-OPLS-2005>
120.936584472656

> <r_mmod_Bend_Energy-OPLS-2005>
165.896087646484

> <r_mmod_Torsional_Energy-OPLS-2005>
237.53076171875

> <r_mmod_Improper_Torsional_Energy-OPLS-2005>
5.95660305023193

> <r_mmod_Van_der_Waal_Energy-OPLS-2005>
146.172760009766

> <r_mmod_Electrostatic_Energy-OPLS-2005>
-287.75439453125

> <r_mmod_Solvation_Energy-OPLS-2005>
-216.034301757812

> <b_mmod_Minimization_Converged-OPLS-2005>
0

> <r_mmod_RMS_Derivative-OPLS-2005>
3.9910888671875

$$$$
64
                    3D
 Structure written by MMmdl.
159167  0  0  1  0            999 V2000
  -30.6637  -14.5535   20.4302 C   0  0  0  0  0  0
  -30.4298  -12.3147   19.4517 C   0  0  0  0  0  0
  -29.5168  -12.4624   18.2153 C   0  0  0  0  0  0
  -28.0243  -12.3612   18.6066 C   0  0  0  0  0  0
  -27.6562  -13.2230   19.8472 C   0  0  2  0  0  0
  -28.6986  -13.0689   20.9775 C   0  0  0  0  0  0
  -25.2580  -13.8233   20.5594 C   0  0  0  0  0  0
  -24.1811  -13.0501   20.9063 C   0  0  0  0  0  0
  -24.6392  -11.6968   20.8717 C   0  0  0  0  0  0
  -23.9100  -10.4322   21.0440 C   0  0  0  0  0  0
  -24.3620   -9.4206   21.9215 C   0  0  0  0  0  0
  -23.6297   -8.2232   22.0744 C   0  0  0  0  0  0
  -22.4258   -8.0299   21.3556 C   0  0  0  0  0  0
  -21.9919   -9.0274   20.4656 C   0  0  0  0  0  0
  -22.7257  -10.2169   20.3092 C   0  0  0  0  0  0
  -21.6842   -6.0758   22.5271 C   0  0  0  0  0  0
  -21.4028   -6.5655   23.8232 C   0  0  0  0  0  0
  -21.3668   -5.6798   24.9160 C   0  0  0  0  0  0
  -21.6038   -4.3065   24.7205 C   0  0  0  0  0  0
  -21.8814   -3.8160   23.4319 C   0  0  0  0  0  0
  -21.9180   -4.6976   22.3381 C   0  0  0  0  0  0
  -22.7774  -13.5264   21.1783 C   0  0  0  0  0  0
  -22.1646   -4.2169   21.0957 F   0  0  0  0  0  0
  -21.5640   -3.4540   25.7717 F   0  0  0  0  0  0
  -30.0260  -13.3510   20.4105 N   0  0  0  0  0  0
  -26.2984  -12.9404   20.3187 N   0  0  0  0  0  0
  -25.9327  -11.6590   20.5748 N   0  0  0  0  0  0
  -22.0451  -12.8303   22.0414 N   0  0  0  0  0  0
  -25.4500  -15.1974   20.4222 N   0  0  0  0  0  0
  -31.8449  -14.6902   20.1113 O   0  0  0  0  0  0
  -21.6634   -6.8869   21.4232 O   0  0  0  0  0  0
  -22.3457  -14.5540   20.6622 O   0  0  0  0  0  0
  -24.6188  -31.8578   23.2034 C   0  0  0  0  0  0
  -25.9045  -32.4792   23.8361 C   0  0  1  0  0  0
  -27.2921  -27.4322   20.1113 C   0  0  0  0  0  0
  -25.5917  -33.8583   24.2323 N   0  0  0  0  0  0
  -23.4186  -30.4785   21.5340 C   0  0  2  0  0  0
  -24.8875  -28.9484   20.0934 C   0  0  0  0  0  0
  -22.7482  -29.4621   22.4877 C   0  0  0  0  0  0
  -18.0293  -28.1393   22.8467 C   0  0  0  0  0  0
  -24.1494  -36.7315   23.2637 C   0  0  0  0  0  0
  -25.9458  -30.8276   21.3607 C   0  0  0  0  0  0
  -26.0384  -29.4660   20.7001 C   0  0  0  0  0  0
  -27.2378  -28.7113   20.7131 C   0  0  0  0  0  0
  -26.1292  -26.9332   19.4843 C   0  0  0  0  0  0
  -24.9316  -27.6847   19.4722 C   0  0  0  0  0  0
  -23.6377  -29.8019   20.1509 C   0  0  0  0  0  0
  -25.4107  -36.3084   24.0342 C   0  0  1  0  0  0
  -20.5892  -28.3695   23.1269 C   0  0  2  0  0  0
  -20.6793  -26.9417   22.5410 C   0  0  0  0  0  0
  -19.5781  -26.6385   21.5206 C   0  0  0  0  0  0
  -18.1946  -26.7945   22.1591 C   0  0  0  0  0  0
  -19.1543  -28.8860   23.2866 C   0  0  0  0  0  0
  -18.9475  -30.1469   23.8874 C   0  0  0  0  0  0
  -17.6473  -30.6592   24.0566 C   0  0  0  0  0  0
  -25.9015  -34.9445   23.5114 C   0  0  0  0  0  0
  -16.5363  -29.9085   23.6336 C   0  0  0  0  0  0
  -16.7285  -28.6511   23.0342 C   0  0  0  0  0  0
  -26.4492  -31.6585   25.0686 C   0  0  0  0  0  0
  -25.3805  -31.3673   26.1485 C   0  0  0  0  0  0
  -27.0323  -30.3001   24.6091 C   0  0  0  0  0  0
  -27.6080  -32.4293   25.7455 C   0  0  0  0  0  0
  -27.5586  -37.1802   24.8456 C   0  0  0  0  0  0
  -21.4183  -29.3030   22.3625 N   0  0  0  0  0  0
  -26.4289  -37.3783   23.9425 N   0  0  0  0  0  0
  -24.6777  -31.0719   22.0909 N   0  0  0  0  0  0
  -23.4201  -28.8161   23.2972 O   0  0  0  0  0  0
  -28.3315  -26.5723   20.4110 O   0  0  0  0  0  0
  -26.5572  -34.8902   22.4664 O   0  0  0  0  0  0
  -23.5367  -32.1341   23.7395 O   0  0  0  0  0  0
  -29.8918  -19.6097   19.1109 C   0  0  0  0  0  0
  -29.5738  -18.5291   18.2605 C   0  0  0  0  0  0
  -30.3041  -18.0353   20.9219 C   0  0  0  0  0  0
  -30.2578  -19.3839   20.4549 C   0  0  0  0  0  0
  -29.5997  -17.1954   18.7337 C   0  0  0  0  0  0
  -29.9826  -16.9354   20.0786 C   0  0  0  0  0  0
  -30.6281  -20.5461   21.3635 C   0  0  0  0  0  0
  -30.1282  -24.3814   21.2645 C   0  0  0  0  0  0
  -29.9181  -24.8110   19.7828 C   0  0  0  0  0  0
  -30.8898  -23.0391   21.5493 C   0  0  0  0  0  0
  -29.4213  -26.2794   19.5425 C   0  0  0  0  0  0
  -29.2000  -16.1792   17.8607 N   0  0  0  0  0  0
  -29.8514  -15.6158   20.6283 N   0  0  0  0  0  0
  -30.3471  -21.8043   20.9442 N   0  0  0  0  0  0
  -31.1826  -20.3277   22.4436 O   0  0  0  0  0  0
  -31.4804  -12.3959   19.1700 H   0  0  0  0  0  0
  -30.3218  -11.3246   19.8973 H   0  0  0  0  0  0
  -29.7655  -11.6958   17.4777 H   0  0  0  0  0  0
  -29.7161  -13.4192   17.7296 H   0  0  0  0  0  0
  -27.7912  -11.3094   18.7900 H   0  0  0  0  0  0
  -27.4103  -12.6585   17.7553 H   0  0  0  0  0  0
  -27.6752  -14.2600   19.5040 H   0  0  0  0  0  0
  -28.6757  -12.0631   21.3938 H   0  0  0  0  0  0
  -28.4632  -13.7367   21.8073 H   0  0  0  0  0  0
  -25.2779   -9.5669   22.4779 H   0  0  0  0  0  0
  -24.0043   -7.4598   22.7439 H   0  0  0  0  0  0
  -21.0870   -8.8762   19.8938 H   0  0  0  0  0  0
  -22.3718  -10.9674   19.6185 H   0  0  0  0  0  0
  -21.2038   -7.6166   23.9739 H   0  0  0  0  0  0
  -21.1513   -6.0517   25.9091 H   0  0  0  0  0  0
  -22.0593   -2.7618   23.2782 H   0  0  0  0  0  0
  -22.4000  -11.9972   22.4895 H   0  0  0  0  0  0
  -21.1050  -13.1301   22.2607 H   0  0  0  0  0  0
  -24.7120  -15.8646   20.6181 H   0  0  0  0  0  0
  -26.3576  -15.6315   20.2981 H   0  0  0  0  0  0
  -26.7130  -32.5528   23.1146 H   0  0  0  0  0  0
  -25.0127  -33.9736   25.0513 H   0  0  0  0  0  0
  -22.7065  -31.2925   21.3839 H   0  0  0  0  0  0
  -23.3732  -35.9666   23.3290 H   0  0  0  0  0  0
  -24.3593  -36.8932   22.2050 H   0  0  0  0  0  0
  -23.7258  -37.6528   23.6649 H   0  0  0  0  0  0
  -26.0626  -31.5929   20.5941 H   0  0  0  0  0  0
  -26.8293  -30.8819   21.9837 H   0  0  0  0  0  0
  -28.1056  -29.0816   21.2411 H   0  0  0  0  0  0
  -26.1360  -25.9359   19.0675 H   0  0  0  0  0  0
  -24.0482  -27.2730   19.0039 H   0  0  0  0  0  0
  -23.7328  -30.5701   19.3842 H   0  0  0  0  0  0
  -22.7709  -29.2049   19.8635 H   0  0  0  0  0  0
  -25.1261  -36.1945   25.0834 H   0  0  0  0  0  0
  -21.0022  -28.3318   24.1385 H   0  0  0  0  0  0
  -20.5735  -26.2308   23.3618 H   0  0  0  0  0  0
  -21.6654  -26.7491   22.1186 H   0  0  0  0  0  0
  -19.6953  -25.6297   21.1238 H   0  0  0  0  0  0
  -19.6738  -27.3194   20.6742 H   0  0  0  0  0  0
  -17.4245  -26.6733   21.3960 H   0  0  0  0  0  0
  -18.0320  -26.0084   22.8979 H   0  0  0  0  0  0
  -19.7948  -30.7294   24.2233 H   0  0  0  0  0  0
  -17.5031  -31.6268   24.5176 H   0  0  0  0  0  0
  -15.5369  -30.2987   23.7677 H   0  0  0  0  0  0
  -15.8686  -28.0849   22.7042 H   0  0  0  0  0  0
  -24.5960  -30.7023   25.7846 H   0  0  0  0  0  0
  -24.9028  -32.2831   26.4976 H   0  0  0  0  0  0
  -25.8218  -30.8822   27.0217 H   0  0  0  0  0  0
  -26.2838  -29.6725   24.1226 H   0  0  0  0  0  0
  -27.4164  -29.7251   25.4546 H   0  0  0  0  0  0
  -27.8663  -30.4266   23.9172 H   0  0  0  0  0  0
  -27.2689  -33.3558   26.2095 H   0  0  0  0  0  0
  -28.3864  -32.6918   25.0278 H   0  0  0  0  0  0
  -28.0805  -31.8394   26.5331 H   0  0  0  0  0  0
  -28.2583  -38.0108   24.7498 H   0  0  0  0  0  0
  -28.1087  -36.2644   24.6259 H   0  0  0  0  0  0
  -27.2323  -37.1435   25.8858 H   0  0  0  0  0  0
  -20.9368  -29.8702   21.6781 H   0  0  0  0  0  0
  -26.0164  -38.2853   24.1438 H   0  0  0  0  0  0
  -29.8364  -20.6112   18.7076 H   0  0  0  0  0  0
  -29.2837  -18.7460   17.2414 H   0  0  0  0  0  0
  -30.5643  -17.8400   21.9490 H   0  0  0  0  0  0
  -29.1629  -24.3578   21.7704 H   0  0  0  0  0  0
  -30.6879  -25.1767   21.7674 H   0  0  0  0  0  0
  -29.2137  -24.1164   19.3233 H   0  0  0  0  0  0
  -30.8616  -24.6787   19.2491 H   0  0  0  0  0  0
  -30.9617  -22.9114   22.6326 H   0  0  0  0  0  0
  -31.9222  -23.1424   21.2126 H   0  0  0  0  0  0
  -29.1593  -26.4364   18.4985 H   0  0  0  0  0  0
  -30.2300  -26.9766   19.7734 H   0  0  0  0  0  0
  -29.0368  -16.4089   16.8809 H   0  0  0  0  0  0
  -29.5813  -15.2467   17.9738 H   0  0  0  0  0  0
  -28.9073  -15.3607   20.8589 H   0  0  0  0  0  0
  -29.8522  -21.8946   20.0713 H   0  0  0  0  0  0
  1 25  1  0  0  0
  1 30  2  0  0  0
  1 83  1  0  0  0
  2  3  1  0  0  0
  2 25  1  0  0  0
  2 86  1  0  0  0
  2 87  1  0  0  0
  3  4  1  0  0  0
  3 88  1  0  0  0
  3 89  1  0  0  0
  4  5  1  0  0  0
  4 90  1  0  0  0
  4 91  1  0  0  0
  5  6  1  0  0  0
  5 26  1  0  0  0
  5 92  1  0  0  0
  6 25  1  0  0  0
  6 93  1  0  0  0
  6 94  1  0  0  0
  7  8  2  0  0  0
  7 26  1  0  0  0
  7 29  1  0  0  0
  8  9  1  0  0  0
  8 22  1  0  0  0
  9 10  1  0  0  0
  9 27  2  0  0  0
 10 11  2  0  0  0
 10 15  1  0  0  0
 11 12  1  0  0  0
 11 95  1  0  0  0
 12 13  2  0  0  0
 12 96  1  0  0  0
 13 14  1  0  0  0
 13 31  1  0  0  0
 14 15  2  0  0  0
 14 97  1  0  0  0
 15 98  1  0  0  0
 16 17  2  0  0  0
 16 21  1  0  0  0
 16 31  1  0  0  0
 17 18  1  0  0  0
 17 99  1  0  0  0
 18 19  2  0  0  0
 18100  1  0  0  0
 19 20  1  0  0  0
 19 24  1  0  0  0
 20 21  2  0  0  0
 20101  1  0  0  0
 21 23  1  0  0  0
 22 28  1  0  0  0
 22 32  2  0  0  0
 26 27  1  0  0  0
 28102  1  0  0  0
 28103  1  0  0  0
 29104  1  0  0  0
 29105  1  0  0  0
 33 34  1  0  0  0
 33 66  1  0  0  0
 33 70  2  0  0  0
 34 36  1  0  0  0
 34 59  1  0  0  0
 34106  1  0  0  0
 35 44  2  0  0  0
 35 45  1  0  0  0
 35 68  1  0  0  0
 36 56  1  0  0  0
 36107  1  0  0  0
 37 39  1  0  0  0
 37 47  1  0  0  0
 37 66  1  0  0  0
 37108  1  0  0  0
 38 43  2  0  0  0
 38 46  1  0  0  0
 38 47  1  0  0  0
 39 64  1  0  0  0
 39 67  2  0  0  0
 40 52  1  0  0  0
 40 53  2  0  0  0
 40 58  1  0  0  0
 41109  1  0  0  0
 41110  1  0  0  0
 41111  1  0  0  0
 41 48  1  0  0  0
 42 43  1  0  0  0
 42 66  1  0  0  0
 42112  1  0  0  0
 42113  1  0  0  0
 43 44  1  0  0  0
 44114  1  0  0  0
 45 46  2  0  0  0
 45115  1  0  0  0
 46116  1  0  0  0
 47117  1  0  0  0
 47118  1  0  0  0
 48 56  1  0  0  0
 48 65  1  0  0  0
 48119  1  0  0  0
 49 50  1  0  0  0
 49 53  1  0  0  0
 49 64  1  0  0  0
 49120  1  0  0  0
 50 51  1  0  0  0
 50121  1  0  0  0
 50122  1  0  0  0
 51 52  1  0  0  0
 51123  1  0  0  0
 51124  1  0  0  0
 52125  1  0  0  0
 52126  1  0  0  0
 53 54  1  0  0  0
 54 55  2  0  0  0
 54127  1  0  0  0
 55 57  1  0  0  0
 55128  1  0  0  0
 56 69  2  0  0  0
 57 58  2  0  0  0
 57129  1  0  0  0
 58130  1  0  0  0
 59 60  1  0  0  0
 59 61  1  0  0  0
 59 62  1  0  0  0
 60131  1  0  0  0
 60132  1  0  0  0
 60133  1  0  0  0
 61134  1  0  0  0
 61135  1  0  0  0
 61136  1  0  0  0
 62137  1  0  0  0
 62138  1  0  0  0
 62139  1  0  0  0
 63 65  1  0  0  0
 63140  1  0  0  0
 63141  1  0  0  0
 63142  1  0  0  0
 64143  1  0  0  0
 65144  1  0  0  0
 68 81  1  0  0  0
 71 72  2  0  0  0
 71 74  1  0  0  0
 71145  1  0  0  0
 72 75  1  0  0  0
 72146  1  0  0  0
 73 74  2  0  0  0
 73 76  1  0  0  0
 73147  1  0  0  0
 74 77  1  0  0  0
 75 76  2  0  0  0
 75 82  1  0  0  0
 76 83  1  0  0  0
 77 84  1  0  0  0
 77 85  2  0  0  0
 78 79  1  0  0  0
 78 80  1  0  0  0
 78148  1  0  0  0
 78149  1  0  0  0
 79 81  1  0  0  0
 79150  1  0  0  0
 79151  1  0  0  0
 80 84  1  0  0  0
 80152  1  0  0  0
 80153  1  0  0  0
 81154  1  0  0  0
 81155  1  0  0  0
 82156  1  0  0  0
 82157  1  0  0  0
 83158  1  0  0  0
 84159  1  0  0  0
M  ISO  4   1 100  68 101  81 101  83 100
M  END
> <chiral flag>
0

> <version>
0

> <s_m_source_file>
/data/baiqing/PycharmProjects/Reinvent-master-3.2/result/LINK_invent/BTK/process_docking_weight1_custom_sum_contain_oxygen_bond_distance_aromatic_linkinvent_7_9_3/rearranged_h_0011.sdf

> <i_m_source_file_index>
65

> <r_mmod_Potential_Energy-OPLS-2005>
-119.14820098877

> <r_mmod_Stretch_Energy-OPLS-2005>
47.4343948364258

> <r_mmod_Bend_Energy-OPLS-2005>
120.841529846191

> <r_mmod_Torsional_Energy-OPLS-2005>
306.692504882812

> <r_mmod_Improper_Torsional_Energy-OPLS-2005>
13.2460374832153

> <r_mmod_Van_der_Waal_Energy-OPLS-2005>
137.856018066406

> <r_mmod_Electrostatic_Energy-OPLS-2005>
-552.005493164062

> <r_mmod_Solvation_Energy-OPLS-2005>
-238.037612915039

> <b_mmod_Minimization_Converged-OPLS-2005>
0

> <r_mmod_RMS_Derivative-OPLS-2005>
7.75098562240601

$$$$
65
                    3D
 Structure written by MMmdl.
167175  0  0  1  0            999 V2000
  -30.7315  -14.4031   20.6128 C   0  0  0  0  0  0
  -30.4184  -12.2797   19.4146 C   0  0  0  0  0  0
  -29.4913  -12.5137   18.2050 C   0  0  0  0  0  0
  -28.0120  -12.3812   18.6151 C   0  0  0  0  0  0
  -27.6660  -13.2050   19.8844 C   0  0  2  0  0  0
  -28.7035  -12.9539   21.0017 C   0  0  0  0  0  0
  -25.2600  -13.8164   20.5679 C   0  0  0  0  0  0
  -24.1845  -13.0441   20.9169 C   0  0  0  0  0  0
  -24.6396  -11.6906   20.8732 C   0  0  0  0  0  0
  -23.9059  -10.4292   21.0404 C   0  0  0  0  0  0
  -24.3612   -9.4208   21.9184 C   0  0  0  0  0  0
  -23.6288   -8.2244   22.0756 C   0  0  0  0  0  0
  -22.4272   -8.0283   21.3544 C   0  0  0  0  0  0
  -21.9907   -9.0257   20.4648 C   0  0  0  0  0  0
  -22.7234  -10.2135   20.3054 C   0  0  0  0  0  0
  -21.6854   -6.0735   22.5279 C   0  0  0  0  0  0
  -21.4012   -6.5639   23.8211 C   0  0  0  0  0  0
  -21.3658   -5.6792   24.9172 C   0  0  0  0  0  0
  -21.6043   -4.3055   24.7224 C   0  0  0  0  0  0
  -21.8821   -3.8148   23.4345 C   0  0  0  0  0  0
  -21.9192   -4.6962   22.3399 C   0  0  0  0  0  0
  -22.7864  -13.5242   21.1827 C   0  0  0  0  0  0
  -22.1661   -4.2150   21.0975 F   0  0  0  0  0  0
  -21.5628   -3.4539   25.7736 F   0  0  0  0  0  0
  -30.0444  -13.2431   20.4604 N   0  0  0  0  0  0
  -26.3043  -12.9333   20.3402 N   0  0  0  0  0  0
  -25.9322  -11.6490   20.5776 N   0  0  0  0  0  0
  -22.0504  -12.8240   22.0392 N   0  0  0  0  0  0
  -25.4331  -15.1882   20.4090 N   0  0  0  0  0  0
  -31.8318  -14.6034   20.0897 O   0  0  0  0  0  0
  -21.6637   -6.8882   21.4241 O   0  0  0  0  0  0
  -22.3547  -14.5547   20.6683 O   0  0  0  0  0  0
  -24.6088  -31.8721   23.2105 C   0  0  0  0  0  0
  -25.8991  -32.4851   23.8400 C   0  0  1  0  0  0
  -27.2405  -27.4769   20.0842 C   0  0  0  0  0  0
  -25.5862  -33.8643   24.2340 N   0  0  0  0  0  0
  -23.3946  -30.4925   21.5525 C   0  0  2  0  0  0
  -24.8408  -28.9610   20.1189 C   0  0  0  0  0  0
  -22.7392  -29.4662   22.5028 C   0  0  0  0  0  0
  -18.0257  -28.1378   22.8486 C   0  0  0  0  0  0
  -24.1479  -36.7325   23.2644 C   0  0  0  0  0  0
  -25.9184  -30.8514   21.3542 C   0  0  0  0  0  0
  -25.9978  -29.4861   20.7063 C   0  0  0  0  0  0
  -27.2011  -28.7520   20.6826 C   0  0  0  0  0  0
  -26.0656  -26.9526   19.4993 C   0  0  0  0  0  0
  -24.8678  -27.6912   19.5150 C   0  0  0  0  0  0
  -23.5993  -29.8207   20.1678 C   0  0  0  0  0  0
  -25.4104  -36.3131   24.0352 C   0  0  1  0  0  0
  -20.5848  -28.3641   23.1354 C   0  0  2  0  0  0
  -20.6743  -26.9390   22.5426 C   0  0  0  0  0  0
  -19.5728  -26.6382   21.5215 C   0  0  0  0  0  0
  -18.1902  -26.7916   22.1625 C   0  0  0  0  0  0
  -19.1511  -28.8825   23.2904 C   0  0  0  0  0  0
  -18.9448  -30.1423   23.8926 C   0  0  0  0  0  0
  -17.6457  -30.6581   24.0562 C   0  0  0  0  0  0
  -25.9033  -34.9495   23.5150 C   0  0  0  0  0  0
  -16.5343  -29.9093   23.6324 C   0  0  0  0  0  0
  -16.7251  -28.6508   23.0349 C   0  0  0  0  0  0
  -26.4423  -31.6615   25.0708 C   0  0  0  0  0  0
  -25.3707  -31.3724   26.1475 C   0  0  0  0  0  0
  -27.0225  -30.3073   24.6010 C   0  0  0  0  0  0
  -27.6005  -32.4328   25.7463 C   0  0  0  0  0  0
  -27.5588  -37.1820   24.8469 C   0  0  0  0  0  0
  -21.4127  -29.3016   22.3778 N   0  0  0  0  0  0
  -26.4299  -37.3809   23.9415 N   0  0  0  0  0  0
  -24.6590  -31.0858   22.0984 N   0  0  0  0  0  0
  -23.4190  -28.8220   23.3057 O   0  0  0  0  0  0
  -28.4339  -26.7971   20.0658 O   0  0  0  0  0  0
  -26.5606  -34.8942   22.4717 O   0  0  0  0  0  0
  -23.5298  -32.1445   23.7542 O   0  0  0  0  0  0
  -31.0044  -17.4006   20.2102 C   0  0  0  0  0  0
  -31.0832  -18.8004   20.2077 C   0  0  0  0  0  0
  -30.3174  -16.7573   21.2679 C   0  0  0  0  0  0
  -30.4638  -19.5180   21.2436 C   0  0  0  0  0  0
  -29.7498  -17.5713   22.2654 C   0  0  0  0  0  0
  -29.3736  -25.4442   22.8173 C   0  0  0  0  0  0
  -30.4949  -21.0353   21.2317 C   0  0  0  0  0  0
  -28.1213  -25.2466   21.9599 C   0  0  0  0  0  0
  -31.4677  -21.6380   22.2587 C   0  0  0  0  0  0
  -31.8454  -23.0885   21.9009 C   0  0  0  0  0  0
  -32.2288  -23.9800   23.1007 C   0  0  0  0  0  0
  -31.1039  -24.2231   24.1347 C   0  0  0  0  0  0
  -28.4002  -25.4247   20.4493 C   0  0  0  0  0  0
  -29.8078  -18.9138   22.2612 N   0  0  0  0  0  0
  -29.0683  -17.0067   23.3317 N   0  0  0  0  0  0
  -30.1089  -15.3486   21.3291 N   0  0  0  0  0  0
  -29.7939  -24.3754   23.5059 N   0  0  0  0  0  0
  -29.9724  -26.5216   22.8264 O   0  0  0  0  0  0
  -31.4632  -12.3717   19.1121 H   0  0  0  0  0  0
  -30.3115  -11.2614   19.7915 H   0  0  0  0  0  0
  -29.7233  -11.8040   17.4099 H   0  0  0  0  0  0
  -29.6693  -13.5076   17.7912 H   0  0  0  0  0  0
  -27.8108  -11.3241   18.7927 H   0  0  0  0  0  0
  -27.3654  -12.6787   17.7885 H   0  0  0  0  0  0
  -27.7229  -14.2582   19.6096 H   0  0  0  0  0  0
  -28.6646  -11.9125   21.3254 H   0  0  0  0  0  0
  -28.4627  -13.5379   21.8906 H   0  0  0  0  0  0
  -25.2758   -9.5683   22.4759 H   0  0  0  0  0  0
  -23.9997   -7.4637   22.7479 H   0  0  0  0  0  0
  -21.0840   -8.8777   19.8955 H   0  0  0  0  0  0
  -22.3697  -10.9674   19.6165 H   0  0  0  0  0  0
  -21.2008   -7.6149   23.9714 H   0  0  0  0  0  0
  -21.1477   -6.0521   25.9073 H   0  0  0  0  0  0
  -22.0604   -2.7612   23.2843 H   0  0  0  0  0  0
  -22.4112  -11.9888   22.4768 H   0  0  0  0  0  0
  -21.1129  -13.1278   22.2608 H   0  0  0  0  0  0
  -24.6749  -15.8508   20.5297 H   0  0  0  0  0  0
  -26.2990  -15.6264   20.1197 H   0  0  0  0  0  0
  -26.7077  -32.5587   23.1182 H   0  0  0  0  0  0
  -24.9936  -33.9794   25.0431 H   0  0  0  0  0  0
  -22.6804  -31.3066   21.4134 H   0  0  0  0  0  0
  -23.3745  -35.9657   23.3317 H   0  0  0  0  0  0
  -24.3569  -36.8923   22.2053 H   0  0  0  0  0  0
  -23.7226  -37.6534   23.6646 H   0  0  0  0  0  0
  -26.0154  -31.6159   20.5819 H   0  0  0  0  0  0
  -26.8130  -30.9143   21.9616 H   0  0  0  0  0  0
  -28.0987  -29.1579   21.1284 H   0  0  0  0  0  0
  -26.0651  -25.9901   19.0101 H   0  0  0  0  0  0
  -23.9793  -27.2811   19.0547 H   0  0  0  0  0  0
  -23.6967  -30.5921   19.4034 H   0  0  0  0  0  0
  -22.7262  -29.2312   19.8811 H   0  0  0  0  0  0
  -25.1273  -36.2009   25.0848 H   0  0  0  0  0  0
  -20.9911  -28.3189   24.1487 H   0  0  0  0  0  0
  -20.5650  -26.2253   23.3603 H   0  0  0  0  0  0
  -21.6620  -26.7434   22.1234 H   0  0  0  0  0  0
  -19.6903  -25.6301   21.1225 H   0  0  0  0  0  0
  -19.6685  -27.3207   20.6758 H   0  0  0  0  0  0
  -17.4178  -26.6665   21.4014 H   0  0  0  0  0  0
  -18.0295  -26.0054   22.9020 H   0  0  0  0  0  0
  -19.7930  -30.7206   24.2339 H   0  0  0  0  0  0
  -17.5025  -31.6275   24.5140 H   0  0  0  0  0  0
  -15.5353  -30.3016   23.7633 H   0  0  0  0  0  0
  -15.8641  -28.0838   22.7076 H   0  0  0  0  0  0
  -24.5825  -30.7134   25.7809 H   0  0  0  0  0  0
  -24.8952  -32.2891   26.4981 H   0  0  0  0  0  0
  -25.8047  -30.8829   27.0202 H   0  0  0  0  0  0
  -26.2730  -29.6893   24.1049 H   0  0  0  0  0  0
  -27.4004  -29.7239   25.4413 H   0  0  0  0  0  0
  -27.8563  -30.4403   23.9114 H   0  0  0  0  0  0
  -27.2602  -33.3598   26.2083 H   0  0  0  0  0  0
  -28.3775  -32.6950   25.0276 H   0  0  0  0  0  0
  -28.0715  -31.8441   26.5340 H   0  0  0  0  0  0
  -28.2614  -38.0104   24.7511 H   0  0  0  0  0  0
  -28.1065  -36.2644   24.6291 H   0  0  0  0  0  0
  -27.2307  -37.1464   25.8869 H   0  0  0  0  0  0
  -20.9294  -29.8736   21.7001 H   0  0  0  0  0  0
  -26.0204  -38.2894   24.1413 H   0  0  0  0  0  0
  -31.4456  -16.8630   19.3858 H   0  0  0  0  0  0
  -31.5959  -19.3125   19.4049 H   0  0  0  0  0  0
  -29.4880  -21.4190   21.4010 H   0  0  0  0  0  0
  -30.7713  -21.3627   20.2285 H   0  0  0  0  0  0
  -27.3333  -25.9187   22.3017 H   0  0  0  0  0  0
  -27.7406  -24.2380   22.1225 H   0  0  0  0  0  0
  -32.3817  -21.0433   22.2990 H   0  0  0  0  0  0
  -31.0164  -21.5652   23.2483 H   0  0  0  0  0  0
  -31.0300  -23.5596   21.3528 H   0  0  0  0  0  0
  -32.6745  -23.0685   21.1915 H   0  0  0  0  0  0
  -32.5444  -24.9479   22.7087 H   0  0  0  0  0  0
  -33.1051  -23.5723   23.6055 H   0  0  0  0  0  0
  -31.3357  -25.0926   24.7524 H   0  0  0  0  0  0
  -31.0474  -23.3743   24.8162 H   0  0  0  0  0  0
  -27.6882  -24.8516   19.8579 H   0  0  0  0  0  0
  -29.3732  -24.9985   20.1999 H   0  0  0  0  0  0
  -29.3716  -16.0831   23.6080 H   0  0  0  0  0  0
  -28.9159  -17.6186   24.1227 H   0  0  0  0  0  0
  -29.2902  -15.0574   21.8429 H   0  0  0  0  0  0
  -29.2096  -23.5492   23.4809 H   0  0  0  0  0  0
  1 25  1  0  0  0
  1 30  2  0  0  0
  1 86  1  0  0  0
  2  3  1  0  0  0
  2 25  1  0  0  0
  2 89  1  0  0  0
  2 90  1  0  0  0
  3  4  1  0  0  0
  3 91  1  0  0  0
  3 92  1  0  0  0
  4  5  1  0  0  0
  4 93  1  0  0  0
  4 94  1  0  0  0
  5  6  1  0  0  0
  5 26  1  0  0  0
  5 95  1  0  0  0
  6 25  1  0  0  0
  6 96  1  0  0  0
  6 97  1  0  0  0
  7  8  2  0  0  0
  7 26  1  0  0  0
  7 29  1  0  0  0
  8  9  1  0  0  0
  8 22  1  0  0  0
  9 10  1  0  0  0
  9 27  2  0  0  0
 10 11  2  0  0  0
 10 15  1  0  0  0
 11 12  1  0  0  0
 11 98  1  0  0  0
 12 13  2  0  0  0
 12 99  1  0  0  0
 13 14  1  0  0  0
 13 31  1  0  0  0
 14 15  2  0  0  0
 14100  1  0  0  0
 15101  1  0  0  0
 16 17  2  0  0  0
 16 21  1  0  0  0
 16 31  1  0  0  0
 17 18  1  0  0  0
 17102  1  0  0  0
 18 19  2  0  0  0
 18103  1  0  0  0
 19 20  1  0  0  0
 19 24  1  0  0  0
 20 21  2  0  0  0
 20104  1  0  0  0
 21 23  1  0  0  0
 22 28  1  0  0  0
 22 32  2  0  0  0
 26 27  1  0  0  0
 28105  1  0  0  0
 28106  1  0  0  0
 29107  1  0  0  0
 29108  1  0  0  0
 33 34  1  0  0  0
 33 66  1  0  0  0
 33 70  2  0  0  0
 34 36  1  0  0  0
 34 59  1  0  0  0
 34109  1  0  0  0
 35 44  2  0  0  0
 35 45  1  0  0  0
 35 68  1  0  0  0
 36 56  1  0  0  0
 36110  1  0  0  0
 37 39  1  0  0  0
 37 47  1  0  0  0
 37 66  1  0  0  0
 37111  1  0  0  0
 38 43  2  0  0  0
 38 46  1  0  0  0
 38 47  1  0  0  0
 39 64  1  0  0  0
 39 67  2  0  0  0
 40 52  1  0  0  0
 40 53  2  0  0  0
 40 58  1  0  0  0
 41112  1  0  0  0
 41113  1  0  0  0
 41114  1  0  0  0
 41 48  1  0  0  0
 42 43  1  0  0  0
 42 66  1  0  0  0
 42115  1  0  0  0
 42116  1  0  0  0
 43 44  1  0  0  0
 44117  1  0  0  0
 45 46  2  0  0  0
 45118  1  0  0  0
 46119  1  0  0  0
 47120  1  0  0  0
 47121  1  0  0  0
 48 56  1  0  0  0
 48 65  1  0  0  0
 48122  1  0  0  0
 49 50  1  0  0  0
 49 53  1  0  0  0
 49 64  1  0  0  0
 49123  1  0  0  0
 50 51  1  0  0  0
 50124  1  0  0  0
 50125  1  0  0  0
 51 52  1  0  0  0
 51126  1  0  0  0
 51127  1  0  0  0
 52128  1  0  0  0
 52129  1  0  0  0
 53 54  1  0  0  0
 54 55  2  0  0  0
 54130  1  0  0  0
 55 57  1  0  0  0
 55131  1  0  0  0
 56 69  2  0  0  0
 57 58  2  0  0  0
 57132  1  0  0  0
 58133  1  0  0  0
 59 60  1  0  0  0
 59 61  1  0  0  0
 59 62  1  0  0  0
 60134  1  0  0  0
 60135  1  0  0  0
 60136  1  0  0  0
 61137  1  0  0  0
 61138  1  0  0  0
 61139  1  0  0  0
 62140  1  0  0  0
 62141  1  0  0  0
 62142  1  0  0  0
 63 65  1  0  0  0
 63143  1  0  0  0
 63144  1  0  0  0
 63145  1  0  0  0
 64146  1  0  0  0
 65147  1  0  0  0
 68 83  1  0  0  0
 71 72  2  0  0  0
 71 73  1  0  0  0
 71148  1  0  0  0
 72 74  1  0  0  0
 72149  1  0  0  0
 73 75  2  0  0  0
 73 86  1  0  0  0
 74 77  1  0  0  0
 74 84  2  0  0  0
 75 84  1  0  0  0
 75 85  1  0  0  0
 76 78  1  0  0  0
 76 87  1  0  0  0
 76 88  2  0  0  0
 77 79  1  0  0  0
 77150  1  0  0  0
 77151  1  0  0  0
 78 83  1  0  0  0
 78152  1  0  0  0
 78153  1  0  0  0
 79 80  1  0  0  0
 79154  1  0  0  0
 79155  1  0  0  0
 80 81  1  0  0  0
 80156  1  0  0  0
 80157  1  0  0  0
 81 82  1  0  0  0
 81158  1  0  0  0
 81159  1  0  0  0
 82 87  1  0  0  0
 82160  1  0  0  0
 82161  1  0  0  0
 83162  1  0  0  0
 83163  1  0  0  0
 85164  1  0  0  0
 85165  1  0  0  0
 86166  1  0  0  0
 87167  1  0  0  0
M  ISO  4   1 100  68 101  83 101  86 100
M  END
> <chiral flag>
0

> <version>
0

> <s_m_source_file>
/data/baiqing/PycharmProjects/Reinvent-master-3.2/result/LINK_invent/BTK/process_docking_weight1_custom_sum_contain_oxygen_bond_distance_aromatic_linkinvent_7_9_3/rearranged_h_0011.sdf

> <i_m_source_file_index>
66

> <r_mmod_Potential_Energy-OPLS-2005>
-493.572692871094

> <r_mmod_Stretch_Energy-OPLS-2005>
32.1306076049805

> <r_mmod_Bend_Energy-OPLS-2005>
96.796989440918

> <r_mmod_Torsional_Energy-OPLS-2005>
228.473739624023

> <r_mmod_Improper_Torsional_Energy-OPLS-2005>
7.22835874557495

> <r_mmod_Van_der_Waal_Energy-OPLS-2005>
164.959579467773

> <r_mmod_Electrostatic_Energy-OPLS-2005>
-779.034057617188

> <r_mmod_Solvation_Energy-OPLS-2005>
-252.480987548828

> <b_mmod_Minimization_Converged-OPLS-2005>
0

> <r_mmod_RMS_Derivative-OPLS-2005>
1.60250806808472

$$$$
66
                    3D
 Structure written by MMmdl.
155163  0  0  1  0            999 V2000
  -30.6307  -14.6213   20.5027 C   0  0  0  0  0  0
  -30.4417  -12.3852   19.4376 C   0  0  0  0  0  0
  -29.5029  -12.5021   18.2154 C   0  0  0  0  0  0
  -28.0254  -12.3517   18.6296 C   0  0  0  0  0  0
  -27.6571  -13.2137   19.8665 C   0  0  2  0  0  0
  -28.7070  -13.0502   20.9894 C   0  0  0  0  0  0
  -25.2586  -13.8168   20.5703 C   0  0  0  0  0  0
  -24.1849  -13.0441   20.9207 C   0  0  0  0  0  0
  -24.6404  -11.6907   20.8753 C   0  0  0  0  0  0
  -23.9068  -10.4291   21.0412 C   0  0  0  0  0  0
  -24.3619   -9.4206   21.9189 C   0  0  0  0  0  0
  -23.6294   -8.2244   22.0755 C   0  0  0  0  0  0
  -22.4277   -8.0282   21.3544 C   0  0  0  0  0  0
  -21.9919   -9.0255   20.4644 C   0  0  0  0  0  0
  -22.7247  -10.2135   20.3055 C   0  0  0  0  0  0
  -21.6851   -6.0741   22.5279 C   0  0  0  0  0  0
  -21.4004   -6.5642   23.8212 C   0  0  0  0  0  0
  -21.3654   -5.6793   24.9175 C   0  0  0  0  0  0
  -21.6046   -4.3058   24.7227 C   0  0  0  0  0  0
  -21.8825   -3.8153   23.4346 C   0  0  0  0  0  0
  -21.9195   -4.6970   22.3402 C   0  0  0  0  0  0
  -22.7866  -13.5233   21.1861 C   0  0  0  0  0  0
  -22.1666   -4.2154   21.0981 F   0  0  0  0  0  0
  -21.5633   -3.4541   25.7739 F   0  0  0  0  0  0
  -30.0214  -13.3973   20.4256 N   0  0  0  0  0  0
  -26.3017  -12.9341   20.3347 N   0  0  0  0  0  0
  -25.9335  -11.6501   20.5776 N   0  0  0  0  0  0
  -22.0495  -12.8215   22.0395 N   0  0  0  0  0  0
  -25.4308  -15.1887   20.4107 N   0  0  0  0  0  0
  -31.7902  -14.7873   20.1124 O   0  0  0  0  0  0
  -21.6638   -6.8884   21.4242 O   0  0  0  0  0  0
  -22.3563  -14.5546   20.6715 O   0  0  0  0  0  0
  -24.6249  -31.8601   23.2030 C   0  0  0  0  0  0
  -25.9101  -32.4780   23.8349 C   0  0  1  0  0  0
  -27.2294  -27.3296   20.1152 C   0  0  0  0  0  0
  -25.5912  -33.8575   24.2275 N   0  0  0  0  0  0
  -23.4175  -30.4834   21.5463 C   0  0  2  0  0  0
  -24.8654  -28.9420   20.1132 C   0  0  0  0  0  0
  -22.7473  -29.4616   22.4950 C   0  0  0  0  0  0
  -18.0282  -28.1391   22.8490 C   0  0  0  0  0  0
  -24.1468  -36.7269   23.2639 C   0  0  0  0  0  0
  -25.9572  -30.7981   21.3693 C   0  0  0  0  0  0
  -26.0349  -29.4251   20.7134 C   0  0  0  0  0  0
  -27.2200  -28.6313   20.7036 C   0  0  0  0  0  0
  -26.0314  -26.8961   19.4980 C   0  0  0  0  0  0
  -24.8650  -27.6818   19.4980 C   0  0  0  0  0  0
  -23.6311  -29.8180   20.1621 C   0  0  0  0  0  0
  -25.4094  -36.3068   24.0328 C   0  0  1  0  0  0
  -20.5882  -28.3677   23.1299 C   0  0  2  0  0  0
  -20.6764  -26.9404   22.5418 C   0  0  0  0  0  0
  -19.5735  -26.6398   21.5218 C   0  0  0  0  0  0
  -18.1916  -26.7938   22.1632 C   0  0  0  0  0  0
  -19.1537  -28.8854   23.2884 C   0  0  0  0  0  0
  -18.9463  -30.1463   23.8893 C   0  0  0  0  0  0
  -17.6463  -30.6592   24.0575 C   0  0  0  0  0  0
  -25.9048  -34.9447   23.5101 C   0  0  0  0  0  0
  -16.5351  -29.9093   23.6342 C   0  0  0  0  0  0
  -16.7273  -28.6518   23.0344 C   0  0  0  0  0  0
  -26.4497  -31.6586   25.0708 C   0  0  0  0  0  0
  -25.3729  -31.3699   26.1427 C   0  0  0  0  0  0
  -27.0360  -30.3025   24.6142 C   0  0  0  0  0  0
  -27.6049  -32.4323   25.7487 C   0  0  0  0  0  0
  -27.5569  -37.1766   24.8452 C   0  0  0  0  0  0
  -21.4190  -29.3027   22.3697 N   0  0  0  0  0  0
  -26.4251  -37.3782   23.9445 N   0  0  0  0  0  0
  -24.6853  -31.0632   22.0969 N   0  0  0  0  0  0
  -23.4207  -28.8155   23.3020 O   0  0  0  0  0  0
  -28.3560  -26.4910   20.1581 O   0  0  0  0  0  0
  -26.5634  -34.8923   22.4678 O   0  0  0  0  0  0
  -23.5416  -32.1391   23.7371 O   0  0  0  0  0  0
  -28.8284  -17.9278   21.1479 C   0  0  0  0  0  0
  -31.0495  -17.8243   20.2476 C   0  0  0  0  0  0
  -29.9272  -17.1176   20.7512 C   0  0  0  0  0  0
  -29.9864  -20.0688   20.6152 C   0  0  0  0  0  0
  -28.8465  -19.3531   21.0828 C   0  0  0  0  0  0
  -31.0769  -19.2490   20.1819 C   0  0  0  0  0  0
  -31.2627  -21.9668   21.4112 C   0  0  0  0  0  0
  -29.3246  -24.0274   20.3659 C   0  0  0  0  0  0
  -28.9619  -22.4745   20.5070 C   0  0  0  0  0  0
  -28.1312  -25.0308   20.0742 C   0  0  0  0  0  0
  -29.8205  -15.6602   20.8765 N   0  0  0  0  0  0
  -30.1065  -21.5137   20.6340 N   0  0  0  0  0  0
  -27.7544  -20.0274   21.5216 F   0  0  0  0  0  0
  -32.1981  -19.8358   19.6911 F   0  0  0  0  0  0
  -31.4794  -12.5187   19.1250 H   0  0  0  0  0  0
  -30.3884  -11.3871   19.8740 H   0  0  0  0  0  0
  -29.7573  -11.7455   17.4716 H   0  0  0  0  0  0
  -29.6491  -13.4681   17.7289 H   0  0  0  0  0  0
  -27.8488  -11.2979   18.8482 H   0  0  0  0  0  0
  -27.3725  -12.6007   17.7920 H   0  0  0  0  0  0
  -27.6793  -14.2522   19.5365 H   0  0  0  0  0  0
  -28.7195  -12.0211   21.3513 H   0  0  0  0  0  0
  -28.4598  -13.6656   21.8559 H   0  0  0  0  0  0
  -25.2763   -9.5684   22.4765 H   0  0  0  0  0  0
  -24.0005   -7.4636   22.7475 H   0  0  0  0  0  0
  -21.0857   -8.8778   19.8942 H   0  0  0  0  0  0
  -22.3713  -10.9678   19.6165 H   0  0  0  0  0  0
  -21.1982   -7.6149   23.9716 H   0  0  0  0  0  0
  -21.1468   -6.0522   25.9076 H   0  0  0  0  0  0
  -22.0606   -2.7614   23.2847 H   0  0  0  0  0  0
  -22.4108  -11.9863   22.4767 H   0  0  0  0  0  0
  -21.1107  -13.1231   22.2590 H   0  0  0  0  0  0
  -24.6629  -15.8415   20.5229 H   0  0  0  0  0  0
  -26.2643  -15.6203   20.0331 H   0  0  0  0  0  0
  -26.7171  -32.5470   23.1103 H   0  0  0  0  0  0
  -25.0001  -33.9718   25.0377 H   0  0  0  0  0  0
  -22.7084  -31.3018   21.4039 H   0  0  0  0  0  0
  -23.3756  -35.9570   23.3251 H   0  0  0  0  0  0
  -24.3565  -36.8951   22.2065 H   0  0  0  0  0  0
  -23.7183  -37.6431   23.6706 H   0  0  0  0  0  0
  -26.0778  -31.5618   20.5993 H   0  0  0  0  0  0
  -26.8411  -30.8542   21.9926 H   0  0  0  0  0  0
  -28.1180  -28.9983   21.1813 H   0  0  0  0  0  0
  -25.9624  -25.9340   19.0146 H   0  0  0  0  0  0
  -23.9668  -27.3040   19.0293 H   0  0  0  0  0  0
  -23.7433  -30.5928   19.4028 H   0  0  0  0  0  0
  -22.7533  -29.2413   19.8644 H   0  0  0  0  0  0
  -25.1265  -36.1895   25.0813 H   0  0  0  0  0  0
  -20.9965  -28.3252   24.1423 H   0  0  0  0  0  0
  -20.5674  -26.2282   23.3609 H   0  0  0  0  0  0
  -21.6629  -26.7440   22.1203 H   0  0  0  0  0  0
  -19.6888  -25.6318   21.1223 H   0  0  0  0  0  0
  -19.6673  -27.3231   20.6764 H   0  0  0  0  0  0
  -17.4185  -26.6697   21.4033 H   0  0  0  0  0  0
  -18.0301  -26.0081   22.9027 H   0  0  0  0  0  0
  -19.7939  -30.7281   24.2256 H   0  0  0  0  0  0
  -17.5018  -31.6267   24.5185 H   0  0  0  0  0  0
  -15.5352  -30.2987   23.7681 H   0  0  0  0  0  0
  -15.8671  -28.0854   22.7036 H   0  0  0  0  0  0
  -24.5914  -30.7046   25.7736 H   0  0  0  0  0  0
  -24.8903  -32.2854   26.4856 H   0  0  0  0  0  0
  -25.8043  -30.8865   27.0203 H   0  0  0  0  0  0
  -26.2941  -29.6749   24.1189 H   0  0  0  0  0  0
  -27.4114  -29.7294   25.4632 H   0  0  0  0  0  0
  -27.8773  -30.4333   23.9329 H   0  0  0  0  0  0
  -27.2663  -33.3632   26.2048 H   0  0  0  0  0  0
  -28.3870  -32.6873   25.0321 H   0  0  0  0  0  0
  -28.0705  -31.8455   26.5417 H   0  0  0  0  0  0
  -28.2520  -38.0131   24.7610 H   0  0  0  0  0  0
  -28.1133  -36.2671   24.6131 H   0  0  0  0  0  0
  -27.2311  -37.1232   25.8855 H   0  0  0  0  0  0
  -20.9369  -29.8747   21.6907 H   0  0  0  0  0  0
  -26.0118  -38.2825   24.1550 H   0  0  0  0  0  0
  -27.9356  -17.4554   21.5306 H   0  0  0  0  0  0
  -31.9214  -17.2887   19.9040 H   0  0  0  0  0  0
  -31.8299  -21.1485   21.8589 H   0  0  0  0  0  0
  -30.9562  -22.6143   22.2333 H   0  0  0  0  0  0
  -31.9470  -22.5299   20.7749 H   0  0  0  0  0  0
  -30.0679  -24.1487   19.5774 H   0  0  0  0  0  0
  -29.8104  -24.3564   21.2840 H   0  0  0  0  0  0
  -28.3746  -22.1756   19.6372 H   0  0  0  0  0  0
  -28.3041  -22.3566   21.3690 H   0  0  0  0  0  0
  -27.3203  -24.7776   20.7588 H   0  0  0  0  0  0
  -27.7746  -24.7947   19.0711 H   0  0  0  0  0  0
  -28.9258  -15.3325   21.2085 H   0  0  0  0  0  0
  1 25  1  0  0  0
  1 30  2  0  0  0
  1 81  1  0  0  0
  2  3  1  0  0  0
  2 25  1  0  0  0
  2 85  1  0  0  0
  2 86  1  0  0  0
  3  4  1  0  0  0
  3 87  1  0  0  0
  3 88  1  0  0  0
  4  5  1  0  0  0
  4 89  1  0  0  0
  4 90  1  0  0  0
  5  6  1  0  0  0
  5 26  1  0  0  0
  5 91  1  0  0  0
  6 25  1  0  0  0
  6 92  1  0  0  0
  6 93  1  0  0  0
  7  8  2  0  0  0
  7 26  1  0  0  0
  7 29  1  0  0  0
  8  9  1  0  0  0
  8 22  1  0  0  0
  9 10  1  0  0  0
  9 27  2  0  0  0
 10 11  2  0  0  0
 10 15  1  0  0  0
 11 12  1  0  0  0
 11 94  1  0  0  0
 12 13  2  0  0  0
 12 95  1  0  0  0
 13 14  1  0  0  0
 13 31  1  0  0  0
 14 15  2  0  0  0
 14 96  1  0  0  0
 15 97  1  0  0  0
 16 17  2  0  0  0
 16 21  1  0  0  0
 16 31  1  0  0  0
 17 18  1  0  0  0
 17 98  1  0  0  0
 18 19  2  0  0  0
 18 99  1  0  0  0
 19 20  1  0  0  0
 19 24  1  0  0  0
 20 21  2  0  0  0
 20100  1  0  0  0
 21 23  1  0  0  0
 22 28  1  0  0  0
 22 32  2  0  0  0
 26 27  1  0  0  0
 28101  1  0  0  0
 28102  1  0  0  0
 29103  1  0  0  0
 29104  1  0  0  0
 33 34  1  0  0  0
 33 66  1  0  0  0
 33 70  2  0  0  0
 34 36  1  0  0  0
 34 59  1  0  0  0
 34105  1  0  0  0
 35 44  2  0  0  0
 35 45  1  0  0  0
 35 68  1  0  0  0
 36 56  1  0  0  0
 36106  1  0  0  0
 37 39  1  0  0  0
 37 47  1  0  0  0
 37 66  1  0  0  0
 37107  1  0  0  0
 38 43  2  0  0  0
 38 46  1  0  0  0
 38 47  1  0  0  0
 39 64  1  0  0  0
 39 67  2  0  0  0
 40 52  1  0  0  0
 40 53  2  0  0  0
 40 58  1  0  0  0
 41108  1  0  0  0
 41109  1  0  0  0
 41110  1  0  0  0
 41 48  1  0  0  0
 42 43  1  0  0  0
 42 66  1  0  0  0
 42111  1  0  0  0
 42112  1  0  0  0
 43 44  1  0  0  0
 44113  1  0  0  0
 45 46  2  0  0  0
 45114  1  0  0  0
 46115  1  0  0  0
 47116  1  0  0  0
 47117  1  0  0  0
 48 56  1  0  0  0
 48 65  1  0  0  0
 48118  1  0  0  0
 49 50  1  0  0  0
 49 53  1  0  0  0
 49 64  1  0  0  0
 49119  1  0  0  0
 50 51  1  0  0  0
 50120  1  0  0  0
 50121  1  0  0  0
 51 52  1  0  0  0
 51122  1  0  0  0
 51123  1  0  0  0
 52124  1  0  0  0
 52125  1  0  0  0
 53 54  1  0  0  0
 54 55  2  0  0  0
 54126  1  0  0  0
 55 57  1  0  0  0
 55127  1  0  0  0
 56 69  2  0  0  0
 57 58  2  0  0  0
 57128  1  0  0  0
 58129  1  0  0  0
 59 60  1  0  0  0
 59 61  1  0  0  0
 59 62  1  0  0  0
 60130  1  0  0  0
 60131  1  0  0  0
 60132  1  0  0  0
 61133  1  0  0  0
 61134  1  0  0  0
 61135  1  0  0  0
 62136  1  0  0  0
 62137  1  0  0  0
 62138  1  0  0  0
 63 65  1  0  0  0
 63139  1  0  0  0
 63140  1  0  0  0
 63141  1  0  0  0
 64142  1  0  0  0
 65143  1  0  0  0
 68 80  1  0  0  0
 71 73  2  0  0  0
 71 75  1  0  0  0
 71144  1  0  0  0
 72 73  1  0  0  0
 72 76  2  0  0  0
 72145  1  0  0  0
 73 81  1  0  0  0
 74 75  2  0  0  0
 74 76  1  0  0  0
 74 82  1  0  0  0
 75 83  1  0  0  0
 76 84  1  0  0  0
 77 82  1  0  0  0
 77146  1  0  0  0
 77147  1  0  0  0
 77148  1  0  0  0
 78 79  1  0  0  0
 78 80  1  0  0  0
 78149  1  0  0  0
 78150  1  0  0  0
 79 82  1  0  0  0
 79151  1  0  0  0
 79152  1  0  0  0
 80153  1  0  0  0
 80154  1  0  0  0
 81155  1  0  0  0
M  ISO  4   1 100  68 101  80 101  81 100
M  END
> <chiral flag>
0

> <version>
0

> <s_m_source_file>
/data/baiqing/PycharmProjects/Reinvent-master-3.2/result/LINK_invent/BTK/process_docking_weight1_custom_sum_contain_oxygen_bond_distance_aromatic_linkinvent_7_9_3/rearranged_h_0011.sdf

> <i_m_source_file_index>
67

> <r_mmod_Potential_Energy-OPLS-2005>
152.484451293945

> <r_mmod_Stretch_Energy-OPLS-2005>
80.2904891967773

> <r_mmod_Bend_Energy-OPLS-2005>
142.127502441406

> <r_mmod_Torsional_Energy-OPLS-2005>
217.927917480469

> <r_mmod_Improper_Torsional_Energy-OPLS-2005>
6.11183977127075

> <r_mmod_Van_der_Waal_Energy-OPLS-2005>
153.729019165039

> <r_mmod_Electrostatic_Energy-OPLS-2005>
-271.880279541016

> <r_mmod_Solvation_Energy-OPLS-2005>
-218.362091064453

> <b_mmod_Minimization_Converged-OPLS-2005>
0

> <r_mmod_RMS_Derivative-OPLS-2005>
1.17486619949341

$$$$
67
                    3D
 Structure written by MMmdl.
154162  0  0  1  0            999 V2000
  -30.3889  -15.3499   20.3365 C   0  0  0  0  0  0
  -30.4264  -12.8432   19.5755 C   0  0  0  0  0  0
  -29.5470  -12.5926   18.3236 C   0  0  0  0  0  0
  -28.0953  -12.3054   18.7364 C   0  0  0  0  0  0
  -27.6191  -13.2769   19.8431 C   0  0  2  0  0  0
  -28.6391  -13.4857   20.9863 C   0  0  0  0  0  0
  -25.2418  -13.8205   20.5696 C   0  0  0  0  0  0
  -24.1745  -13.0421   20.9204 C   0  0  0  0  0  0
  -24.6454  -11.6904   20.8798 C   0  0  0  0  0  0
  -23.9100  -10.4284   21.0437 C   0  0  0  0  0  0
  -24.3611   -9.4182   21.9218 C   0  0  0  0  0  0
  -23.6282   -8.2226   22.0768 C   0  0  0  0  0  0
  -22.4267   -8.0256   21.3563 C   0  0  0  0  0  0
  -21.9934   -9.0237   20.4673 C   0  0  0  0  0  0
  -22.7259  -10.2135   20.3098 C   0  0  0  0  0  0
  -21.6864   -6.0739   22.5273 C   0  0  0  0  0  0
  -21.4027   -6.5665   23.8208 C   0  0  0  0  0  0
  -21.3636   -5.6806   24.9170 C   0  0  0  0  0  0
  -21.6020   -4.3092   24.7206 C   0  0  0  0  0  0
  -21.8816   -3.8165   23.4332 C   0  0  0  0  0  0
  -21.9214   -4.6971   22.3398 C   0  0  0  0  0  0
  -22.7786  -13.5204   21.1772 C   0  0  0  0  0  0
  -22.1676   -4.2174   21.0979 F   0  0  0  0  0  0
  -21.5597   -3.4577   25.7727 F   0  0  0  0  0  0
  -29.8616  -14.0129   20.3621 N   0  0  0  0  0  0
  -26.2905  -12.9510   20.3334 N   0  0  0  0  0  0
  -25.9450  -11.6619   20.5891 N   0  0  0  0  0  0
  -22.0442  -12.8249   22.0368 N   0  0  0  0  0  0
  -25.3935  -15.1893   20.3972 N   0  0  0  0  0  0
  -31.5911  -15.3445   20.0356 O   0  0  0  0  0  0
  -21.6616   -6.8876   21.4229 O   0  0  0  0  0  0
  -22.3507  -14.5506   20.6608 O   0  0  0  0  0  0
  -24.6753  -31.8091   23.1592 C   0  0  0  0  0  0
  -25.9413  -32.4498   23.8100 C   0  0  1  0  0  0
  -27.2381  -26.8193   20.2101 C   0  0  0  0  0  0
  -25.6046  -33.8310   24.2046 N   0  0  0  0  0  0
  -23.4987  -30.4150   21.5011 C   0  0  2  0  0  0
  -24.9626  -28.7769   20.1247 C   0  0  0  0  0  0
  -22.7753  -29.4345   22.4647 C   0  0  0  0  0  0
  -18.0363  -28.1446   22.8466 C   0  0  0  0  0  0
  -24.1507  -36.7139   23.2640 C   0  0  0  0  0  0
  -26.0760  -30.5855   21.4079 C   0  0  0  0  0  0
  -26.1504  -29.1601   20.7625 C   0  0  0  0  0  0
  -27.2812  -28.2046   20.7744 C   0  0  0  0  0  0
  -26.0211  -26.6169   19.5172 C   0  0  0  0  0  0
  -24.9284  -27.5289   19.4812 C   0  0  0  0  0  0
  -23.7579  -29.7219   20.1337 C   0  0  0  0  0  0
  -25.4140  -36.2888   24.0294 C   0  0  1  0  0  0
  -20.5999  -28.3782   23.1165 C   0  0  2  0  0  0
  -20.6802  -26.9455   22.5386 C   0  0  0  0  0  0
  -19.5764  -26.6415   21.5209 C   0  0  0  0  0  0
  -18.1965  -26.7973   22.1650 C   0  0  0  0  0  0
  -19.1633  -28.8934   23.2794 C   0  0  0  0  0  0
  -18.9526  -30.1508   23.8844 C   0  0  0  0  0  0
  -17.6506  -30.6601   24.0579 C   0  0  0  0  0  0
  -25.9095  -34.9289   23.4981 C   0  0  0  0  0  0
  -16.5399  -29.9091   23.6354 C   0  0  0  0  0  0
  -16.7334  -28.6531   23.0356 C   0  0  0  0  0  0
  -26.4646  -31.6444   25.0647 C   0  0  0  0  0  0
  -25.3783  -31.3746   26.1317 C   0  0  0  0  0  0
  -27.0547  -30.2780   24.6459 C   0  0  0  0  0  0
  -27.6142  -32.4254   25.7440 C   0  0  0  0  0  0
  -27.5559  -37.1746   24.8475 C   0  0  0  0  0  0
  -21.4408  -29.3041   22.3472 N   0  0  0  0  0  0
  -26.4280  -37.3634   23.9400 N   0  0  0  0  0  0
  -24.7713  -30.9688   22.0749 N   0  0  0  0  0  0
  -23.4264  -28.7934   23.2932 O   0  0  0  0  0  0
  -28.2187  -25.6583   20.2742 O   0  0  0  0  0  0
  -26.5695  -34.8837   22.4568 O   0  0  0  0  0  0
  -23.5806  -32.1100   23.6627 O   0  0  0  0  0  0
  -30.2727  -20.0162   18.7810 C   0  0  0  0  0  0
  -28.7343  -17.6893   18.6199 C   0  0  0  0  0  0
  -29.8174  -19.5459   17.5214 C   0  0  0  0  0  0
  -28.9075  -18.4663   17.4638 C   0  0  0  0  0  0
  -29.5868  -19.6350   19.9614 C   0  0  0  0  0  0
  -29.3203  -18.0582   19.8522 C   0  0  0  0  0  0
  -28.9692  -22.5254   20.2825 C   0  0  0  0  0  0
  -30.2350  -20.2850   16.2558 C   0  0  0  0  0  0
  -28.1714  -18.0696   16.1846 C   0  0  0  0  0  0
  -27.9084  -23.9851   20.1967 C   0  0  0  0  0  0
  -28.7163  -21.0265   20.2166 N   0  0  0  0  0  0
  -29.6576  -16.6410   20.6018 N   0  0  0  0  0  0
  -30.1501  -22.8182   20.4805 O   0  0  0  0  0  0
  -31.4587  -13.0109   19.2641 H   0  0  0  0  0  0
  -30.4601  -11.9435   20.1977 H   0  0  0  0  0  0
  -29.9461  -11.7600   17.7467 H   0  0  0  0  0  0
  -29.5765  -13.4608   17.6646 H   0  0  0  0  0  0
  -28.0575  -11.2792   19.1018 H   0  0  0  0  0  0
  -27.4313  -12.3537   17.8760 H   0  0  0  0  0  0
  -27.5353  -14.2380   19.3376 H   0  0  0  0  0  0
  -28.8315  -12.5657   21.5479 H   0  0  0  0  0  0
  -28.2488  -14.2211   21.6922 H   0  0  0  0  0  0
  -25.2754   -9.5605   22.4836 H   0  0  0  0  0  0
  -23.9963   -7.4621   22.7528 H   0  0  0  0  0  0
  -21.0858   -8.8737   19.8996 H   0  0  0  0  0  0
  -22.3692  -10.9653   19.6198 H   0  0  0  0  0  0
  -21.2043   -7.6189   23.9716 H   0  0  0  0  0  0
  -21.1458   -6.0545   25.9063 H   0  0  0  0  0  0
  -22.0640   -2.7640   23.2826 H   0  0  0  0  0  0
  -22.4168  -11.9911   22.4664 H   0  0  0  0  0  0
  -21.1087  -13.1329   22.2722 H   0  0  0  0  0  0
  -24.5719  -15.7820   20.3648 H   0  0  0  0  0  0
  -26.2140  -15.6177   19.9888 H   0  0  0  0  0  0
  -26.7475  -32.5056   23.0803 H   0  0  0  0  0  0
  -25.0211  -33.9319   25.0226 H   0  0  0  0  0  0
  -22.8157  -31.2472   21.3156 H   0  0  0  0  0  0
  -23.3764  -35.9474   23.3280 H   0  0  0  0  0  0
  -24.3560  -36.8785   22.2046 H   0  0  0  0  0  0
  -23.7301  -37.6341   23.6685 H   0  0  0  0  0  0
  -26.2742  -31.3162   20.6231 H   0  0  0  0  0  0
  -26.9253  -30.6455   22.0725 H   0  0  0  0  0  0
  -28.1850  -28.5037   21.2876 H   0  0  0  0  0  0
  -25.8902  -25.6711   19.0130 H   0  0  0  0  0  0
  -24.0338  -27.2276   18.9586 H   0  0  0  0  0  0
  -23.9619  -30.4831   19.3825 H   0  0  0  0  0  0
  -22.8665  -29.1935   19.7878 H   0  0  0  0  0  0
  -25.1349  -36.1619   25.0784 H   0  0  0  0  0  0
  -21.0126  -28.3393   24.1274 H   0  0  0  0  0  0
  -20.5680  -26.2394   23.3617 H   0  0  0  0  0  0
  -21.6648  -26.7366   22.1196 H   0  0  0  0  0  0
  -19.6869  -25.6318   21.1235 H   0  0  0  0  0  0
  -19.6688  -27.3214   20.6722 H   0  0  0  0  0  0
  -17.4216  -26.6751   21.4043 H   0  0  0  0  0  0
  -18.0349  -26.0109   22.9051 H   0  0  0  0  0  0
  -19.7977  -30.7371   24.2183 H   0  0  0  0  0  0
  -17.5039  -31.6266   24.5220 H   0  0  0  0  0  0
  -15.5392  -30.2999   23.7646 H   0  0  0  0  0  0
  -15.8753  -28.0822   22.7096 H   0  0  0  0  0  0
  -24.5938  -30.7092   25.7667 H   0  0  0  0  0  0
  -24.9015  -32.2973   26.4630 H   0  0  0  0  0  0
  -25.8048  -30.8993   27.0157 H   0  0  0  0  0  0
  -26.3222  -29.6439   24.1441 H   0  0  0  0  0  0
  -27.3997  -29.7146   25.5138 H   0  0  0  0  0  0
  -27.9212  -30.3895   23.9941 H   0  0  0  0  0  0
  -27.2711  -33.3600   26.1885 H   0  0  0  0  0  0
  -28.4041  -32.6739   25.0339 H   0  0  0  0  0  0
  -28.0712  -31.8455   26.5461 H   0  0  0  0  0  0
  -28.2592  -38.0024   24.7463 H   0  0  0  0  0  0
  -28.1065  -36.2554   24.6399 H   0  0  0  0  0  0
  -27.2256  -37.1479   25.8877 H   0  0  0  0  0  0
  -20.9689  -29.8771   21.6622 H   0  0  0  0  0  0
  -26.0103  -38.2680   24.1412 H   0  0  0  0  0  0
  -30.8076  -20.9521   18.7662 H   0  0  0  0  0  0
  -28.2759  -16.7128   18.5094 H   0  0  0  0  0  0
  -31.1546  -20.8541   16.4015 H   0  0  0  0  0  0
  -29.4516  -20.9736   15.9432 H   0  0  0  0  0  0
  -30.4292  -19.5981   15.4323 H   0  0  0  0  0  0
  -27.7691  -17.0575   16.2480 H   0  0  0  0  0  0
  -28.7996  -18.1140   15.2962 H   0  0  0  0  0  0
  -27.3204  -18.7249   16.0095 H   0  0  0  0  0  0
  -27.1688  -23.8190   20.9770 H   0  0  0  0  0  0
  -27.3584  -23.8507   19.2712 H   0  0  0  0  0  0
  -27.7207  -20.8459   20.1941 H   0  0  0  0  0  0
  -28.8562  -16.3803   21.1533 H   0  0  0  0  0  0
  1 25  1  0  0  0
  1 30  2  0  0  0
  1 82  1  0  0  0
  2  3  1  0  0  0
  2 25  1  0  0  0
  2 84  1  0  0  0
  2 85  1  0  0  0
  3  4  1  0  0  0
  3 86  1  0  0  0
  3 87  1  0  0  0
  4  5  1  0  0  0
  4 88  1  0  0  0
  4 89  1  0  0  0
  5  6  1  0  0  0
  5 26  1  0  0  0
  5 90  1  0  0  0
  6 25  1  0  0  0
  6 91  1  0  0  0
  6 92  1  0  0  0
  7  8  2  0  0  0
  7 26  1  0  0  0
  7 29  1  0  0  0
  8  9  1  0  0  0
  8 22  1  0  0  0
  9 10  1  0  0  0
  9 27  2  0  0  0
 10 11  2  0  0  0
 10 15  1  0  0  0
 11 12  1  0  0  0
 11 93  1  0  0  0
 12 13  2  0  0  0
 12 94  1  0  0  0
 13 14  1  0  0  0
 13 31  1  0  0  0
 14 15  2  0  0  0
 14 95  1  0  0  0
 15 96  1  0  0  0
 16 17  2  0  0  0
 16 21  1  0  0  0
 16 31  1  0  0  0
 17 18  1  0  0  0
 17 97  1  0  0  0
 18 19  2  0  0  0
 18 98  1  0  0  0
 19 20  1  0  0  0
 19 24  1  0  0  0
 20 21  2  0  0  0
 20 99  1  0  0  0
 21 23  1  0  0  0
 22 28  1  0  0  0
 22 32  2  0  0  0
 26 27  1  0  0  0
 28100  1  0  0  0
 28101  1  0  0  0
 29102  1  0  0  0
 29103  1  0  0  0
 33 34  1  0  0  0
 33 66  1  0  0  0
 33 70  2  0  0  0
 34 36  1  0  0  0
 34 59  1  0  0  0
 34104  1  0  0  0
 35 44  2  0  0  0
 35 45  1  0  0  0
 35 68  1  0  0  0
 36 56  1  0  0  0
 36105  1  0  0  0
 37 39  1  0  0  0
 37 47  1  0  0  0
 37 66  1  0  0  0
 37106  1  0  0  0
 38 43  2  0  0  0
 38 46  1  0  0  0
 38 47  1  0  0  0
 39 64  1  0  0  0
 39 67  2  0  0  0
 40 52  1  0  0  0
 40 53  2  0  0  0
 40 58  1  0  0  0
 41107  1  0  0  0
 41108  1  0  0  0
 41109  1  0  0  0
 41 48  1  0  0  0
 42 43  1  0  0  0
 42 66  1  0  0  0
 42110  1  0  0  0
 42111  1  0  0  0
 43 44  1  0  0  0
 44112  1  0  0  0
 45 46  2  0  0  0
 45113  1  0  0  0
 46114  1  0  0  0
 47115  1  0  0  0
 47116  1  0  0  0
 48 56  1  0  0  0
 48 65  1  0  0  0
 48117  1  0  0  0
 49 50  1  0  0  0
 49 53  1  0  0  0
 49 64  1  0  0  0
 49118  1  0  0  0
 50 51  1  0  0  0
 50119  1  0  0  0
 50120  1  0  0  0
 51 52  1  0  0  0
 51121  1  0  0  0
 51122  1  0  0  0
 52123  1  0  0  0
 52124  1  0  0  0
 53 54  1  0  0  0
 54 55  2  0  0  0
 54125  1  0  0  0
 55 57  1  0  0  0
 55126  1  0  0  0
 56 69  2  0  0  0
 57 58  2  0  0  0
 57127  1  0  0  0
 58128  1  0  0  0
 59 60  1  0  0  0
 59 61  1  0  0  0
 59 62  1  0  0  0
 60129  1  0  0  0
 60130  1  0  0  0
 60131  1  0  0  0
 61132  1  0  0  0
 61133  1  0  0  0
 61134  1  0  0  0
 62135  1  0  0  0
 62136  1  0  0  0
 62137  1  0  0  0
 63 65  1  0  0  0
 63138  1  0  0  0
 63139  1  0  0  0
 63140  1  0  0  0
 64141  1  0  0  0
 65142  1  0  0  0
 68 80  1  0  0  0
 71 73  2  0  0  0
 71 75  1  0  0  0
 71143  1  0  0  0
 72 74  2  0  0  0
 72 76  1  0  0  0
 72144  1  0  0  0
 73 74  1  0  0  0
 73 78  1  0  0  0
 74 79  1  0  0  0
 75 76  2  0  0  0
 75 81  1  0  0  0
 76 82  1  0  0  0
 77 80  1  0  0  0
 77 81  1  0  0  0
 77 83  2  0  0  0
 78145  1  0  0  0
 78146  1  0  0  0
 78147  1  0  0  0
 79148  1  0  0  0
 79149  1  0  0  0
 79150  1  0  0  0
 80151  1  0  0  0
 80152  1  0  0  0
 81153  1  0  0  0
 82154  1  0  0  0
M  ISO  4   1 100  68 101  80 101  82 100
M  END
> <chiral flag>
0

> <version>
0

> <s_m_source_file>
/data/baiqing/PycharmProjects/Reinvent-master-3.2/result/LINK_invent/BTK/process_docking_weight1_custom_sum_contain_oxygen_bond_distance_aromatic_linkinvent_7_9_3/rearranged_h_0011.sdf

> <i_m_source_file_index>
68

> <r_mmod_Potential_Energy-OPLS-2005>
1858.90698242188

> <r_mmod_Stretch_Energy-OPLS-2005>
767.492553710938

> <r_mmod_Bend_Energy-OPLS-2005>
546.18408203125

> <r_mmod_Torsional_Energy-OPLS-2005>
474.329742431641

> <r_mmod_Improper_Torsional_Energy-OPLS-2005>
30.2145042419434

> <r_mmod_Van_der_Waal_Energy-OPLS-2005>
128.201126098633

> <r_mmod_Electrostatic_Energy-OPLS-2005>
-421.866455078125

> <r_mmod_Solvation_Energy-OPLS-2005>
-253.467514038086

> <b_mmod_Minimization_Converged-OPLS-2005>
0

> <r_mmod_RMS_Derivative-OPLS-2005>
7.04965829849243

$$$$
68
                    3D
 Structure written by MMmdl.
157165  0  0  1  0            999 V2000
  -30.6141  -14.6564   20.4929 C   0  0  0  0  0  0
  -30.4396  -12.4020   19.4549 C   0  0  0  0  0  0
  -29.5079  -12.5086   18.2265 C   0  0  0  0  0  0
  -28.0310  -12.3449   18.6393 C   0  0  0  0  0  0
  -27.6527  -13.2162   19.8663 C   0  0  2  0  0  0
  -28.6992  -13.0783   20.9950 C   0  0  0  0  0  0
  -25.2565  -13.8173   20.5719 C   0  0  0  0  0  0
  -24.1830  -13.0437   20.9206 C   0  0  0  0  0  0
  -24.6396  -11.6909   20.8748 C   0  0  0  0  0  0
  -23.9065  -10.4296   21.0412 C   0  0  0  0  0  0
  -24.3621   -9.4214   21.9188 C   0  0  0  0  0  0
  -23.6302   -8.2247   22.0753 C   0  0  0  0  0  0
  -22.4283   -8.0280   21.3546 C   0  0  0  0  0  0
  -21.9916   -9.0251   20.4648 C   0  0  0  0  0  0
  -22.7238  -10.2133   20.3060 C   0  0  0  0  0  0
  -21.6854   -6.0743   22.5284 C   0  0  0  0  0  0
  -21.4012   -6.5647   23.8216 C   0  0  0  0  0  0
  -21.3657   -5.6797   24.9175 C   0  0  0  0  0  0
  -21.6043   -4.3062   24.7224 C   0  0  0  0  0  0
  -21.8817   -3.8155   23.4344 C   0  0  0  0  0  0
  -21.9197   -4.6974   22.3405 C   0  0  0  0  0  0
  -22.7850  -13.5229   21.1863 C   0  0  0  0  0  0
  -22.1662   -4.2160   21.0983 F   0  0  0  0  0  0
  -21.5632   -3.4545   25.7738 F   0  0  0  0  0  0
  -30.0127  -13.4254   20.4298 N   0  0  0  0  0  0
  -26.2993  -12.9352   20.3351 N   0  0  0  0  0  0
  -25.9327  -11.6506   20.5774 N   0  0  0  0  0  0
  -22.0487  -12.8219   22.0419 N   0  0  0  0  0  0
  -25.4268  -15.1899   20.4159 N   0  0  0  0  0  0
  -31.7777  -14.8218   20.1123 O   0  0  0  0  0  0
  -21.6641   -6.8882   21.4243 O   0  0  0  0  0  0
  -22.3541  -14.5534   20.6706 O   0  0  0  0  0  0
  -24.6264  -31.8599   23.2029 C   0  0  0  0  0  0
  -25.9110  -32.4783   23.8359 C   0  0  1  0  0  0
  -27.2253  -27.3176   20.1212 C   0  0  0  0  0  0
  -25.5925  -33.8584   24.2286 N   0  0  0  0  0  0
  -23.4206  -30.4834   21.5452 C   0  0  2  0  0  0
  -24.8677  -28.9363   20.1145 C   0  0  0  0  0  0
  -22.7474  -29.4631   22.4937 C   0  0  0  0  0  0
  -18.0288  -28.1388   22.8488 C   0  0  0  0  0  0
  -24.1487  -36.7294   23.2637 C   0  0  0  0  0  0
  -25.9618  -30.7894   21.3749 C   0  0  0  0  0  0
  -26.0365  -29.4157   20.7197 C   0  0  0  0  0  0
  -27.2198  -28.6182   20.7131 C   0  0  0  0  0  0
  -26.0382  -26.8975   19.4805 C   0  0  0  0  0  0
  -24.8701  -27.6820   19.4862 C   0  0  0  0  0  0
  -23.6357  -29.8168   20.1615 C   0  0  0  0  0  0
  -25.4111  -36.3088   24.0331 C   0  0  1  0  0  0
  -20.5888  -28.3698   23.1280 C   0  0  2  0  0  0
  -20.6775  -26.9421   22.5407 C   0  0  0  0  0  0
  -19.5747  -26.6388   21.5213 C   0  0  0  0  0  0
  -18.1931  -26.7931   22.1628 C   0  0  0  0  0  0
  -19.1540  -28.8859   23.2881 C   0  0  0  0  0  0
  -18.9461  -30.1460   23.8900 C   0  0  0  0  0  0
  -17.6460  -30.6590   24.0566 C   0  0  0  0  0  0
  -25.9050  -34.9456   23.5109 C   0  0  0  0  0  0
  -16.5352  -29.9088   23.6330 C   0  0  0  0  0  0
  -16.7276  -28.6505   23.0354 C   0  0  0  0  0  0
  -26.4493  -31.6591   25.0728 C   0  0  0  0  0  0
  -25.3727  -31.3727   26.1456 C   0  0  0  0  0  0
  -27.0334  -30.3015   24.6183 C   0  0  0  0  0  0
  -27.6060  -32.4323   25.7490 C   0  0  0  0  0  0
  -27.5582  -37.1799   24.8464 C   0  0  0  0  0  0
  -21.4188  -29.3051   22.3674 N   0  0  0  0  0  0
  -26.4293  -37.3783   23.9412 N   0  0  0  0  0  0
  -24.6885  -31.0610   22.0980 N   0  0  0  0  0  0
  -23.4191  -28.8172   23.3023 O   0  0  0  0  0  0
  -28.3395  -26.4650   20.1413 O   0  0  0  0  0  0
  -26.5618  -34.8922   22.4675 O   0  0  0  0  0  0
  -23.5426  -32.1400   23.7354 O   0  0  0  0  0  0
  -29.3371  -19.1578   19.2420 C   0  0  0  0  0  0
  -30.3798  -18.0433   21.5745 C   0  0  0  0  0  0
  -29.8480  -20.0629   20.2099 C   0  0  0  0  0  0
  -29.3528  -17.7392   19.4166 C   0  0  0  0  0  0
  -30.3603  -19.4648   21.3985 C   0  0  0  0  0  0
  -29.9037  -17.1404   20.5859 C   0  0  0  0  0  0
  -29.1968  -24.0059   20.0505 C   0  0  0  0  0  0
  -28.7578  -16.8695   18.3231 C   0  0  0  0  0  0
  -30.9356  -20.3401   22.4975 C   0  0  0  0  0  0
  -30.0192  -21.5948   19.8597 C   0  0  0  0  0  0
  -28.1071  -25.0455   20.5251 C   0  0  0  0  0  0
  -29.8026  -15.7032   20.8472 N   0  0  0  0  0  0
  -29.0658  -22.6623   20.3187 N   0  0  0  0  0  0
  -30.1727  -24.4233   19.4218 O   0  0  0  0  0  0
  -31.4798  -12.5328   19.1520 H   0  0  0  0  0  0
  -30.3803  -11.4078   19.9001 H   0  0  0  0  0  0
  -29.7734  -11.7535   17.4854 H   0  0  0  0  0  0
  -29.6479  -13.4750   17.7398 H   0  0  0  0  0  0
  -27.8712  -11.2914   18.8722 H   0  0  0  0  0  0
  -27.3748  -12.5725   17.7981 H   0  0  0  0  0  0
  -27.6661  -14.2494   19.5234 H   0  0  0  0  0  0
  -28.7152  -12.0578   21.3806 H   0  0  0  0  0  0
  -28.4446  -13.7129   21.8454 H   0  0  0  0  0  0
  -25.2762   -9.5704   22.4762 H   0  0  0  0  0  0
  -24.0019   -7.4640   22.7465 H   0  0  0  0  0  0
  -21.0849   -8.8759   19.8954 H   0  0  0  0  0  0
  -22.3688  -10.9669   19.6172 H   0  0  0  0  0  0
  -21.1994   -7.6152   23.9727 H   0  0  0  0  0  0
  -21.1484   -6.0523   25.9080 H   0  0  0  0  0  0
  -22.0600   -2.7619   23.2836 H   0  0  0  0  0  0
  -22.4083  -11.9873   22.4808 H   0  0  0  0  0  0
  -21.1105  -13.1245   22.2622 H   0  0  0  0  0  0
  -24.6597  -15.8422   20.5371 H   0  0  0  0  0  0
  -26.2784  -15.6378   20.1049 H   0  0  0  0  0  0
  -26.7179  -32.5454   23.1110 H   0  0  0  0  0  0
  -25.0074  -33.9729   25.0433 H   0  0  0  0  0  0
  -22.7157  -31.3047   21.4012 H   0  0  0  0  0  0
  -23.3755  -35.9621   23.3295 H   0  0  0  0  0  0
  -24.3583  -36.8918   22.2054 H   0  0  0  0  0  0
  -23.7232  -37.6492   23.6660 H   0  0  0  0  0  0
  -26.0925  -31.5515   20.6055 H   0  0  0  0  0  0
  -26.8426  -30.8403   22.0033 H   0  0  0  0  0  0
  -28.1174  -28.9815   21.1937 H   0  0  0  0  0  0
  -25.9971  -25.9516   18.9614 H   0  0  0  0  0  0
  -23.9774  -27.3133   18.9999 H   0  0  0  0  0  0
  -23.7557  -30.5922   19.4041 H   0  0  0  0  0  0
  -22.7559  -29.2456   19.8600 H   0  0  0  0  0  0
  -25.1290  -36.1942   25.0824 H   0  0  0  0  0  0
  -20.9986  -28.3272   24.1398 H   0  0  0  0  0  0
  -20.5683  -26.2308   23.3607 H   0  0  0  0  0  0
  -21.6643  -26.7450   22.1196 H   0  0  0  0  0  0
  -19.6909  -25.6299   21.1245 H   0  0  0  0  0  0
  -19.6683  -27.3197   20.6742 H   0  0  0  0  0  0
  -17.4198  -26.6683   21.4032 H   0  0  0  0  0  0
  -18.0333  -26.0072   22.9025 H   0  0  0  0  0  0
  -19.7937  -30.7278   24.2268 H   0  0  0  0  0  0
  -17.5014  -31.6271   24.5165 H   0  0  0  0  0  0
  -15.5353  -30.2991   23.7652 H   0  0  0  0  0  0
  -15.8675  -28.0825   22.7066 H   0  0  0  0  0  0
  -24.5895  -30.7088   25.7778 H   0  0  0  0  0  0
  -24.8926  -32.2893   26.4897 H   0  0  0  0  0  0
  -25.8048  -30.8886   27.0224 H   0  0  0  0  0  0
  -26.2905  -29.6765   24.1215 H   0  0  0  0  0  0
  -27.4037  -29.7274   25.4689 H   0  0  0  0  0  0
  -27.8774  -30.4301   23.9404 H   0  0  0  0  0  0
  -27.2685  -33.3632   26.2059 H   0  0  0  0  0  0
  -28.3869  -32.6869   25.0311 H   0  0  0  0  0  0
  -28.0729  -31.8452   26.5410 H   0  0  0  0  0  0
  -28.2593  -38.0104   24.7528 H   0  0  0  0  0  0
  -28.1086  -36.2638   24.6269 H   0  0  0  0  0  0
  -27.2305  -37.1421   25.8867 H   0  0  0  0  0  0
  -20.9367  -29.8770   21.6880 H   0  0  0  0  0  0
  -26.0175  -38.2857   24.1421 H   0  0  0  0  0  0
  -28.9463  -19.5637   18.3182 H   0  0  0  0  0  0
  -30.7678  -17.6352   22.4980 H   0  0  0  0  0  0
  -28.5768  -17.4407   17.4119 H   0  0  0  0  0  0
  -27.8055  -16.4533   18.6479 H   0  0  0  0  0  0
  -29.4276  -16.0479   18.0699 H   0  0  0  0  0  0
  -31.0349  -19.7909   23.4341 H   0  0  0  0  0  0
  -30.2927  -21.2000   22.6876 H   0  0  0  0  0  0
  -31.9234  -20.7050   22.2153 H   0  0  0  0  0  0
  -30.0623  -21.6634   18.7714 H   0  0  0  0  0  0
  -31.0189  -21.8880   20.1844 H   0  0  0  0  0  0
  -28.0652  -25.0035   21.6137 H   0  0  0  0  0  0
  -27.1494  -24.6633   20.1792 H   0  0  0  0  0  0
  -28.8913  -15.4003   21.1553 H   0  0  0  0  0  0
  -28.2529  -22.3624   20.8392 H   0  0  0  0  0  0
  1 25  1  0  0  0
  1 30  2  0  0  0
  1 82  1  0  0  0
  2  3  1  0  0  0
  2 25  1  0  0  0
  2 85  1  0  0  0
  2 86  1  0  0  0
  3  4  1  0  0  0
  3 87  1  0  0  0
  3 88  1  0  0  0
  4  5  1  0  0  0
  4 89  1  0  0  0
  4 90  1  0  0  0
  5  6  1  0  0  0
  5 26  1  0  0  0
  5 91  1  0  0  0
  6 25  1  0  0  0
  6 92  1  0  0  0
  6 93  1  0  0  0
  7  8  2  0  0  0
  7 26  1  0  0  0
  7 29  1  0  0  0
  8  9  1  0  0  0
  8 22  1  0  0  0
  9 10  1  0  0  0
  9 27  2  0  0  0
 10 11  2  0  0  0
 10 15  1  0  0  0
 11 12  1  0  0  0
 11 94  1  0  0  0
 12 13  2  0  0  0
 12 95  1  0  0  0
 13 14  1  0  0  0
 13 31  1  0  0  0
 14 15  2  0  0  0
 14 96  1  0  0  0
 15 97  1  0  0  0
 16 17  2  0  0  0
 16 21  1  0  0  0
 16 31  1  0  0  0
 17 18  1  0  0  0
 17 98  1  0  0  0
 18 19  2  0  0  0
 18 99  1  0  0  0
 19 20  1  0  0  0
 19 24  1  0  0  0
 20 21  2  0  0  0
 20100  1  0  0  0
 21 23  1  0  0  0
 22 28  1  0  0  0
 22 32  2  0  0  0
 26 27  1  0  0  0
 28101  1  0  0  0
 28102  1  0  0  0
 29103  1  0  0  0
 29104  1  0  0  0
 33 34  1  0  0  0
 33 66  1  0  0  0
 33 70  2  0  0  0
 34 36  1  0  0  0
 34 59  1  0  0  0
 34105  1  0  0  0
 35 44  2  0  0  0
 35 45  1  0  0  0
 35 68  1  0  0  0
 36 56  1  0  0  0
 36106  1  0  0  0
 37 39  1  0  0  0
 37 47  1  0  0  0
 37 66  1  0  0  0
 37107  1  0  0  0
 38 43  2  0  0  0
 38 46  1  0  0  0
 38 47  1  0  0  0
 39 64  1  0  0  0
 39 67  2  0  0  0
 40 52  1  0  0  0
 40 53  2  0  0  0
 40 58  1  0  0  0
 41108  1  0  0  0
 41109  1  0  0  0
 41110  1  0  0  0
 41 48  1  0  0  0
 42 43  1  0  0  0
 42 66  1  0  0  0
 42111  1  0  0  0
 42112  1  0  0  0
 43 44  1  0  0  0
 44113  1  0  0  0
 45 46  2  0  0  0
 45114  1  0  0  0
 46115  1  0  0  0
 47116  1  0  0  0
 47117  1  0  0  0
 48 56  1  0  0  0
 48 65  1  0  0  0
 48118  1  0  0  0
 49 50  1  0  0  0
 49 53  1  0  0  0
 49 64  1  0  0  0
 49119  1  0  0  0
 50 51  1  0  0  0
 50120  1  0  0  0
 50121  1  0  0  0
 51 52  1  0  0  0
 51122  1  0  0  0
 51123  1  0  0  0
 52124  1  0  0  0
 52125  1  0  0  0
 53 54  1  0  0  0
 54 55  2  0  0  0
 54126  1  0  0  0
 55 57  1  0  0  0
 55127  1  0  0  0
 56 69  2  0  0  0
 57 58  2  0  0  0
 57128  1  0  0  0
 58129  1  0  0  0
 59 60  1  0  0  0
 59 61  1  0  0  0
 59 62  1  0  0  0
 60130  1  0  0  0
 60131  1  0  0  0
 60132  1  0  0  0
 61133  1  0  0  0
 61134  1  0  0  0
 61135  1  0  0  0
 62136  1  0  0  0
 62137  1  0  0  0
 62138  1  0  0  0
 63 65  1  0  0  0
 63139  1  0  0  0
 63140  1  0  0  0
 63141  1  0  0  0
 64142  1  0  0  0
 65143  1  0  0  0
 68 81  1  0  0  0
 71 73  2  0  0  0
 71 74  1  0  0  0
 71144  1  0  0  0
 72 75  2  0  0  0
 72 76  1  0  0  0
 72145  1  0  0  0
 73 75  1  0  0  0
 73 80  1  0  0  0
 74 76  2  0  0  0
 74 78  1  0  0  0
 75 79  1  0  0  0
 76 82  1  0  0  0
 77 81  1  0  0  0
 77 83  1  0  0  0
 77 84  2  0  0  0
 78146  1  0  0  0
 78147  1  0  0  0
 78148  1  0  0  0
 79149  1  0  0  0
 79150  1  0  0  0
 79151  1  0  0  0
 80 83  1  0  0  0
 80152  1  0  0  0
 80153  1  0  0  0
 81154  1  0  0  0
 81155  1  0  0  0
 82156  1  0  0  0
 83157  1  0  0  0
M  ISO  4   1 100  68 101  81 101  82 100
M  END
> <chiral flag>
0

> <version>
0

> <s_m_source_file>
/data/baiqing/PycharmProjects/Reinvent-master-3.2/result/LINK_invent/BTK/process_docking_weight1_custom_sum_contain_oxygen_bond_distance_aromatic_linkinvent_7_9_3/rearranged_h_0011.sdf

> <i_m_source_file_index>
69

> <r_mmod_Potential_Energy-OPLS-2005>
-3.04060053825378

> <r_mmod_Stretch_Energy-OPLS-2005>
80.3743133544922

> <r_mmod_Bend_Energy-OPLS-2005>
129.659439086914

> <r_mmod_Torsional_Energy-OPLS-2005>
260.216491699219

> <r_mmod_Improper_Torsional_Energy-OPLS-2005>
5.95876455307007

> <r_mmod_Van_der_Waal_Energy-OPLS-2005>
136.848846435547

> <r_mmod_Electrostatic_Energy-OPLS-2005>
-420.927276611328

> <r_mmod_Solvation_Energy-OPLS-2005>
-246.428497314453

> <b_mmod_Minimization_Converged-OPLS-2005>
0

> <r_mmod_RMS_Derivative-OPLS-2005>
0.798893928527832

$$$$
69
                    3D
 Structure written by MMmdl.
163171  0  0  1  0            999 V2000
  -30.7419  -14.3478   20.6730 C   0  0  0  0  0  0
  -30.4225  -12.2628   19.4033 C   0  0  0  0  0  0
  -29.4919  -12.5170   18.2002 C   0  0  0  0  0  0
  -28.0118  -12.3899   18.6085 C   0  0  0  0  0  0
  -27.6729  -13.1959   19.8895 C   0  0  2  0  0  0
  -28.7061  -12.9035   21.0026 C   0  0  0  0  0  0
  -25.2618  -13.8167   20.5663 C   0  0  0  0  0  0
  -24.1848  -13.0444   20.9154 C   0  0  0  0  0  0
  -24.6397  -11.6911   20.8718 C   0  0  0  0  0  0
  -23.9068  -10.4293   21.0393 C   0  0  0  0  0  0
  -24.3609   -9.4204   21.9178 C   0  0  0  0  0  0
  -23.6290   -8.2234   22.0748 C   0  0  0  0  0  0
  -22.4266   -8.0281   21.3545 C   0  0  0  0  0  0
  -21.9906   -9.0254   20.4645 C   0  0  0  0  0  0
  -22.7234  -10.2139   20.3053 C   0  0  0  0  0  0
  -21.6857   -6.0735   22.5282 C   0  0  0  0  0  0
  -21.4018   -6.5639   23.8213 C   0  0  0  0  0  0
  -21.3649   -5.6780   24.9170 C   0  0  0  0  0  0
  -21.6038   -4.3048   24.7217 C   0  0  0  0  0  0
  -21.8816   -3.8145   23.4339 C   0  0  0  0  0  0
  -21.9185   -4.6962   22.3400 C   0  0  0  0  0  0
  -22.7877  -13.5264   21.1834 C   0  0  0  0  0  0
  -22.1658   -4.2144   21.0977 F   0  0  0  0  0  0
  -21.5620   -3.4533   25.7734 F   0  0  0  0  0  0
  -30.0575  -13.1921   20.4804 N   0  0  0  0  0  0
  -26.3065  -12.9317   20.3408 N   0  0  0  0  0  0
  -25.9315  -11.6483   20.5745 N   0  0  0  0  0  0
  -22.0517  -12.8270   22.0413 N   0  0  0  0  0  0
  -25.4342  -15.1872   20.4058 N   0  0  0  0  0  0
  -31.7583  -14.6637   20.0460 O   0  0  0  0  0  0
  -21.6634   -6.8874   21.4243 O   0  0  0  0  0  0
  -22.3562  -14.5552   20.6674 O   0  0  0  0  0  0
  -24.6098  -31.8725   23.2114 C   0  0  0  0  0  0
  -25.9010  -32.4834   23.8398 C   0  0  1  0  0  0
  -27.2496  -27.4818   20.0700 C   0  0  0  0  0  0
  -25.5890  -33.8638   24.2342 N   0  0  0  0  0  0
  -23.3972  -30.4922   21.5553 C   0  0  2  0  0  0
  -24.8435  -28.9653   20.1159 C   0  0  0  0  0  0
  -22.7394  -29.4663   22.5048 C   0  0  0  0  0  0
  -18.0273  -28.1354   22.8481 C   0  0  0  0  0  0
  -24.1495  -36.7324   23.2628 C   0  0  0  0  0  0
  -25.9196  -30.8440   21.3622 C   0  0  0  0  0  0
  -25.9979  -29.4826   20.7115 C   0  0  0  0  0  0
  -27.1977  -28.7443   20.6965 C   0  0  0  0  0  0
  -26.0752  -26.9785   19.4579 C   0  0  0  0  0  0
  -24.8739  -27.7085   19.4905 C   0  0  0  0  0  0
  -23.6037  -29.8243   20.1698 C   0  0  0  0  0  0
  -25.4114  -36.3129   24.0330 C   0  0  1  0  0  0
  -20.5856  -28.3663   23.1335 C   0  0  2  0  0  0
  -20.6799  -26.9422   22.5408 C   0  0  0  0  0  0
  -19.5785  -26.6428   21.5185 C   0  0  0  0  0  0
  -18.1962  -26.7909   22.1601 C   0  0  0  0  0  0
  -19.1515  -28.8825   23.2893 C   0  0  0  0  0  0
  -18.9433  -30.1421   23.8909 C   0  0  0  0  0  0
  -17.6442  -30.6562   24.0559 C   0  0  0  0  0  0
  -25.9029  -34.9484   23.5126 C   0  0  0  0  0  0
  -16.5343  -29.9062   23.6300 C   0  0  0  0  0  0
  -16.7265  -28.6474   23.0334 C   0  0  0  0  0  0
  -26.4468  -31.6585   25.0695 C   0  0  0  0  0  0
  -25.3749  -31.3672   26.1449 C   0  0  0  0  0  0
  -27.0279  -30.3038   24.6002 C   0  0  0  0  0  0
  -27.6058  -32.4278   25.7453 C   0  0  0  0  0  0
  -27.5585  -37.1812   24.8461 C   0  0  0  0  0  0
  -21.4126  -29.3044   22.3780 N   0  0  0  0  0  0
  -26.4308  -37.3804   23.9394 N   0  0  0  0  0  0
  -24.6604  -31.0837   22.1017 N   0  0  0  0  0  0
  -23.4195  -28.8193   23.3065 O   0  0  0  0  0  0
  -28.4525  -26.8046   20.0919 O   0  0  0  0  0  0
  -26.5594  -34.8929   22.4687 O   0  0  0  0  0  0
  -23.5295  -32.1490   23.7499 O   0  0  0  0  0  0
  -29.3684  -16.8488   19.9782 C   0  0  0  0  0  0
  -27.7883  -17.9441   22.0355 C   0  0  0  0  0  0
  -29.4488  -16.3118   21.2878 C   0  0  0  0  0  0
  -27.6840  -18.4480   20.7183 C   0  0  0  0  0  0
  -28.4762  -17.8951   19.6950 C   0  0  0  0  0  0
  -28.6631  -16.8775   22.3186 C   0  0  0  0  0  0
  -26.3764  -20.5223   21.0383 C   0  0  0  0  0  0
  -24.6270  -23.7815   20.7427 C   0  0  0  0  0  0
  -25.4466  -21.4970   20.3272 C   0  0  0  0  0  0
  -27.7258  -24.5176   20.6212 C   0  0  0  0  0  0
  -26.9236  -23.4251   19.8858 C   0  0  0  0  0  0
  -28.4983  -25.4464   19.6603 C   0  0  0  0  0  0
  -26.7649  -19.4525   20.3351 N   0  0  0  0  0  0
  -30.2195  -15.1596   21.5970 N   0  0  0  0  0  0
  -25.8070  -22.8808   20.7044 N   0  3  1  0  0  0
  -26.7445  -20.7726   22.1892 O   0  0  0  0  0  0
  -28.3615  -18.3629   18.4280 F   0  0  0  0  0  0
  -28.7318  -16.2428   23.9261 Cl  0  0  0  0  0  0
  -31.4659  -12.3647   19.1017 H   0  0  0  0  0  0
  -30.3205  -11.2361   19.7570 H   0  0  0  0  0  0
  -29.7187  -11.8127   17.3984 H   0  0  0  0  0  0
  -29.6796  -13.5122   17.7955 H   0  0  0  0  0  0
  -27.8051  -11.3323   18.7729 H   0  0  0  0  0  0
  -27.3663  -12.7042   17.7866 H   0  0  0  0  0  0
  -27.7439  -14.2534   19.6353 H   0  0  0  0  0  0
  -28.6524  -11.8535   21.2959 H   0  0  0  0  0  0
  -28.4531  -13.4585   21.9061 H   0  0  0  0  0  0
  -25.2744   -9.5677   22.4768 H   0  0  0  0  0  0
  -23.9981   -7.4624   22.7477 H   0  0  0  0  0  0
  -21.0826   -8.8785   19.8963 H   0  0  0  0  0  0
  -22.3688  -10.9682   19.6165 H   0  0  0  0  0  0
  -21.2037   -7.6147   23.9727 H   0  0  0  0  0  0
  -21.1473   -6.0508   25.9073 H   0  0  0  0  0  0
  -22.0609   -2.7617   23.2844 H   0  0  0  0  0  0
  -22.4137  -11.9942   22.4817 H   0  0  0  0  0  0
  -21.1154  -13.1320   22.2650 H   0  0  0  0  0  0
  -24.6621  -15.8376   20.4978 H   0  0  0  0  0  0
  -26.2828  -15.6203   20.0696 H   0  0  0  0  0  0
  -26.7084  -32.5586   23.1166 H   0  0  0  0  0  0
  -25.0063  -33.9846   25.0495 H   0  0  0  0  0  0
  -22.6812  -31.3049   21.4162 H   0  0  0  0  0  0
  -23.3753  -35.9664   23.3310 H   0  0  0  0  0  0
  -24.3597  -36.8929   22.2045 H   0  0  0  0  0  0
  -23.7261  -37.6534   23.6631 H   0  0  0  0  0  0
  -26.0217  -31.6070   20.5896 H   0  0  0  0  0  0
  -26.8116  -30.9031   21.9727 H   0  0  0  0  0  0
  -28.0887  -29.1451   21.1601 H   0  0  0  0  0  0
  -26.0645  -26.0366   18.9331 H   0  0  0  0  0  0
  -23.9902  -27.3136   19.0085 H   0  0  0  0  0  0
  -23.7073  -30.6005   19.4117 H   0  0  0  0  0  0
  -22.7319  -29.2382   19.8766 H   0  0  0  0  0  0
  -25.1289  -36.2008   25.0828 H   0  0  0  0  0  0
  -20.9899  -28.3202   24.1467 H   0  0  0  0  0  0
  -20.5726  -26.2277   23.3578 H   0  0  0  0  0  0
  -21.6677  -26.7508   22.1188 H   0  0  0  0  0  0
  -19.6982  -25.6359   21.1174 H   0  0  0  0  0  0
  -19.6725  -27.3294   20.6750 H   0  0  0  0  0  0
  -17.4257  -26.6639   21.3995 H   0  0  0  0  0  0
  -18.0377  -26.0022   22.8967 H   0  0  0  0  0  0
  -19.7912  -30.7202   24.2324 H   0  0  0  0  0  0
  -17.4992  -31.6245   24.5137 H   0  0  0  0  0  0
  -15.5341  -30.2978   23.7564 H   0  0  0  0  0  0
  -15.8666  -28.0792   22.7041 H   0  0  0  0  0  0
  -24.5928  -30.7002   25.7789 H   0  0  0  0  0  0
  -24.8928  -32.2822   26.4904 H   0  0  0  0  0  0
  -25.8131  -30.8851   27.0200 H   0  0  0  0  0  0
  -26.2806  -29.6808   24.1068 H   0  0  0  0  0  0
  -27.4101  -29.7236   25.4415 H   0  0  0  0  0  0
  -27.8612  -30.4375   23.9097 H   0  0  0  0  0  0
  -27.2700  -33.3571   26.2068 H   0  0  0  0  0  0
  -28.3853  -32.6854   25.0265 H   0  0  0  0  0  0
  -28.0734  -31.8370   26.5344 H   0  0  0  0  0  0
  -28.2609  -38.0102   24.7503 H   0  0  0  0  0  0
  -28.1080  -36.2634   24.6303 H   0  0  0  0  0  0
  -27.2292  -37.1476   25.8862 H   0  0  0  0  0  0
  -20.9273  -29.8794   21.7027 H   0  0  0  0  0  0
  -26.0199  -38.2882   24.1399 H   0  0  0  0  0  0
  -29.9527  -16.4499   19.1618 H   0  0  0  0  0  0
  -27.1773  -18.3391   22.8330 H   0  0  0  0  0  0
  -23.8438  -23.3856   21.3916 H   0  0  0  0  0  0
  -24.2063  -23.9118   19.7454 H   0  0  0  0  0  0
  -24.8863  -24.7690   21.1212 H   0  0  0  0  0  0
  -24.4361  -21.2594   20.6610 H   0  0  0  0  0  0
  -25.4631  -21.3685   19.2424 H   0  0  0  0  0  0
  -28.4211  -24.0563   21.3241 H   0  0  0  0  0  0
  -27.0665  -25.1167   21.2442 H   0  0  0  0  0  0
  -27.6191  -22.6358   19.6004 H   0  0  0  0  0  0
  -26.5119  -23.7971   18.9472 H   0  0  0  0  0  0
  -29.5431  -25.1377   19.6401 H   0  0  0  0  0  0
  -28.1569  -25.3795   18.6275 H   0  0  0  0  0  0
  -26.4777  -19.4185   19.3662 H   0  0  0  0  0  0
  -29.8619  -14.6740   22.4078 H   0  0  0  0  0  0
  -26.1528  -22.7629   21.6493 H   0  0  0  0  0  0
  1 25  1  0  0  0
  1 30  2  0  0  0
  1 84  1  0  0  0
  2  3  1  0  0  0
  2 25  1  0  0  0
  2 89  1  0  0  0
  2 90  1  0  0  0
  3  4  1  0  0  0
  3 91  1  0  0  0
  3 92  1  0  0  0
  4  5  1  0  0  0
  4 93  1  0  0  0
  4 94  1  0  0  0
  5  6  1  0  0  0
  5 26  1  0  0  0
  5 95  1  0  0  0
  6 25  1  0  0  0
  6 96  1  0  0  0
  6 97  1  0  0  0
  7  8  2  0  0  0
  7 26  1  0  0  0
  7 29  1  0  0  0
  8  9  1  0  0  0
  8 22  1  0  0  0
  9 10  1  0  0  0
  9 27  2  0  0  0
 10 11  2  0  0  0
 10 15  1  0  0  0
 11 12  1  0  0  0
 11 98  1  0  0  0
 12 13  2  0  0  0
 12 99  1  0  0  0
 13 14  1  0  0  0
 13 31  1  0  0  0
 14 15  2  0  0  0
 14100  1  0  0  0
 15101  1  0  0  0
 16 17  2  0  0  0
 16 21  1  0  0  0
 16 31  1  0  0  0
 17 18  1  0  0  0
 17102  1  0  0  0
 18 19  2  0  0  0
 18103  1  0  0  0
 19 20  1  0  0  0
 19 24  1  0  0  0
 20 21  2  0  0  0
 20104  1  0  0  0
 21 23  1  0  0  0
 22 28  1  0  0  0
 22 32  2  0  0  0
 26 27  1  0  0  0
 28105  1  0  0  0
 28106  1  0  0  0
 29107  1  0  0  0
 29108  1  0  0  0
 33 34  1  0  0  0
 33 66  1  0  0  0
 33 70  2  0  0  0
 34 36  1  0  0  0
 34 59  1  0  0  0
 34109  1  0  0  0
 35 44  2  0  0  0
 35 45  1  0  0  0
 35 68  1  0  0  0
 36 56  1  0  0  0
 36110  1  0  0  0
 37 39  1  0  0  0
 37 47  1  0  0  0
 37 66  1  0  0  0
 37111  1  0  0  0
 38 43  2  0  0  0
 38 46  1  0  0  0
 38 47  1  0  0  0
 39 64  1  0  0  0
 39 67  2  0  0  0
 40 52  1  0  0  0
 40 53  2  0  0  0
 40 58  1  0  0  0
 41112  1  0  0  0
 41113  1  0  0  0
 41114  1  0  0  0
 41 48  1  0  0  0
 42 43  1  0  0  0
 42 66  1  0  0  0
 42115  1  0  0  0
 42116  1  0  0  0
 43 44  1  0  0  0
 44117  1  0  0  0
 45 46  2  0  0  0
 45118  1  0  0  0
 46119  1  0  0  0
 47120  1  0  0  0
 47121  1  0  0  0
 48 56  1  0  0  0
 48 65  1  0  0  0
 48122  1  0  0  0
 49 50  1  0  0  0
 49 53  1  0  0  0
 49 64  1  0  0  0
 49123  1  0  0  0
 50 51  1  0  0  0
 50124  1  0  0  0
 50125  1  0  0  0
 51 52  1  0  0  0
 51126  1  0  0  0
 51127  1  0  0  0
 52128  1  0  0  0
 52129  1  0  0  0
 53 54  1  0  0  0
 54 55  2  0  0  0
 54130  1  0  0  0
 55 57  1  0  0  0
 55131  1  0  0  0
 56 69  2  0  0  0
 57 58  2  0  0  0
 57132  1  0  0  0
 58133  1  0  0  0
 59 60  1  0  0  0
 59 61  1  0  0  0
 59 62  1  0  0  0
 60134  1  0  0  0
 60135  1  0  0  0
 60136  1  0  0  0
 61137  1  0  0  0
 61138  1  0  0  0
 61139  1  0  0  0
 62140  1  0  0  0
 62141  1  0  0  0
 62142  1  0  0  0
 63 65  1  0  0  0
 63143  1  0  0  0
 63144  1  0  0  0
 63145  1  0  0  0
 64146  1  0  0  0
 65147  1  0  0  0
 68 82  1  0  0  0
 71 73  2  0  0  0
 71 75  1  0  0  0
 71148  1  0  0  0
 72 74  1  0  0  0
 72 76  2  0  0  0
 72149  1  0  0  0
 73 76  1  0  0  0
 73 84  1  0  0  0
 74 75  2  0  0  0
 74 83  1  0  0  0
 75 87  1  0  0  0
 76 88  1  0  0  0
 77 79  1  0  0  0
 77 83  1  0  0  0
 77 86  2  0  0  0
 78150  1  0  0  0
 78151  1  0  0  0
 78152  1  0  0  0
 78 85  1  0  0  0
 79 85  1  0  0  0
 79153  1  0  0  0
 79154  1  0  0  0
 80 81  1  0  0  0
 80 82  1  0  0  0
 80155  1  0  0  0
 80156  1  0  0  0
 81 85  1  0  0  0
 81157  1  0  0  0
 81158  1  0  0  0
 82159  1  0  0  0
 82160  1  0  0  0
 83161  1  0  0  0
 84162  1  0  0  0
 85163  1  0  0  0
M  CHG  1  85   1
M  ISO  4   1 100  68 101  82 101  84 100
M  END
> <chiral flag>
0

> <version>
0

> <s_m_source_file>
/data/baiqing/PycharmProjects/Reinvent-master-3.2/result/LINK_invent/BTK/process_docking_weight1_custom_sum_contain_oxygen_bond_distance_aromatic_linkinvent_7_9_3/rearranged_h_0011.sdf

> <i_m_source_file_index>
70

> <r_mmod_Potential_Energy-OPLS-2005>
-328.700317382812

> <r_mmod_Stretch_Energy-OPLS-2005>
32.4397850036621

> <r_mmod_Bend_Energy-OPLS-2005>
104.140960693359

> <r_mmod_Torsional_Energy-OPLS-2005>
270.114074707031

> <r_mmod_Improper_Torsional_Energy-OPLS-2005>
6.12411022186279

> <r_mmod_Van_der_Waal_Energy-OPLS-2005>
159.740188598633

> <r_mmod_Electrostatic_Energy-OPLS-2005>
-446.813598632812

> <r_mmod_Solvation_Energy-OPLS-2005>
-462.648529052734

> <b_mmod_Minimization_Converged-OPLS-2005>
0

> <r_mmod_RMS_Derivative-OPLS-2005>
2.6685791015625

$$$$
70
                    3D
 Structure written by MMmdl.
154162  0  0  1  0            999 V2000
  -30.5160  -15.0472   20.4068 C   0  0  0  0  0  0
  -30.4396  -12.6585   19.5010 C   0  0  0  0  0  0
  -29.5231  -12.5396   18.2611 C   0  0  0  0  0  0
  -28.0621  -12.3040   18.6866 C   0  0  0  0  0  0
  -27.6216  -13.2556   19.8289 C   0  0  2  0  0  0
  -28.6634  -13.3377   20.9637 C   0  0  0  0  0  0
  -25.2434  -13.8225   20.5721 C   0  0  0  0  0  0
  -24.1764  -13.0439   20.9244 C   0  0  0  0  0  0
  -24.6393  -11.6928   20.8763 C   0  0  0  0  0  0
  -23.9084  -10.4294   21.0414 C   0  0  0  0  0  0
  -24.3630   -9.4207   21.9191 C   0  0  0  0  0  0
  -23.6301   -8.2243   22.0757 C   0  0  0  0  0  0
  -22.4283   -8.0284   21.3545 C   0  0  0  0  0  0
  -21.9924   -9.0260   20.4646 C   0  0  0  0  0  0
  -22.7258  -10.2136   20.3059 C   0  0  0  0  0  0
  -21.6854   -6.0740   22.5281 C   0  0  0  0  0  0
  -21.4014   -6.5642   23.8215 C   0  0  0  0  0  0
  -21.3659   -5.6793   24.9175 C   0  0  0  0  0  0
  -21.6043   -4.3056   24.7225 C   0  0  0  0  0  0
  -21.8819   -3.8150   23.4345 C   0  0  0  0  0  0
  -21.9193   -4.6967   22.3402 C   0  0  0  0  0  0
  -22.7783  -13.5204   21.1893 C   0  0  0  0  0  0
  -22.1661   -4.2153   21.0979 F   0  0  0  0  0  0
  -21.5628   -3.4539   25.7737 F   0  0  0  0  0  0
  -29.9220  -13.7778   20.3476 N   0  0  0  0  0  0
  -26.2852  -12.9466   20.3221 N   0  0  0  0  0  0
  -25.9325  -11.6591   20.5735 N   0  0  0  0  0  0
  -22.0432  -12.8188   22.0443 N   0  0  0  0  0  0
  -25.4081  -15.1954   20.4135 N   0  0  0  0  0  0
  -31.7342  -15.0696   20.1923 O   0  0  0  0  0  0
  -21.6642   -6.8883   21.4243 O   0  0  0  0  0  0
  -22.3467  -14.5507   20.6734 O   0  0  0  0  0  0
  -24.6506  -31.8375   23.1830 C   0  0  0  0  0  0
  -25.9246  -32.4658   23.8242 C   0  0  1  0  0  0
  -27.2125  -27.0612   20.1629 C   0  0  0  0  0  0
  -25.5970  -33.8467   24.2155 N   0  0  0  0  0  0
  -23.4577  -30.4557   21.5302 C   0  0  2  0  0  0
  -24.9073  -28.8706   20.1121 C   0  0  0  0  0  0
  -22.7601  -29.4517   22.4835 C   0  0  0  0  0  0
  -18.0312  -28.1401   22.8474 C   0  0  0  0  0  0
  -24.1493  -36.7238   23.2644 C   0  0  0  0  0  0
  -26.0196  -30.6874   21.3933 C   0  0  0  0  0  0
  -26.0889  -29.2915   20.7355 C   0  0  0  0  0  0
  -27.2415  -28.4058   20.7395 C   0  0  0  0  0  0
  -26.0027  -26.7634   19.4962 C   0  0  0  0  0  0
  -24.8820  -27.6226   19.4744 C   0  0  0  0  0  0
  -23.6885  -29.7825   20.1514 C   0  0  0  0  0  0
  -25.4129  -36.3010   24.0311 C   0  0  1  0  0  0
  -20.5929  -28.3733   23.1218 C   0  0  2  0  0  0
  -20.6797  -26.9431   22.5401 C   0  0  0  0  0  0
  -19.5771  -26.6383   21.5210 C   0  0  0  0  0  0
  -18.1951  -26.7942   22.1619 C   0  0  0  0  0  0
  -19.1570  -28.8888   23.2837 C   0  0  0  0  0  0
  -18.9486  -30.1481   23.8865 C   0  0  0  0  0  0
  -17.6481  -30.6596   24.0558 C   0  0  0  0  0  0
  -25.9084  -34.9387   23.5045 C   0  0  0  0  0  0
  -16.5371  -29.9086   23.6340 C   0  0  0  0  0  0
  -16.7295  -28.6505   23.0360 C   0  0  0  0  0  0
  -26.4544  -31.6551   25.0710 C   0  0  0  0  0  0
  -25.3709  -31.3760   26.1390 C   0  0  0  0  0  0
  -27.0424  -30.2940   24.6344 C   0  0  0  0  0  0
  -27.6061  -32.4331   25.7503 C   0  0  0  0  0  0
  -27.5574  -37.1779   24.8466 C   0  0  0  0  0  0
  -21.4286  -29.3049   22.3582 N   0  0  0  0  0  0
  -26.4285  -37.3731   23.9407 N   0  0  0  0  0  0
  -24.7299  -31.0164   22.0899 N   0  0  0  0  0  0
  -23.4210  -28.8069   23.3014 O   0  0  0  0  0  0
  -28.2397  -26.0240   20.2212 O   0  0  0  0  0  0
  -26.5673  -34.8897   22.4625 O   0  0  0  0  0  0
  -23.5608  -32.1283   23.7007 O   0  0  0  0  0  0
  -31.7030  -19.4147   21.4445 C   0  0  0  0  0  0
  -31.3235  -18.0995   21.1205 C   0  0  0  0  0  0
  -30.8801  -20.5531   21.2629 C   0  0  0  0  0  0
  -29.2179  -19.0305   20.3450 C   0  0  0  0  0  0
  -30.0558  -17.7911   20.5978 C   0  0  0  0  0  0
  -29.6025  -20.4742   20.6232 C   0  0  0  0  0  0
  -29.0118  -23.2082   20.2178 C   0  0  0  0  0  0
  -31.4312  -21.8297   21.8787 C   0  0  0  0  0  0
  -27.8410  -18.7974   19.7549 C   0  0  0  0  0  0
  -27.8904  -24.4692   20.2200 C   0  0  0  0  0  0
  -28.7544  -21.7903   20.4202 N   0  0  0  0  0  0
  -29.7369  -16.2668   20.4483 N   0  0  0  0  0  0
  -30.1561  -23.5651   19.9324 O   0  0  0  0  0  0
  -31.4677  -12.8329   19.1805 H   0  0  0  0  0  0
  -30.4585  -11.7238   20.0636 H   0  0  0  0  0  0
  -29.8617  -11.7296   17.6135 H   0  0  0  0  0  0
  -29.5890  -13.4542   17.6697 H   0  0  0  0  0  0
  -27.9823  -11.2691   19.0217 H   0  0  0  0  0  0
  -27.3941  -12.3991   17.8297 H   0  0  0  0  0  0
  -27.5665  -14.2444   19.3728 H   0  0  0  0  0  0
  -28.7787  -12.3774   21.4688 H   0  0  0  0  0  0
  -28.3454  -14.0539   21.7232 H   0  0  0  0  0  0
  -25.2773   -9.5681   22.4770 H   0  0  0  0  0  0
  -24.0006   -7.4633   22.7477 H   0  0  0  0  0  0
  -21.0856   -8.8784   19.8948 H   0  0  0  0  0  0
  -22.3722  -10.9678   19.6168 H   0  0  0  0  0  0
  -21.2007   -7.6151   23.9719 H   0  0  0  0  0  0
  -21.1478   -6.0523   25.9078 H   0  0  0  0  0  0
  -22.0598   -2.7613   23.2844 H   0  0  0  0  0  0
  -22.4053  -11.9852   22.4831 H   0  0  0  0  0  0
  -21.1045  -13.1203   22.2641 H   0  0  0  0  0  0
  -24.6362  -15.8437   20.5259 H   0  0  0  0  0  0
  -26.2431  -15.6362   20.0531 H   0  0  0  0  0  0
  -26.7309  -32.5241   23.0962 H   0  0  0  0  0  0
  -25.0096  -33.9572   25.0292 H   0  0  0  0  0  0
  -22.7642  -31.2842   21.3715 H   0  0  0  0  0  0
  -23.3763  -35.9559   23.3284 H   0  0  0  0  0  0
  -24.3580  -36.8893   22.2062 H   0  0  0  0  0  0
  -23.7240  -37.6423   23.6700 H   0  0  0  0  0  0
  -26.1849  -31.4373   20.6186 H   0  0  0  0  0  0
  -26.8862  -30.7389   22.0406 H   0  0  0  0  0  0
  -28.1395  -28.7243   21.2498 H   0  0  0  0  0  0
  -25.8819  -25.8168   18.9943 H   0  0  0  0  0  0
  -23.9827  -27.2969   18.9698 H   0  0  0  0  0  0
  -23.8335  -30.5558   19.3963 H   0  0  0  0  0  0
  -22.8005  -29.2312   19.8367 H   0  0  0  0  0  0
  -25.1323  -36.1825   25.0802 H   0  0  0  0  0  0
  -21.0022  -28.3326   24.1338 H   0  0  0  0  0  0
  -20.5691  -26.2346   23.3625 H   0  0  0  0  0  0
  -21.6662  -26.7432   22.1197 H   0  0  0  0  0  0
  -19.6931  -25.6287   21.1257 H   0  0  0  0  0  0
  -19.6707  -27.3178   20.6727 H   0  0  0  0  0  0
  -17.4222  -26.6682   21.4021 H   0  0  0  0  0  0
  -18.0349  -26.0093   22.9024 H   0  0  0  0  0  0
  -19.7960  -30.7308   24.2216 H   0  0  0  0  0  0
  -17.5033  -31.6271   24.5168 H   0  0  0  0  0  0
  -15.5371  -30.2976   23.7688 H   0  0  0  0  0  0
  -15.8695  -28.0813   22.7094 H   0  0  0  0  0  0
  -24.5906  -30.7086   25.7709 H   0  0  0  0  0  0
  -24.8877  -32.2947   26.4727 H   0  0  0  0  0  0
  -25.7978  -30.8994   27.0223 H   0  0  0  0  0  0
  -26.3062  -29.6640   24.1341 H   0  0  0  0  0  0
  -27.4003  -29.7264   25.4944 H   0  0  0  0  0  0
  -27.8982  -30.4159   23.9702 H   0  0  0  0  0  0
  -27.2652  -33.3670   26.1983 H   0  0  0  0  0  0
  -28.3927  -32.6825   25.0368 H   0  0  0  0  0  0
  -28.0666  -31.8515   26.5499 H   0  0  0  0  0  0
  -28.2581  -38.0086   24.7516 H   0  0  0  0  0  0
  -28.1083  -36.2615   24.6292 H   0  0  0  0  0  0
  -27.2292  -37.1419   25.8869 H   0  0  0  0  0  0
  -20.9511  -29.8752   21.6744 H   0  0  0  0  0  0
  -26.0143  -38.2793   24.1412 H   0  0  0  0  0  0
  -32.6734  -19.5414   21.9046 H   0  0  0  0  0  0
  -32.0264  -17.3105   21.3450 H   0  0  0  0  0  0
  -32.1105  -21.6044   22.7017 H   0  0  0  0  0  0
  -30.6450  -22.4498   22.3064 H   0  0  0  0  0  0
  -31.9990  -22.4010   21.1455 H   0  0  0  0  0  0
  -27.8285  -17.9031   19.1319 H   0  0  0  0  0  0
  -27.5363  -19.6346   19.1274 H   0  0  0  0  0  0
  -27.1042  -18.6746   20.5487 H   0  0  0  0  0  0
  -27.2276  -24.2939   21.0675 H   0  0  0  0  0  0
  -27.2897  -24.2708   19.3344 H   0  0  0  0  0  0
  -27.7591  -21.6171   20.4594 H   0  0  0  0  0  0
  -28.7488  -16.0698   20.4113 H   0  0  0  0  0  0
  1 25  1  0  0  0
  1 30  2  0  0  0
  1 82  1  0  0  0
  2  3  1  0  0  0
  2 25  1  0  0  0
  2 84  1  0  0  0
  2 85  1  0  0  0
  3  4  1  0  0  0
  3 86  1  0  0  0
  3 87  1  0  0  0
  4  5  1  0  0  0
  4 88  1  0  0  0
  4 89  1  0  0  0
  5  6  1  0  0  0
  5 26  1  0  0  0
  5 90  1  0  0  0
  6 25  1  0  0  0
  6 91  1  0  0  0
  6 92  1  0  0  0
  7  8  2  0  0  0
  7 26  1  0  0  0
  7 29  1  0  0  0
  8  9  1  0  0  0
  8 22  1  0  0  0
  9 10  1  0  0  0
  9 27  2  0  0  0
 10 11  2  0  0  0
 10 15  1  0  0  0
 11 12  1  0  0  0
 11 93  1  0  0  0
 12 13  2  0  0  0
 12 94  1  0  0  0
 13 14  1  0  0  0
 13 31  1  0  0  0
 14 15  2  0  0  0
 14 95  1  0  0  0
 15 96  1  0  0  0
 16 17  2  0  0  0
 16 21  1  0  0  0
 16 31  1  0  0  0
 17 18  1  0  0  0
 17 97  1  0  0  0
 18 19  2  0  0  0
 18 98  1  0  0  0
 19 20  1  0  0  0
 19 24  1  0  0  0
 20 21  2  0  0  0
 20 99  1  0  0  0
 21 23  1  0  0  0
 22 28  1  0  0  0
 22 32  2  0  0  0
 26 27  1  0  0  0
 28100  1  0  0  0
 28101  1  0  0  0
 29102  1  0  0  0
 29103  1  0  0  0
 33 34  1  0  0  0
 33 66  1  0  0  0
 33 70  2  0  0  0
 34 36  1  0  0  0
 34 59  1  0  0  0
 34104  1  0  0  0
 35 44  2  0  0  0
 35 45  1  0  0  0
 35 68  1  0  0  0
 36 56  1  0  0  0
 36105  1  0  0  0
 37 39  1  0  0  0
 37 47  1  0  0  0
 37 66  1  0  0  0
 37106  1  0  0  0
 38 43  2  0  0  0
 38 46  1  0  0  0
 38 47  1  0  0  0
 39 64  1  0  0  0
 39 67  2  0  0  0
 40 52  1  0  0  0
 40 53  2  0  0  0
 40 58  1  0  0  0
 41107  1  0  0  0
 41108  1  0  0  0
 41109  1  0  0  0
 41 48  1  0  0  0
 42 43  1  0  0  0
 42 66  1  0  0  0
 42110  1  0  0  0
 42111  1  0  0  0
 43 44  1  0  0  0
 44112  1  0  0  0
 45 46  2  0  0  0
 45113  1  0  0  0
 46114  1  0  0  0
 47115  1  0  0  0
 47116  1  0  0  0
 48 56  1  0  0  0
 48 65  1  0  0  0
 48117  1  0  0  0
 49 50  1  0  0  0
 49 53  1  0  0  0
 49 64  1  0  0  0
 49118  1  0  0  0
 50 51  1  0  0  0
 50119  1  0  0  0
 50120  1  0  0  0
 51 52  1  0  0  0
 51121  1  0  0  0
 51122  1  0  0  0
 52123  1  0  0  0
 52124  1  0  0  0
 53 54  1  0  0  0
 54 55  2  0  0  0
 54125  1  0  0  0
 55 57  1  0  0  0
 55126  1  0  0  0
 56 69  2  0  0  0
 57 58  2  0  0  0
 57127  1  0  0  0
 58128  1  0  0  0
 59 60  1  0  0  0
 59 61  1  0  0  0
 59 62  1  0  0  0
 60129  1  0  0  0
 60130  1  0  0  0
 60131  1  0  0  0
 61132  1  0  0  0
 61133  1  0  0  0
 61134  1  0  0  0
 62135  1  0  0  0
 62136  1  0  0  0
 62137  1  0  0  0
 63 65  1  0  0  0
 63138  1  0  0  0
 63139  1  0  0  0
 63140  1  0  0  0
 64141  1  0  0  0
 65142  1  0  0  0
 68 80  1  0  0  0
 71 72  2  0  0  0
 71 73  1  0  0  0
 71143  1  0  0  0
 72 75  1  0  0  0
 72144  1  0  0  0
 73 76  2  0  0  0
 73 78  1  0  0  0
 74 75  2  0  0  0
 74 76  1  0  0  0
 74 79  1  0  0  0
 75 82  1  0  0  0
 76 81  1  0  0  0
 77 80  1  0  0  0
 77 81  1  0  0  0
 77 83  2  0  0  0
 78145  1  0  0  0
 78146  1  0  0  0
 78147  1  0  0  0
 79148  1  0  0  0
 79149  1  0  0  0
 79150  1  0  0  0
 80151  1  0  0  0
 80152  1  0  0  0
 81153  1  0  0  0
 82154  1  0  0  0
M  ISO  4   1 100  68 101  80 101  82 100
M  END
> <chiral flag>
0

> <version>
0

> <s_m_source_file>
/data/baiqing/PycharmProjects/Reinvent-master-3.2/result/LINK_invent/BTK/process_docking_weight1_custom_sum_contain_oxygen_bond_distance_aromatic_linkinvent_7_9_3/rearranged_h_0011.sdf

> <i_m_source_file_index>
71

> <r_mmod_Potential_Energy-OPLS-2005>
643.945495605469

> <r_mmod_Stretch_Energy-OPLS-2005>
355.445526123047

> <r_mmod_Bend_Energy-OPLS-2005>
279.269470214844

> <r_mmod_Torsional_Energy-OPLS-2005>
237.504043579102

> <r_mmod_Improper_Torsional_Energy-OPLS-2005>
6.95645999908447

> <r_mmod_Van_der_Waal_Energy-OPLS-2005>
137.987991333008

> <r_mmod_Electrostatic_Energy-OPLS-2005>
-395.845062255859

> <r_mmod_Solvation_Energy-OPLS-2005>
-245.532302856445

> <b_mmod_Minimization_Converged-OPLS-2005>
0

> <r_mmod_RMS_Derivative-OPLS-2005>
0.506847143173218

$$$$
71
                    3D
 Structure written by MMmdl.
154162  0  0  1  0            999 V2000
  -30.4828  -15.0837   20.3872 C   0  0  0  0  0  0
  -30.4422  -12.6716   19.5378 C   0  0  0  0  0  0
  -29.5368  -12.5578   18.2867 C   0  0  0  0  0  0
  -28.0737  -12.3167   18.6980 C   0  0  0  0  0  0
  -27.6275  -13.2634   19.8417 C   0  0  2  0  0  0
  -28.6597  -13.3404   20.9885 C   0  0  0  0  0  0
  -25.2445  -13.8249   20.5734 C   0  0  0  0  0  0
  -24.1771  -13.0458   20.9237 C   0  0  0  0  0  0
  -24.6401  -11.6947   20.8755 C   0  0  0  0  0  0
  -23.9091  -10.4309   21.0410 C   0  0  0  0  0  0
  -24.3634   -9.4218   21.9186 C   0  0  0  0  0  0
  -23.6300   -8.2256   22.0758 C   0  0  0  0  0  0
  -22.4276   -8.0296   21.3557 C   0  0  0  0  0  0
  -21.9920   -9.0270   20.4657 C   0  0  0  0  0  0
  -22.7260  -10.2146   20.3061 C   0  0  0  0  0  0
  -21.6856   -6.0744   22.5282 C   0  0  0  0  0  0
  -21.4020   -6.5643   23.8219 C   0  0  0  0  0  0
  -21.3656   -5.6796   24.9179 C   0  0  0  0  0  0
  -21.6038   -4.3059   24.7226 C   0  0  0  0  0  0
  -21.8815   -3.8154   23.4345 C   0  0  0  0  0  0
  -21.9195   -4.6973   22.3404 C   0  0  0  0  0  0
  -22.7787  -13.5222   21.1880 C   0  0  0  0  0  0
  -22.1660   -4.2162   21.0982 F   0  0  0  0  0  0
  -21.5622   -3.4539   25.7737 F   0  0  0  0  0  0
  -29.9296  -13.7889   20.4003 N   0  0  0  0  0  0
  -26.2875  -12.9502   20.3251 N   0  0  0  0  0  0
  -25.9339  -11.6618   20.5738 N   0  0  0  0  0  0
  -22.0426  -12.8219   22.0437 N   0  0  0  0  0  0
  -25.4121  -15.1977   20.4179 N   0  0  0  0  0  0
  -31.6635  -15.1418   20.0211 O   0  0  0  0  0  0
  -21.6643   -6.8889   21.4247 O   0  0  0  0  0  0
  -22.3470  -14.5520   20.6712 O   0  0  0  0  0  0
  -24.6501  -31.8329   23.1779 C   0  0  0  0  0  0
  -25.9238  -32.4633   23.8205 C   0  0  1  0  0  0
  -27.2260  -27.0479   20.1615 C   0  0  0  0  0  0
  -25.5949  -33.8444   24.2113 N   0  0  0  0  0  0
  -23.4596  -30.4454   21.5232 C   0  0  2  0  0  0
  -24.9146  -28.8531   20.0991 C   0  0  0  0  0  0
  -22.7608  -29.4475   22.4812 C   0  0  0  0  0  0
  -18.0312  -28.1404   22.8471 C   0  0  0  0  0  0
  -24.1492  -36.7234   23.2646 C   0  0  0  0  0  0
  -26.0184  -30.6762   21.3913 C   0  0  0  0  0  0
  -26.0874  -29.2786   20.7327 C   0  0  0  0  0  0
  -27.2338  -28.3880   20.7527 C   0  0  0  0  0  0
  -26.0339  -26.7433   19.4714 C   0  0  0  0  0  0
  -24.9056  -27.6037   19.4521 C   0  0  0  0  0  0
  -23.6917  -29.7639   20.1447 C   0  0  0  0  0  0
  -25.4128  -36.2995   24.0302 C   0  0  1  0  0  0
  -20.5929  -28.3729   23.1221 C   0  0  2  0  0  0
  -20.6791  -26.9420   22.5414 C   0  0  0  0  0  0
  -19.5768  -26.6376   21.5218 C   0  0  0  0  0  0
  -18.1947  -26.7941   22.1621 C   0  0  0  0  0  0
  -19.1570  -28.8888   23.2835 C   0  0  0  0  0  0
  -18.9484  -30.1483   23.8863 C   0  0  0  0  0  0
  -17.6477  -30.6594   24.0558 C   0  0  0  0  0  0
  -25.9083  -34.9373   23.5028 C   0  0  0  0  0  0
  -16.5368  -29.9083   23.6339 C   0  0  0  0  0  0
  -16.7296  -28.6504   23.0355 C   0  0  0  0  0  0
  -26.4528  -31.6554   25.0700 C   0  0  0  0  0  0
  -25.3681  -31.3788   26.1378 C   0  0  0  0  0  0
  -27.0408  -30.2934   24.6367 C   0  0  0  0  0  0
  -27.6039  -32.4344   25.7495 C   0  0  0  0  0  0
  -27.5572  -37.1772   24.8460 C   0  0  0  0  0  0
  -21.4289  -29.3029   22.3573 N   0  0  0  0  0  0
  -26.4284  -37.3719   23.9402 N   0  0  0  0  0  0
  -24.7293  -31.0099   22.0854 N   0  0  0  0  0  0
  -23.4212  -28.8046   23.3009 O   0  0  0  0  0  0
  -28.2541  -26.0268   20.3460 O   0  0  0  0  0  0
  -26.5686  -34.8894   22.4616 O   0  0  0  0  0  0
  -23.5602  -32.1246   23.6951 O   0  0  0  0  0  0
  -28.4847  -20.0927   18.6889 C   0  0  0  0  0  0
  -29.4849  -19.1030   20.6600 C   0  0  0  0  0  0
  -28.4973  -18.7970   18.1083 C   0  0  0  0  0  0
  -28.9947  -20.3679   19.9765 C   0  0  0  0  0  0
  -29.4887  -17.6914   20.1006 C   0  0  0  0  0  0
  -28.9785  -17.6443   18.7842 C   0  0  0  0  0  0
  -28.1851  -23.0257   20.1669 C   0  0  0  0  0  0
  -27.9776  -18.6320   16.6918 C   0  0  0  0  0  0
  -30.3991  -22.2905   20.8832 C   0  0  0  0  0  0
  -28.5084  -24.6178   19.6449 C   0  0  0  0  0  0
  -29.7507  -16.2816   20.7438 N   0  0  0  0  0  0
  -29.1032  -21.9034   20.3327 N   0  0  0  0  0  0
  -26.9863  -22.7926   20.3524 O   0  0  0  0  0  0
  -28.8952  -16.4442   18.1568 F   0  0  0  0  0  0
  -31.4759  -12.8352   19.2289 H   0  0  0  0  0  0
  -30.4530  -11.7325   20.0932 H   0  0  0  0  0  0
  -29.8836  -11.7528   17.6376 H   0  0  0  0  0  0
  -29.6069  -13.4760   17.7017 H   0  0  0  0  0  0
  -27.9930  -11.2801   19.0265 H   0  0  0  0  0  0
  -27.4127  -12.4173   17.8368 H   0  0  0  0  0  0
  -27.5774  -14.2548   19.3897 H   0  0  0  0  0  0
  -28.7706  -12.3760   21.4863 H   0  0  0  0  0  0
  -28.3290  -14.0455   21.7527 H   0  0  0  0  0  0
  -25.2775   -9.5689   22.4767 H   0  0  0  0  0  0
  -24.0011   -7.4643   22.7466 H   0  0  0  0  0  0
  -21.0856   -8.8796   19.8960 H   0  0  0  0  0  0
  -22.3722  -10.9686   19.6171 H   0  0  0  0  0  0
  -21.2017   -7.6154   23.9727 H   0  0  0  0  0  0
  -21.1477   -6.0526   25.9085 H   0  0  0  0  0  0
  -22.0595   -2.7616   23.2843 H   0  0  0  0  0  0
  -22.4043  -11.9900   22.4860 H   0  0  0  0  0  0
  -21.1034  -13.1244   22.2617 H   0  0  0  0  0  0
  -24.6430  -15.8493   20.5287 H   0  0  0  0  0  0
  -26.2537  -15.6348   20.0648 H   0  0  0  0  0  0
  -26.7305  -32.5206   23.0926 H   0  0  0  0  0  0
  -25.0046  -33.9531   25.0228 H   0  0  0  0  0  0
  -22.7665  -31.2733   21.3602 H   0  0  0  0  0  0
  -23.3757  -35.9563   23.3287 H   0  0  0  0  0  0
  -24.3571  -36.8898   22.2064 H   0  0  0  0  0  0
  -23.7250  -37.6421   23.6709 H   0  0  0  0  0  0
  -26.1863  -31.4254   20.6164 H   0  0  0  0  0  0
  -26.8836  -30.7291   22.0406 H   0  0  0  0  0  0
  -28.1171  -28.6983   21.2928 H   0  0  0  0  0  0
  -25.9350  -25.7762   18.9992 H   0  0  0  0  0  0
  -24.0086  -27.2736   18.9467 H   0  0  0  0  0  0
  -23.8307  -30.5344   19.3856 H   0  0  0  0  0  0
  -22.8054  -29.2074   19.8351 H   0  0  0  0  0  0
  -25.1326  -36.1803   25.0796 H   0  0  0  0  0  0
  -21.0019  -28.3333   24.1344 H   0  0  0  0  0  0
  -20.5676  -26.2339   23.3640 H   0  0  0  0  0  0
  -21.6658  -26.7406   22.1219 H   0  0  0  0  0  0
  -19.6922  -25.6275   21.1274 H   0  0  0  0  0  0
  -19.6716  -27.3165   20.6732 H   0  0  0  0  0  0
  -17.4217  -26.6688   21.4023 H   0  0  0  0  0  0
  -18.0336  -26.0092   22.9024 H   0  0  0  0  0  0
  -19.7959  -30.7313   24.2216 H   0  0  0  0  0  0
  -17.5026  -31.6270   24.5165 H   0  0  0  0  0  0
  -15.5366  -30.2969   23.7684 H   0  0  0  0  0  0
  -15.8698  -28.0811   22.7084 H   0  0  0  0  0  0
  -24.5866  -30.7128   25.7702 H   0  0  0  0  0  0
  -24.8861  -32.2987   26.4702 H   0  0  0  0  0  0
  -25.7931  -30.9030   27.0224 H   0  0  0  0  0  0
  -26.3047  -29.6636   24.1359 H   0  0  0  0  0  0
  -27.3958  -29.7272   25.4988 H   0  0  0  0  0  0
  -27.8982  -30.4142   23.9742 H   0  0  0  0  0  0
  -27.2615  -33.3670   26.1993 H   0  0  0  0  0  0
  -28.3894  -32.6865   25.0357 H   0  0  0  0  0  0
  -28.0660  -31.8526   26.5482 H   0  0  0  0  0  0
  -28.2577  -38.0078   24.7499 H   0  0  0  0  0  0
  -28.1080  -36.2606   24.6295 H   0  0  0  0  0  0
  -27.2287  -37.1428   25.8862 H   0  0  0  0  0  0
  -20.9519  -29.8717   21.6719 H   0  0  0  0  0  0
  -26.0141  -38.2784   24.1402 H   0  0  0  0  0  0
  -28.1224  -20.9176   18.0913 H   0  0  0  0  0  0
  -29.8711  -19.2206   21.6621 H   0  0  0  0  0  0
  -27.6828  -19.5849   16.2523 H   0  0  0  0  0  0
  -27.1113  -17.9704   16.6789 H   0  0  0  0  0  0
  -28.7491  -18.1971   16.0551 H   0  0  0  0  0  0
  -30.8670  -21.4610   21.4123 H   0  0  0  0  0  0
  -30.3158  -23.1137   21.5955 H   0  0  0  0  0  0
  -31.0726  -22.5976   20.0828 H   0  0  0  0  0  0
  -28.0420  -24.6893   18.6625 H   0  0  0  0  0  0
  -29.5746  -24.6202   19.4206 H   0  0  0  0  0  0
  -28.9820  -16.0251   21.3450 H   0  0  0  0  0  0
  1 25  1  0  0  0
  1 30  2  0  0  0
  1 81  1  0  0  0
  2  3  1  0  0  0
  2 25  1  0  0  0
  2 85  1  0  0  0
  2 86  1  0  0  0
  3  4  1  0  0  0
  3 87  1  0  0  0
  3 88  1  0  0  0
  4  5  1  0  0  0
  4 89  1  0  0  0
  4 90  1  0  0  0
  5  6  1  0  0  0
  5 26  1  0  0  0
  5 91  1  0  0  0
  6 25  1  0  0  0
  6 92  1  0  0  0
  6 93  1  0  0  0
  7  8  2  0  0  0
  7 26  1  0  0  0
  7 29  1  0  0  0
  8  9  1  0  0  0
  8 22  1  0  0  0
  9 10  1  0  0  0
  9 27  2  0  0  0
 10 11  2  0  0  0
 10 15  1  0  0  0
 11 12  1  0  0  0
 11 94  1  0  0  0
 12 13  2  0  0  0
 12 95  1  0  0  0
 13 14  1  0  0  0
 13 31  1  0  0  0
 14 15  2  0  0  0
 14 96  1  0  0  0
 15 97  1  0  0  0
 16 17  2  0  0  0
 16 21  1  0  0  0
 16 31  1  0  0  0
 17 18  1  0  0  0
 17 98  1  0  0  0
 18 19  2  0  0  0
 18 99  1  0  0  0
 19 20  1  0  0  0
 19 24  1  0  0  0
 20 21  2  0  0  0
 20100  1  0  0  0
 21 23  1  0  0  0
 22 28  1  0  0  0
 22 32  2  0  0  0
 26 27  1  0  0  0
 28101  1  0  0  0
 28102  1  0  0  0
 29103  1  0  0  0
 29104  1  0  0  0
 33 34  1  0  0  0
 33 66  1  0  0  0
 33 70  2  0  0  0
 34 36  1  0  0  0
 34 59  1  0  0  0
 34105  1  0  0  0
 35 44  2  0  0  0
 35 45  1  0  0  0
 35 68  1  0  0  0
 36 56  1  0  0  0
 36106  1  0  0  0
 37 39  1  0  0  0
 37 47  1  0  0  0
 37 66  1  0  0  0
 37107  1  0  0  0
 38 43  2  0  0  0
 38 46  1  0  0  0
 38 47  1  0  0  0
 39 64  1  0  0  0
 39 67  2  0  0  0
 40 52  1  0  0  0
 40 53  2  0  0  0
 40 58  1  0  0  0
 41108  1  0  0  0
 41109  1  0  0  0
 41110  1  0  0  0
 41 48  1  0  0  0
 42 43  1  0  0  0
 42 66  1  0  0  0
 42111  1  0  0  0
 42112  1  0  0  0
 43 44  1  0  0  0
 44113  1  0  0  0
 45 46  2  0  0  0
 45114  1  0  0  0
 46115  1  0  0  0
 47116  1  0  0  0
 47117  1  0  0  0
 48 56  1  0  0  0
 48 65  1  0  0  0
 48118  1  0  0  0
 49 50  1  0  0  0
 49 53  1  0  0  0
 49 64  1  0  0  0
 49119  1  0  0  0
 50 51  1  0  0  0
 50120  1  0  0  0
 50121  1  0  0  0
 51 52  1  0  0  0
 51122  1  0  0  0
 51123  1  0  0  0
 52124  1  0  0  0
 52125  1  0  0  0
 53 54  1  0  0  0
 54 55  2  0  0  0
 54126  1  0  0  0
 55 57  1  0  0  0
 55127  1  0  0  0
 56 69  2  0  0  0
 57 58  2  0  0  0
 57128  1  0  0  0
 58129  1  0  0  0
 59 60  1  0  0  0
 59 61  1  0  0  0
 59 62  1  0  0  0
 60130  1  0  0  0
 60131  1  0  0  0
 60132  1  0  0  0
 61133  1  0  0  0
 61134  1  0  0  0
 61135  1  0  0  0
 62136  1  0  0  0
 62137  1  0  0  0
 62138  1  0  0  0
 63 65  1  0  0  0
 63139  1  0  0  0
 63140  1  0  0  0
 63141  1  0  0  0
 64142  1  0  0  0
 65143  1  0  0  0
 68 80  1  0  0  0
 71 73  2  0  0  0
 71 74  1  0  0  0
 71144  1  0  0  0
 72 74  2  0  0  0
 72 75  1  0  0  0
 72145  1  0  0  0
 73 76  1  0  0  0
 73 78  1  0  0  0
 74 82  1  0  0  0
 75 76  2  0  0  0
 75 81  1  0  0  0
 76 84  1  0  0  0
 77 80  1  0  0  0
 77 82  1  0  0  0
 77 83  2  0  0  0
 78146  1  0  0  0
 78147  1  0  0  0
 78148  1  0  0  0
 79 82  1  0  0  0
 79149  1  0  0  0
 79150  1  0  0  0
 79151  1  0  0  0
 80152  1  0  0  0
 80153  1  0  0  0
 81154  1  0  0  0
M  ISO  4   1 100  68 101  80 101  81 100
M  END
> <chiral flag>
0

> <version>
0

> <s_m_source_file>
/data/baiqing/PycharmProjects/Reinvent-master-3.2/result/LINK_invent/BTK/process_docking_weight1_custom_sum_contain_oxygen_bond_distance_aromatic_linkinvent_7_9_3/rearranged_h_0011.sdf

> <i_m_source_file_index>
72

> <r_mmod_Potential_Energy-OPLS-2005>
897.730895996094

> <r_mmod_Stretch_Energy-OPLS-2005>
374.695587158203

> <r_mmod_Bend_Energy-OPLS-2005>
354.029083251953

> <r_mmod_Torsional_Energy-OPLS-2005>
324.741577148438

> <r_mmod_Improper_Torsional_Energy-OPLS-2005>
6.70387649536133

> <r_mmod_Van_der_Waal_Energy-OPLS-2005>
121.1416015625

> <r_mmod_Electrostatic_Energy-OPLS-2005>
-353.079437255859

> <r_mmod_Solvation_Energy-OPLS-2005>
-227.03010559082

> <b_mmod_Minimization_Converged-OPLS-2005>
0

> <r_mmod_RMS_Derivative-OPLS-2005>
0.928784251213074

$$$$
72
                    3D
 Structure written by MMmdl.
168176  0  0  1  0            999 V2000
  -30.7385  -14.4110   20.5898 C   0  0  0  0  0  0
  -30.4124  -12.2723   19.4220 C   0  0  0  0  0  0
  -29.4929  -12.5025   18.2064 C   0  0  0  0  0  0
  -28.0130  -12.3759   18.6162 C   0  0  0  0  0  0
  -27.6646  -13.2087   19.8801 C   0  0  2  0  0  0
  -28.7033  -12.9742   21.0005 C   0  0  0  0  0  0
  -25.2598  -13.8174   20.5707 C   0  0  0  0  0  0
  -24.1836  -13.0443   20.9153 C   0  0  0  0  0  0
  -24.6392  -11.6915   20.8710 C   0  0  0  0  0  0
  -23.9058  -10.4301   21.0389 C   0  0  0  0  0  0
  -24.3612   -9.4217   21.9166 C   0  0  0  0  0  0
  -23.6290   -8.2251   22.0744 C   0  0  0  0  0  0
  -22.4269   -8.0284   21.3543 C   0  0  0  0  0  0
  -21.9903   -9.0253   20.4642 C   0  0  0  0  0  0
  -22.7230  -10.2134   20.3045 C   0  0  0  0  0  0
  -21.6855   -6.0738   22.5280 C   0  0  0  0  0  0
  -21.4017   -6.5638   23.8213 C   0  0  0  0  0  0
  -21.3662   -5.6788   24.9171 C   0  0  0  0  0  0
  -21.6045   -4.3051   24.7221 C   0  0  0  0  0  0
  -21.8817   -3.8148   23.4342 C   0  0  0  0  0  0
  -21.9191   -4.6966   22.3402 C   0  0  0  0  0  0
  -22.7861  -13.5242   21.1824 C   0  0  0  0  0  0
  -22.1662   -4.2153   21.0978 F   0  0  0  0  0  0
  -21.5625   -3.4533   25.7735 F   0  0  0  0  0  0
  -30.0421  -13.2530   20.4534 N   0  0  0  0  0  0
  -26.3036  -12.9354   20.3390 N   0  0  0  0  0  0
  -25.9323  -11.6505   20.5753 N   0  0  0  0  0  0
  -22.0507  -12.8244   22.0394 N   0  0  0  0  0  0
  -25.4332  -15.1897   20.4219 N   0  0  0  0  0  0
  -31.8495  -14.5813   20.0808 O   0  0  0  0  0  0
  -21.6638   -6.8880   21.4241 O   0  0  0  0  0  0
  -22.3547  -14.5549   20.6676 O   0  0  0  0  0  0
  -24.6118  -31.8694   23.2127 C   0  0  0  0  0  0
  -25.9028  -32.4825   23.8408 C   0  0  1  0  0  0
  -27.2307  -27.4557   20.0932 C   0  0  0  0  0  0
  -25.5902  -33.8625   24.2346 N   0  0  0  0  0  0
  -23.3976  -30.4942   21.5526 C   0  0  2  0  0  0
  -24.8415  -28.9610   20.1186 C   0  0  0  0  0  0
  -22.7392  -29.4663   22.5003 C   0  0  0  0  0  0
  -18.0267  -28.1371   22.8491 C   0  0  0  0  0  0
  -24.1488  -36.7313   23.2640 C   0  0  0  0  0  0
  -25.9249  -30.8412   21.3628 C   0  0  0  0  0  0
  -26.0004  -29.4772   20.7111 C   0  0  0  0  0  0
  -27.1977  -28.7321   20.6930 C   0  0  0  0  0  0
  -26.0555  -26.9496   19.4921 C   0  0  0  0  0  0
  -24.8622  -27.6948   19.5086 C   0  0  0  0  0  0
  -23.6040  -29.8259   20.1673 C   0  0  0  0  0  0
  -25.4108  -36.3114   24.0343 C   0  0  1  0  0  0
  -20.5855  -28.3647   23.1326 C   0  0  2  0  0  0
  -20.6759  -26.9386   22.5417 C   0  0  0  0  0  0
  -19.5740  -26.6382   21.5210 C   0  0  0  0  0  0
  -18.1918  -26.7920   22.1621 C   0  0  0  0  0  0
  -19.1515  -28.8826   23.2909 C   0  0  0  0  0  0
  -18.9444  -30.1437   23.8916 C   0  0  0  0  0  0
  -17.6446  -30.6582   24.0561 C   0  0  0  0  0  0
  -25.9031  -34.9477   23.5138 C   0  0  0  0  0  0
  -16.5337  -29.9081   23.6325 C   0  0  0  0  0  0
  -16.7256  -28.6497   23.0347 C   0  0  0  0  0  0
  -26.4464  -31.6589   25.0719 C   0  0  0  0  0  0
  -25.3747  -31.3692   26.1482 C   0  0  0  0  0  0
  -27.0282  -30.3036   24.6076 C   0  0  0  0  0  0
  -27.6055  -32.4292   25.7476 C   0  0  0  0  0  0
  -27.5581  -37.1812   24.8466 C   0  0  0  0  0  0
  -21.4122  -29.3024   22.3743 N   0  0  0  0  0  0
  -26.4297  -37.3795   23.9407 N   0  0  0  0  0  0
  -24.6633  -31.0817   22.1017 N   0  0  0  0  0  0
  -23.4180  -28.8201   23.3029 O   0  0  0  0  0  0
  -28.4221  -26.7690   20.0623 O   0  0  0  0  0  0
  -26.5580  -34.8923   22.4691 O   0  0  0  0  0  0
  -23.5316  -32.1435   23.7541 O   0  0  0  0  0  0
  -30.6487  -19.4906   20.2481 C   0  0  0  0  0  0
  -29.3574  -18.9299   20.3131 C   0  0  0  0  0  0
  -31.5954  -17.3714   20.9623 C   0  0  0  0  0  0
  -31.7845  -18.7180   20.5820 C   0  0  0  0  0  0
  -30.3088  -16.7821   20.9638 C   0  0  0  0  0  0
  -29.1867  -17.5788   20.6674 C   0  0  0  0  0  0
  -33.1719  -19.2291   20.5410 C   0  0  0  0  0  0
  -33.6799  -20.4766   20.6781 C   0  0  0  0  0  0
  -31.3414  -22.5640   22.7464 C   0  0  0  0  0  0
  -28.6728  -25.1267   21.8502 C   0  0  0  0  0  0
  -35.1697  -20.7085   20.4953 C   0  0  0  0  0  0
  -32.9155  -21.7525   21.0182 C   0  0  0  0  0  0
  -30.0605  -22.2272   23.5218 C   0  0  0  0  0  0
  -28.3969  -25.3670   20.3584 C   0  0  0  0  0  0
  -29.0207  -23.3723   23.5952 C   0  0  0  0  0  0
  -30.0987  -15.4010   21.2297 N   0  0  0  0  0  0
  -31.9066  -21.5686   22.0549 N   0  0  0  0  0  0
  -28.6034  -23.8561   22.2735 N   0  0  0  0  0  0
  -31.7912  -23.7115   22.7384 O   0  0  0  0  0  0
  -28.9712  -26.0622   22.5987 O   0  0  0  0  0  0
  -27.9472  -17.0313   20.6833 F   0  0  0  0  0  0
  -31.4605  -12.3440   19.1255 H   0  0  0  0  0  0
  -30.2874  -11.2598   19.8099 H   0  0  0  0  0  0
  -29.7238  -11.7829   17.4197 H   0  0  0  0  0  0
  -29.6777  -13.4904   17.7818 H   0  0  0  0  0  0
  -27.8132  -11.3203   18.8038 H   0  0  0  0  0  0
  -27.3671  -12.6643   17.7864 H   0  0  0  0  0  0
  -27.7154  -14.2597   19.5936 H   0  0  0  0  0  0
  -28.6633  -11.9388   21.3413 H   0  0  0  0  0  0
  -28.4692  -13.5747   21.8802 H   0  0  0  0  0  0
  -25.2759   -9.5695   22.4733 H   0  0  0  0  0  0
  -24.0001   -7.4648   22.7467 H   0  0  0  0  0  0
  -21.0828   -8.8765   19.8962 H   0  0  0  0  0  0
  -22.3673  -10.9663   19.6149 H   0  0  0  0  0  0
  -21.2014   -7.6146   23.9720 H   0  0  0  0  0  0
  -21.1483   -6.0515   25.9074 H   0  0  0  0  0  0
  -22.0595   -2.7613   23.2834 H   0  0  0  0  0  0
  -22.4112  -11.9898   22.4778 H   0  0  0  0  0  0
  -21.1123  -13.1269   22.2595 H   0  0  0  0  0  0
  -24.6781  -15.8483   20.5748 H   0  0  0  0  0  0
  -26.3147  -15.6452   20.2138 H   0  0  0  0  0  0
  -26.7095  -32.5539   23.1172 H   0  0  0  0  0  0
  -25.0072  -33.9796   25.0504 H   0  0  0  0  0  0
  -22.6849  -31.3105   21.4151 H   0  0  0  0  0  0
  -23.3746  -35.9651   23.3317 H   0  0  0  0  0  0
  -24.3581  -36.8906   22.2050 H   0  0  0  0  0  0
  -23.7248  -37.6529   23.6637 H   0  0  0  0  0  0
  -26.0370  -31.6089   20.5957 H   0  0  0  0  0  0
  -26.8144  -30.8918   21.9795 H   0  0  0  0  0  0
  -28.0969  -29.1304   21.1429 H   0  0  0  0  0  0
  -26.0500  -25.9973   18.9833 H   0  0  0  0  0  0
  -23.9722  -27.2947   19.0420 H   0  0  0  0  0  0
  -23.7118  -30.6002   19.4068 H   0  0  0  0  0  0
  -22.7283  -29.2444   19.8730 H   0  0  0  0  0  0
  -25.1287  -36.1984   25.0836 H   0  0  0  0  0  0
  -20.9952  -28.3206   24.1445 H   0  0  0  0  0  0
  -20.5662  -26.2250   23.3598 H   0  0  0  0  0  0
  -21.6629  -26.7434   22.1207 H   0  0  0  0  0  0
  -19.6900  -25.6301   21.1224 H   0  0  0  0  0  0
  -19.6687  -27.3206   20.6754 H   0  0  0  0  0  0
  -17.4190  -26.6664   21.4024 H   0  0  0  0  0  0
  -18.0317  -26.0063   22.9019 H   0  0  0  0  0  0
  -19.7920  -30.7248   24.2294 H   0  0  0  0  0  0
  -17.5001  -31.6266   24.5153 H   0  0  0  0  0  0
  -15.5338  -30.2986   23.7645 H   0  0  0  0  0  0
  -15.8656  -28.0828   22.7048 H   0  0  0  0  0  0
  -24.5913  -30.7044   25.7825 H   0  0  0  0  0  0
  -24.8949  -32.2842   26.4955 H   0  0  0  0  0  0
  -25.8112  -30.8844   27.0222 H   0  0  0  0  0  0
  -26.2815  -29.6809   24.1132 H   0  0  0  0  0  0
  -27.4061  -29.7254   25.4518 H   0  0  0  0  0  0
  -27.8649  -30.4357   23.9213 H   0  0  0  0  0  0
  -27.2688  -33.3576   26.2097 H   0  0  0  0  0  0
  -28.3840  -32.6869   25.0284 H   0  0  0  0  0  0
  -28.0750  -31.8387   26.5353 H   0  0  0  0  0  0
  -28.2608  -38.0101   24.7501 H   0  0  0  0  0  0
  -28.1065  -36.2630   24.6304 H   0  0  0  0  0  0
  -27.2294  -37.1479   25.8869 H   0  0  0  0  0  0
  -20.9272  -29.8753   21.6979 H   0  0  0  0  0  0
  -26.0186  -38.2876   24.1403 H   0  0  0  0  0  0
  -30.7510  -20.5123   19.9152 H   0  0  0  0  0  0
  -28.4954  -19.5295   20.0606 H   0  0  0  0  0  0
  -32.4585  -16.7736   21.2178 H   0  0  0  0  0  0
  -33.8947  -18.4539   20.3266 H   0  0  0  0  0  0
  -35.3429  -21.4272   19.6929 H   0  0  0  0  0  0
  -35.7022  -19.7924   20.2391 H   0  0  0  0  0  0
  -35.6109  -21.1077   21.4089 H   0  0  0  0  0  0
  -32.4550  -22.1488   20.1117 H   0  0  0  0  0  0
  -33.6278  -22.5087   21.3524 H   0  0  0  0  0  0
  -30.3463  -21.9352   24.5323 H   0  0  0  0  0  0
  -29.5912  -21.3501   23.0746 H   0  0  0  0  0  0
  -27.4770  -24.8587   20.0752 H   0  0  0  0  0  0
  -29.1950  -24.8907   19.7878 H   0  0  0  0  0  0
  -29.4237  -24.1798   24.2086 H   0  0  0  0  0  0
  -28.1335  -23.0169   24.1194 H   0  0  0  0  0  0
  -29.1780  -15.1590   21.5632 H   0  0  0  0  0  0
  -31.5089  -20.6423   22.1404 H   0  0  0  0  0  0
  -28.3107  -23.1622   21.5977 H   0  0  0  0  0  0
  1 25  1  0  0  0
  1 30  2  0  0  0
  1 86  1  0  0  0
  2  3  1  0  0  0
  2 25  1  0  0  0
  2 92  1  0  0  0
  2 93  1  0  0  0
  3  4  1  0  0  0
  3 94  1  0  0  0
  3 95  1  0  0  0
  4  5  1  0  0  0
  4 96  1  0  0  0
  4 97  1  0  0  0
  5  6  1  0  0  0
  5 26  1  0  0  0
  5 98  1  0  0  0
  6 25  1  0  0  0
  6 99  1  0  0  0
  6100  1  0  0  0
  7  8  2  0  0  0
  7 26  1  0  0  0
  7 29  1  0  0  0
  8  9  1  0  0  0
  8 22  1  0  0  0
  9 10  1  0  0  0
  9 27  2  0  0  0
 10 11  2  0  0  0
 10 15  1  0  0  0
 11 12  1  0  0  0
 11101  1  0  0  0
 12 13  2  0  0  0
 12102  1  0  0  0
 13 14  1  0  0  0
 13 31  1  0  0  0
 14 15  2  0  0  0
 14103  1  0  0  0
 15104  1  0  0  0
 16 17  2  0  0  0
 16 21  1  0  0  0
 16 31  1  0  0  0
 17 18  1  0  0  0
 17105  1  0  0  0
 18 19  2  0  0  0
 18106  1  0  0  0
 19 20  1  0  0  0
 19 24  1  0  0  0
 20 21  2  0  0  0
 20107  1  0  0  0
 21 23  1  0  0  0
 22 28  1  0  0  0
 22 32  2  0  0  0
 26 27  1  0  0  0
 28108  1  0  0  0
 28109  1  0  0  0
 29110  1  0  0  0
 29111  1  0  0  0
 33 34  1  0  0  0
 33 66  1  0  0  0
 33 70  2  0  0  0
 34 36  1  0  0  0
 34 59  1  0  0  0
 34112  1  0  0  0
 35 44  2  0  0  0
 35 45  1  0  0  0
 35 68  1  0  0  0
 36 56  1  0  0  0
 36113  1  0  0  0
 37 39  1  0  0  0
 37 47  1  0  0  0
 37 66  1  0  0  0
 37114  1  0  0  0
 38 43  2  0  0  0
 38 46  1  0  0  0
 38 47  1  0  0  0
 39 64  1  0  0  0
 39 67  2  0  0  0
 40 52  1  0  0  0
 40 53  2  0  0  0
 40 58  1  0  0  0
 41115  1  0  0  0
 41116  1  0  0  0
 41117  1  0  0  0
 41 48  1  0  0  0
 42 43  1  0  0  0
 42 66  1  0  0  0
 42118  1  0  0  0
 42119  1  0  0  0
 43 44  1  0  0  0
 44120  1  0  0  0
 45 46  2  0  0  0
 45121  1  0  0  0
 46122  1  0  0  0
 47123  1  0  0  0
 47124  1  0  0  0
 48 56  1  0  0  0
 48 65  1  0  0  0
 48125  1  0  0  0
 49 50  1  0  0  0
 49 53  1  0  0  0
 49 64  1  0  0  0
 49126  1  0  0  0
 50 51  1  0  0  0
 50127  1  0  0  0
 50128  1  0  0  0
 51 52  1  0  0  0
 51129  1  0  0  0
 51130  1  0  0  0
 52131  1  0  0  0
 52132  1  0  0  0
 53 54  1  0  0  0
 54 55  2  0  0  0
 54133  1  0  0  0
 55 57  1  0  0  0
 55134  1  0  0  0
 56 69  2  0  0  0
 57 58  2  0  0  0
 57135  1  0  0  0
 58136  1  0  0  0
 59 60  1  0  0  0
 59 61  1  0  0  0
 59 62  1  0  0  0
 60137  1  0  0  0
 60138  1  0  0  0
 60139  1  0  0  0
 61140  1  0  0  0
 61141  1  0  0  0
 61142  1  0  0  0
 62143  1  0  0  0
 62144  1  0  0  0
 62145  1  0  0  0
 63 65  1  0  0  0
 63146  1  0  0  0
 63147  1  0  0  0
 63148  1  0  0  0
 64149  1  0  0  0
 65150  1  0  0  0
 68 84  1  0  0  0
 71 72  2  0  0  0
 71 74  1  0  0  0
 71151  1  0  0  0
 72 76  1  0  0  0
 72152  1  0  0  0
 73 74  2  0  0  0
 73 75  1  0  0  0
 73153  1  0  0  0
 74 77  1  0  0  0
 75 76  2  0  0  0
 75 86  1  0  0  0
 76 91  1  0  0  0
 77 78  2  0  0  0
 77154  1  0  0  0
 78 81  1  0  0  0
 78 82  1  0  0  0
 79 83  1  0  0  0
 79 87  1  0  0  0
 79 89  2  0  0  0
 80 84  1  0  0  0
 80 88  1  0  0  0
 80 90  2  0  0  0
 81155  1  0  0  0
 81156  1  0  0  0
 81157  1  0  0  0
 82 87  1  0  0  0
 82158  1  0  0  0
 82159  1  0  0  0
 83 85  1  0  0  0
 83160  1  0  0  0
 83161  1  0  0  0
 84162  1  0  0  0
 84163  1  0  0  0
 85 88  1  0  0  0
 85164  1  0  0  0
 85165  1  0  0  0
 86166  1  0  0  0
 87167  1  0  0  0
 88168  1  0  0  0
M  ISO  4   1 100  68 101  84 101  86 100
M  END
> <chiral flag>
0

> <version>
0

> <s_m_source_file>
/data/baiqing/PycharmProjects/Reinvent-master-3.2/result/LINK_invent/BTK/process_docking_weight1_custom_sum_contain_oxygen_bond_distance_aromatic_linkinvent_7_9_3/rearranged_h_0011.sdf

> <i_m_source_file_index>
73

> <r_mmod_Potential_Energy-OPLS-2005>
-173.231735229492

> <r_mmod_Stretch_Energy-OPLS-2005>
34.5135078430176

> <r_mmod_Bend_Energy-OPLS-2005>
107.503997802734

> <r_mmod_Torsional_Energy-OPLS-2005>
227.231994628906

> <r_mmod_Improper_Torsional_Energy-OPLS-2005>
5.28285264968872

> <r_mmod_Van_der_Waal_Energy-OPLS-2005>
161.872100830078

> <r_mmod_Electrostatic_Energy-OPLS-2005>
-449.582580566406

> <r_mmod_Solvation_Energy-OPLS-2005>
-269.578216552734

> <b_mmod_Minimization_Converged-OPLS-2005>
0

> <r_mmod_RMS_Derivative-OPLS-2005>
1.1742856502533

$$$$
73
                    3D
 Structure written by MMmdl.
147155  0  0  1  0            999 V2000
  -30.4290  -15.1997   20.3782 C   0  0  0  0  0  0
  -30.4486  -12.7581   19.5222 C   0  0  0  0  0  0
  -29.5371  -12.5706   18.2824 C   0  0  0  0  0  0
  -28.0801  -12.3072   18.7048 C   0  0  0  0  0  0
  -27.6194  -13.2669   19.8306 C   0  0  2  0  0  0
  -28.6563  -13.3904   20.9676 C   0  0  0  0  0  0
  -25.2415  -13.8231   20.5731 C   0  0  0  0  0  0
  -24.1756  -13.0430   20.9239 C   0  0  0  0  0  0
  -24.6402  -11.6926   20.8752 C   0  0  0  0  0  0
  -23.9092  -10.4290   21.0402 C   0  0  0  0  0  0
  -24.3636   -9.4204   21.9182 C   0  0  0  0  0  0
  -23.6303   -8.2243   22.0754 C   0  0  0  0  0  0
  -22.4284   -8.0283   21.3545 C   0  0  0  0  0  0
  -21.9925   -9.0257   20.4645 C   0  0  0  0  0  0
  -22.7262  -10.2132   20.3052 C   0  0  0  0  0  0
  -21.6856   -6.0738   22.5279 C   0  0  0  0  0  0
  -21.4016   -6.5641   23.8213 C   0  0  0  0  0  0
  -21.3660   -5.6793   24.9174 C   0  0  0  0  0  0
  -21.6044   -4.3055   24.7225 C   0  0  0  0  0  0
  -21.8819   -3.8148   23.4346 C   0  0  0  0  0  0
  -21.9194   -4.6965   22.3402 C   0  0  0  0  0  0
  -22.7774  -13.5189   21.1893 C   0  0  0  0  0  0
  -22.1662   -4.2150   21.0979 F   0  0  0  0  0  0
  -21.5628   -3.4539   25.7737 F   0  0  0  0  0  0
  -29.9006  -13.8840   20.3559 N   0  0  0  0  0  0
  -26.2848  -12.9495   20.3229 N   0  0  0  0  0  0
  -25.9340  -11.6607   20.5723 N   0  0  0  0  0  0
  -22.0434  -12.8171   22.0451 N   0  0  0  0  0  0
  -25.4035  -15.1967   20.4179 N   0  0  0  0  0  0
  -31.6405  -15.2599   20.1237 O   0  0  0  0  0  0
  -21.6644   -6.8883   21.4242 O   0  0  0  0  0  0
  -22.3449  -14.5491   20.6738 O   0  0  0  0  0  0
  -24.6590  -31.8272   23.1730 C   0  0  0  0  0  0
  -25.9288  -32.4606   23.8183 C   0  0  1  0  0  0
  -27.2228  -26.9695   20.1793 C   0  0  0  0  0  0
  -25.5970  -33.8419   24.2091 N   0  0  0  0  0  0
  -23.4720  -30.4391   21.5214 C   0  0  2  0  0  0
  -24.9258  -28.8323   20.1116 C   0  0  0  0  0  0
  -22.7648  -29.4457   22.4795 C   0  0  0  0  0  0
  -18.0319  -28.1406   22.8469 C   0  0  0  0  0  0
  -24.1493  -36.7215   23.2646 C   0  0  0  0  0  0
  -26.0382  -30.6474   21.3967 C   0  0  0  0  0  0
  -26.1080  -29.2411   20.7413 C   0  0  0  0  0  0
  -27.2522  -28.3300   20.7506 C   0  0  0  0  0  0
  -26.0118  -26.7012   19.5035 C   0  0  0  0  0  0
  -24.9005  -27.5818   19.4730 C   0  0  0  0  0  0
  -23.7095  -29.7550   20.1470 C   0  0  0  0  0  0
  -25.4132  -36.2978   24.0302 C   0  0  1  0  0  0
  -20.5941  -28.3747   23.1198 C   0  0  2  0  0  0
  -20.6796  -26.9432   22.5403 C   0  0  0  0  0  0
  -19.5770  -26.6378   21.5214 C   0  0  0  0  0  0
  -18.1953  -26.7940   22.1623 C   0  0  0  0  0  0
  -19.1579  -28.8897   23.2821 C   0  0  0  0  0  0
  -18.9491  -30.1488   23.8854 C   0  0  0  0  0  0
  -17.6485  -30.6597   24.0555 C   0  0  0  0  0  0
  -25.9095  -34.9360   23.5017 C   0  0  0  0  0  0
  -16.5375  -29.9085   23.6342 C   0  0  0  0  0  0
  -16.7301  -28.6505   23.0361 C   0  0  0  0  0  0
  -26.4553  -31.6539   25.0697 C   0  0  0  0  0  0
  -25.3689  -31.3779   26.1360 C   0  0  0  0  0  0
  -27.0447  -30.2913   24.6404 C   0  0  0  0  0  0
  -27.6048  -32.4344   25.7500 C   0  0  0  0  0  0
  -27.5571  -37.1764   24.8466 C   0  0  0  0  0  0
  -21.4321  -29.3042   22.3548 N   0  0  0  0  0  0
  -26.4280  -37.3711   23.9408 N   0  0  0  0  0  0
  -24.7440  -30.9972   22.0844 N   0  0  0  0  0  0
  -23.4213  -28.8027   23.3024 O   0  0  0  0  0  0
  -28.2380  -25.8918   20.2618 O   0  0  0  0  0  0
  -26.5703  -34.8889   22.4612 O   0  0  0  0  0  0
  -23.5669  -32.1222   23.6849 O   0  0  0  0  0  0
  -28.1709  -20.2505   20.6851 C   0  0  0  0  0  0
  -30.5234  -18.9841   20.0440 C   0  0  0  0  0  0
  -29.1582  -21.2614   20.3347 C   0  0  0  0  0  0
  -29.5346  -17.9945   20.4245 C   0  0  0  0  0  0
  -28.3372  -18.7738   20.7247 C   0  0  0  0  0  0
  -30.3542  -20.4630   20.0007 C   0  0  0  0  0  0
  -29.0861  -22.9752   20.4759 C   0  0  0  0  0  0
  -27.9887  -24.2840   20.0794 C   0  0  0  0  0  0
  -30.1091  -23.4769   21.0277 N   0  0  0  0  0  0
  -29.5772  -16.3877   20.5162 N   0  0  0  0  0  0
  -27.2510  -18.0555   21.0964 F   0  0  0  0  0  0
  -31.7732  -21.3091   19.4882 Cl  0  0  0  0  0  0
  -31.4690  -12.9640   19.1962 H   0  0  0  0  0  0
  -30.5066  -11.8370   20.1044 H   0  0  0  0  0  0
  -29.9026  -11.7519   17.6611 H   0  0  0  0  0  0
  -29.5796  -13.4680   17.6632 H   0  0  0  0  0  0
  -28.0205  -11.2765   19.0563 H   0  0  0  0  0  0
  -27.4135  -12.3761   17.8444 H   0  0  0  0  0  0
  -27.5494  -14.2464   19.3564 H   0  0  0  0  0  0
  -28.8052  -12.4366   21.4759 H   0  0  0  0  0  0
  -28.3090  -14.0935   21.7262 H   0  0  0  0  0  0
  -25.2778   -9.5680   22.4762 H   0  0  0  0  0  0
  -24.0007   -7.4635   22.7477 H   0  0  0  0  0  0
  -21.0856   -8.8781   19.8951 H   0  0  0  0  0  0
  -22.3721  -10.9672   19.6163 H   0  0  0  0  0  0
  -21.2010   -7.6149   23.9716 H   0  0  0  0  0  0
  -21.1482   -6.0523   25.9077 H   0  0  0  0  0  0
  -22.0597   -2.7610   23.2846 H   0  0  0  0  0  0
  -22.4068  -11.9841   22.4839 H   0  0  0  0  0  0
  -21.1047  -13.1180   22.2658 H   0  0  0  0  0  0
  -24.6348  -15.8442   20.5525 H   0  0  0  0  0  0
  -26.2462  -15.6538   20.0974 H   0  0  0  0  0  0
  -26.7356  -32.5159   23.0900 H   0  0  0  0  0  0
  -25.0067  -33.9503   25.0208 H   0  0  0  0  0  0
  -22.7831  -31.2694   21.3526 H   0  0  0  0  0  0
  -23.3766  -35.9535   23.3279 H   0  0  0  0  0  0
  -24.3571  -36.8890   22.2066 H   0  0  0  0  0  0
  -23.7239  -37.6392   23.6719 H   0  0  0  0  0  0
  -26.2130  -31.3911   20.6181 H   0  0  0  0  0  0
  -26.9003  -30.7039   22.0495 H   0  0  0  0  0  0
  -28.1480  -28.6402   21.2699 H   0  0  0  0  0  0
  -25.8922  -25.7441   19.0173 H   0  0  0  0  0  0
  -24.0011  -27.2628   18.9642 H   0  0  0  0  0  0
  -23.8607  -30.5236   19.3881 H   0  0  0  0  0  0
  -22.8204  -29.2062   19.8316 H   0  0  0  0  0  0
  -25.1329  -36.1778   25.0793 H   0  0  0  0  0  0
  -21.0030  -28.3352   24.1321 H   0  0  0  0  0  0
  -20.5678  -26.2365   23.3640 H   0  0  0  0  0  0
  -21.6660  -26.7412   22.1210 H   0  0  0  0  0  0
  -19.6930  -25.6277   21.1272 H   0  0  0  0  0  0
  -19.6709  -27.3164   20.6725 H   0  0  0  0  0  0
  -17.4221  -26.6683   21.4027 H   0  0  0  0  0  0
  -18.0348  -26.0093   22.9029 H   0  0  0  0  0  0
  -19.7967  -30.7315   24.2204 H   0  0  0  0  0  0
  -17.5037  -31.6272   24.5165 H   0  0  0  0  0  0
  -15.5374  -30.2972   23.7691 H   0  0  0  0  0  0
  -15.8702  -28.0809   22.7101 H   0  0  0  0  0  0
  -24.5886  -30.7112   25.7671 H   0  0  0  0  0  0
  -24.8861  -32.2977   26.4671 H   0  0  0  0  0  0
  -25.7929  -30.9023   27.0213 H   0  0  0  0  0  0
  -26.3108  -29.6593   24.1392 H   0  0  0  0  0  0
  -27.3976  -29.7269   25.5046 H   0  0  0  0  0  0
  -27.9048  -30.4105   23.9812 H   0  0  0  0  0  0
  -27.2617  -33.3685   26.1961 H   0  0  0  0  0  0
  -28.3920  -32.6842   25.0373 H   0  0  0  0  0  0
  -28.0649  -31.8549   26.5513 H   0  0  0  0  0  0
  -28.2569  -38.0078   24.7515 H   0  0  0  0  0  0
  -28.1086  -36.2604   24.6291 H   0  0  0  0  0  0
  -27.2287  -37.1403   25.8868 H   0  0  0  0  0  0
  -20.9569  -29.8731   21.6681 H   0  0  0  0  0  0
  -26.0131  -38.2770   24.1418 H   0  0  0  0  0  0
  -27.2045  -20.6227   20.9893 H   0  0  0  0  0  0
  -31.4940  -18.6030   19.7629 H   0  0  0  0  0  0
  -27.0667  -24.0697   20.6203 H   0  0  0  0  0  0
  -27.7284  -24.1457   19.0300 H   0  0  0  0  0  0
  -30.7894  -22.7651   21.2693 H   0  0  0  0  0  0
  -28.6511  -16.0554   20.7394 H   0  0  0  0  0  0
  1 25  1  0  0  0
  1 30  2  0  0  0
  1 80  1  0  0  0
  2  3  1  0  0  0
  2 25  1  0  0  0
  2 83  1  0  0  0
  2 84  1  0  0  0
  3  4  1  0  0  0
  3 85  1  0  0  0
  3 86  1  0  0  0
  4  5  1  0  0  0
  4 87  1  0  0  0
  4 88  1  0  0  0
  5  6  1  0  0  0
  5 26  1  0  0  0
  5 89  1  0  0  0
  6 25  1  0  0  0
  6 90  1  0  0  0
  6 91  1  0  0  0
  7  8  2  0  0  0
  7 26  1  0  0  0
  7 29  1  0  0  0
  8  9  1  0  0  0
  8 22  1  0  0  0
  9 10  1  0  0  0
  9 27  2  0  0  0
 10 11  2  0  0  0
 10 15  1  0  0  0
 11 12  1  0  0  0
 11 92  1  0  0  0
 12 13  2  0  0  0
 12 93  1  0  0  0
 13 14  1  0  0  0
 13 31  1  0  0  0
 14 15  2  0  0  0
 14 94  1  0  0  0
 15 95  1  0  0  0
 16 17  2  0  0  0
 16 21  1  0  0  0
 16 31  1  0  0  0
 17 18  1  0  0  0
 17 96  1  0  0  0
 18 19  2  0  0  0
 18 97  1  0  0  0
 19 20  1  0  0  0
 19 24  1  0  0  0
 20 21  2  0  0  0
 20 98  1  0  0  0
 21 23  1  0  0  0
 22 28  1  0  0  0
 22 32  2  0  0  0
 26 27  1  0  0  0
 28 99  1  0  0  0
 28100  1  0  0  0
 29101  1  0  0  0
 29102  1  0  0  0
 33 34  1  0  0  0
 33 66  1  0  0  0
 33 70  2  0  0  0
 34 36  1  0  0  0
 34 59  1  0  0  0
 34103  1  0  0  0
 35 44  2  0  0  0
 35 45  1  0  0  0
 35 68  1  0  0  0
 36 56  1  0  0  0
 36104  1  0  0  0
 37 39  1  0  0  0
 37 47  1  0  0  0
 37 66  1  0  0  0
 37105  1  0  0  0
 38 43  2  0  0  0
 38 46  1  0  0  0
 38 47  1  0  0  0
 39 64  1  0  0  0
 39 67  2  0  0  0
 40 52  1  0  0  0
 40 53  2  0  0  0
 40 58  1  0  0  0
 41106  1  0  0  0
 41107  1  0  0  0
 41108  1  0  0  0
 41 48  1  0  0  0
 42 43  1  0  0  0
 42 66  1  0  0  0
 42109  1  0  0  0
 42110  1  0  0  0
 43 44  1  0  0  0
 44111  1  0  0  0
 45 46  2  0  0  0
 45112  1  0  0  0
 46113  1  0  0  0
 47114  1  0  0  0
 47115  1  0  0  0
 48 56  1  0  0  0
 48 65  1  0  0  0
 48116  1  0  0  0
 49 50  1  0  0  0
 49 53  1  0  0  0
 49 64  1  0  0  0
 49117  1  0  0  0
 50 51  1  0  0  0
 50118  1  0  0  0
 50119  1  0  0  0
 51 52  1  0  0  0
 51120  1  0  0  0
 51121  1  0  0  0
 52122  1  0  0  0
 52123  1  0  0  0
 53 54  1  0  0  0
 54 55  2  0  0  0
 54124  1  0  0  0
 55 57  1  0  0  0
 55125  1  0  0  0
 56 69  2  0  0  0
 57 58  2  0  0  0
 57126  1  0  0  0
 58127  1  0  0  0
 59 60  1  0  0  0
 59 61  1  0  0  0
 59 62  1  0  0  0
 60128  1  0  0  0
 60129  1  0  0  0
 60130  1  0  0  0
 61131  1  0  0  0
 61132  1  0  0  0
 61133  1  0  0  0
 62134  1  0  0  0
 62135  1  0  0  0
 62136  1  0  0  0
 63 65  1  0  0  0
 63137  1  0  0  0
 63138  1  0  0  0
 63139  1  0  0  0
 64140  1  0  0  0
 65141  1  0  0  0
 68 78  1  0  0  0
 71 73  2  0  0  0
 71 75  1  0  0  0
 71142  1  0  0  0
 72 74  1  0  0  0
 72 76  2  0  0  0
 72143  1  0  0  0
 73 76  1  0  0  0
 73 77  1  0  0  0
 74 75  2  0  0  0
 74 80  1  0  0  0
 75 81  1  0  0  0
 76 82  1  0  0  0
 77 78  1  0  0  0
 77 79  2  0  0  0
 78144  1  0  0  0
 78145  1  0  0  0
 79146  1  0  0  0
 80147  1  0  0  0
M  ISO  4   1 100  68 101  78 101  80 100
M  END
> <chiral flag>
0

> <version>
0

> <s_m_source_file>
/data/baiqing/PycharmProjects/Reinvent-master-3.2/result/LINK_invent/BTK/process_docking_weight1_custom_sum_contain_oxygen_bond_distance_aromatic_linkinvent_7_9_3/rearranged_h_0011.sdf

> <i_m_source_file_index>
74

> <r_mmod_Potential_Energy-OPLS-2005>
1026.13586425781

> <r_mmod_Stretch_Energy-OPLS-2005>
479.679382324219

> <r_mmod_Bend_Energy-OPLS-2005>
402.32421875

> <r_mmod_Torsional_Energy-OPLS-2005>
223.329711914062

> <r_mmod_Improper_Torsional_Energy-OPLS-2005>
4.32795000076294

> <r_mmod_Van_der_Waal_Energy-OPLS-2005>
127.88215637207

> <r_mmod_Electrostatic_Energy-OPLS-2005>
-376.771484375

> <r_mmod_Solvation_Energy-OPLS-2005>
-230.882781982422

> <b_mmod_Minimization_Converged-OPLS-2005>
0

> <r_mmod_RMS_Derivative-OPLS-2005>
0.052645105868578

$$$$
74
                    3D
 Structure written by MMmdl.
159167  0  0  1  0            999 V2000
  -30.6486  -14.5389   20.5719 C   0  0  0  0  0  0
  -30.4387  -12.3458   19.4380 C   0  0  0  0  0  0
  -29.5072  -12.5259   18.2187 C   0  0  0  0  0  0
  -28.0290  -12.3654   18.6265 C   0  0  0  0  0  0
  -27.6638  -13.2033   19.8801 C   0  0  2  0  0  0
  -28.7027  -12.9888   21.0033 C   0  0  0  0  0  0
  -25.2608  -13.8143   20.5675 C   0  0  0  0  0  0
  -24.1849  -13.0433   20.9166 C   0  0  0  0  0  0
  -24.6394  -11.6894   20.8718 C   0  0  0  0  0  0
  -23.9053  -10.4287   21.0400 C   0  0  0  0  0  0
  -24.3607   -9.4204   21.9175 C   0  0  0  0  0  0
  -23.6284   -8.2242   22.0748 C   0  0  0  0  0  0
  -22.4266   -8.0283   21.3541 C   0  0  0  0  0  0
  -21.9899   -9.0253   20.4641 C   0  0  0  0  0  0
  -22.7228  -10.2131   20.3048 C   0  0  0  0  0  0
  -21.6852   -6.0731   22.5278 C   0  0  0  0  0  0
  -21.4016   -6.5634   23.8210 C   0  0  0  0  0  0
  -21.3664   -5.6788   24.9175 C   0  0  0  0  0  0
  -21.6040   -4.3049   24.7224 C   0  0  0  0  0  0
  -21.8819   -3.8143   23.4345 C   0  0  0  0  0  0
  -21.9194   -4.6960   22.3404 C   0  0  0  0  0  0
  -22.7877  -13.5242   21.1851 C   0  0  0  0  0  0
  -22.1666   -4.2151   21.0982 F   0  0  0  0  0  0
  -21.5633   -3.4534   25.7735 F   0  0  0  0  0  0
  -30.0350  -13.3238   20.4640 N   0  0  0  0  0  0
  -26.3036  -12.9298   20.3364 N   0  0  0  0  0  0
  -25.9320  -11.6460   20.5735 N   0  0  0  0  0  0
  -22.0523  -12.8230   22.0409 N   0  0  0  0  0  0
  -25.4371  -15.1856   20.4102 N   0  0  0  0  0  0
  -31.7473  -14.7763   20.0608 O   0  0  0  0  0  0
  -21.6634   -6.8880   21.4241 O   0  0  0  0  0  0
  -22.3566  -14.5560   20.6723 O   0  0  0  0  0  0
  -24.6192  -31.8642   23.2069 C   0  0  0  0  0  0
  -25.9065  -32.4804   23.8378 C   0  0  1  0  0  0
  -27.2360  -27.3980   20.1095 C   0  0  0  0  0  0
  -25.5919  -33.8604   24.2317 N   0  0  0  0  0  0
  -23.4099  -30.4858   21.5478 C   0  0  2  0  0  0
  -24.8576  -28.9431   20.1181 C   0  0  0  0  0  0
  -22.7448  -29.4649   22.4986 C   0  0  0  0  0  0
  -18.0282  -28.1365   22.8490 C   0  0  0  0  0  0
  -24.1480  -36.7284   23.2640 C   0  0  0  0  0  0
  -25.9429  -30.8190   21.3660 C   0  0  0  0  0  0
  -26.0205  -29.4522   20.7091 C   0  0  0  0  0  0
  -27.2166  -28.6917   20.6889 C   0  0  0  0  0  0
  -26.0548  -26.9063   19.5155 C   0  0  0  0  0  0
  -24.8713  -27.6730   19.5137 C   0  0  0  0  0  0
  -23.6209  -29.8152   20.1643 C   0  0  0  0  0  0
  -25.4108  -36.3096   24.0339 C   0  0  1  0  0  0
  -20.5883  -28.3661   23.1282 C   0  0  2  0  0  0
  -20.6798  -26.9438   22.5281 C   0  0  0  0  0  0
  -19.5721  -26.6420   21.5145 C   0  0  0  0  0  0
  -18.1938  -26.7908   22.1639 C   0  0  0  0  0  0
  -19.1534  -28.8831   23.2884 C   0  0  0  0  0  0
  -18.9459  -30.1434   23.8899 C   0  0  0  0  0  0
  -17.6457  -30.6570   24.0558 C   0  0  0  0  0  0
  -25.9045  -34.9465   23.5126 C   0  0  0  0  0  0
  -16.5351  -29.9072   23.6316 C   0  0  0  0  0  0
  -16.7271  -28.6489   23.0347 C   0  0  0  0  0  0
  -26.4483  -31.6602   25.0729 C   0  0  0  0  0  0
  -25.3748  -31.3709   26.1481 C   0  0  0  0  0  0
  -27.0329  -30.3040   24.6142 C   0  0  0  0  0  0
  -27.6061  -32.4339   25.7485 C   0  0  0  0  0  0
  -27.5580  -37.1798   24.8472 C   0  0  0  0  0  0
  -21.4165  -29.3068   22.3739 N   0  0  0  0  0  0
  -26.4289  -37.3792   23.9424 N   0  0  0  0  0  0
  -24.6754  -31.0714   22.0975 N   0  0  0  0  0  0
  -23.4201  -28.8178   23.3030 O   0  0  0  0  0  0
  -28.3909  -26.6335   20.0971 O   0  0  0  0  0  0
  -26.5598  -34.8918   22.4681 O   0  0  0  0  0  0
  -23.5376  -32.1408   23.7438 O   0  0  0  0  0  0
  -29.0617  -18.9778   22.1942 C   0  0  0  0  0  0
  -29.5998  -17.6707   22.2342 C   0  0  0  0  0  0
  -28.8895  -18.8292   19.7895 C   0  0  0  0  0  0
  -29.4326  -17.5115   19.8177 C   0  0  0  0  0  0
  -28.6337  -19.5526   20.9787 C   0  0  0  0  0  0
  -29.7445  -16.8893   21.0642 C   0  0  0  0  0  0
  -27.7148  -21.8361   20.8196 C   0  0  0  0  0  0
  -29.5496  -16.7653   18.4999 C   0  0  0  0  0  0
  -26.4152  -22.5935   21.0351 C   0  0  0  0  0  0
  -28.9280  -22.7068   20.4271 C   0  0  0  0  0  0
  -28.6525  -24.1216   19.7742 C   0  0  0  0  0  0
  -28.3217  -25.3238   20.7202 C   0  0  0  0  0  0
  -27.6533  -20.5671   21.0250 N   0  0  0  0  0  0
  -29.9448  -15.4710   21.2573 N   0  0  0  0  0  0
  -31.4819  -12.4677   19.1421 H   0  0  0  0  0  0
  -30.3595  -11.3341   19.8378 H   0  0  0  0  0  0
  -29.7614  -11.8061   17.4388 H   0  0  0  0  0  0
  -29.6608  -13.5139   17.7827 H   0  0  0  0  0  0
  -27.8549  -11.3066   18.8257 H   0  0  0  0  0  0
  -27.3755  -12.6296   17.7941 H   0  0  0  0  0  0
  -27.7030  -14.2504   19.5851 H   0  0  0  0  0  0
  -28.6928  -11.9501   21.3351 H   0  0  0  0  0  0
  -28.4380  -13.5718   21.8856 H   0  0  0  0  0  0
  -25.2755   -9.5687   22.4743 H   0  0  0  0  0  0
  -24.0002   -7.4628   22.7456 H   0  0  0  0  0  0
  -21.0835   -8.8763   19.8938 H   0  0  0  0  0  0
  -22.3688  -10.9666   19.6149 H   0  0  0  0  0  0
  -21.2006   -7.6143   23.9716 H   0  0  0  0  0  0
  -21.1490   -6.0517   25.9078 H   0  0  0  0  0  0
  -22.0592   -2.7607   23.2841 H   0  0  0  0  0  0
  -22.4139  -11.9879   22.4779 H   0  0  0  0  0  0
  -21.1141  -13.1247   22.2628 H   0  0  0  0  0  0
  -24.6809  -15.8490   20.5398 H   0  0  0  0  0  0
  -26.3016  -15.6226   20.1157 H   0  0  0  0  0  0
  -26.7143  -32.5490   23.1141 H   0  0  0  0  0  0
  -25.0103  -33.9760   25.0485 H   0  0  0  0  0  0
  -22.7005  -31.3030   21.4055 H   0  0  0  0  0  0
  -23.3752  -35.9607   23.3312 H   0  0  0  0  0  0
  -24.3569  -36.8886   22.2053 H   0  0  0  0  0  0
  -23.7217  -37.6483   23.6645 H   0  0  0  0  0  0
  -26.0690  -31.5888   20.6035 H   0  0  0  0  0  0
  -26.8237  -30.8623   21.9948 H   0  0  0  0  0  0
  -28.1202  -29.0859   21.1325 H   0  0  0  0  0  0
  -26.0506  -25.9301   19.0520 H   0  0  0  0  0  0
  -23.9778  -27.2759   19.0518 H   0  0  0  0  0  0
  -23.7322  -30.5881   19.4029 H   0  0  0  0  0  0
  -22.7447  -29.2360   19.8672 H   0  0  0  0  0  0
  -25.1287  -36.1957   25.0834 H   0  0  0  0  0  0
  -20.9969  -28.3152   24.1397 H   0  0  0  0  0  0
  -21.6625  -26.7574   22.0937 H   0  0  0  0  0  0
  -20.5833  -26.2224   23.3413 H   0  0  0  0  0  0
  -19.6879  -25.6353   21.1109 H   0  0  0  0  0  0
  -19.6569  -27.3271   20.6691 H   0  0  0  0  0  0
  -17.4175  -26.6610   21.4086 H   0  0  0  0  0  0
  -18.0410  -26.0048   22.9053 H   0  0  0  0  0  0
  -19.7931  -30.7244   24.2279 H   0  0  0  0  0  0
  -17.5013  -31.6251   24.5170 H   0  0  0  0  0  0
  -15.5358  -30.2984   23.7630 H   0  0  0  0  0  0
  -15.8669  -28.0816   22.7052 H   0  0  0  0  0  0
  -24.5901  -30.7092   25.7808 H   0  0  0  0  0  0
  -24.8966  -32.2863   26.4979 H   0  0  0  0  0  0
  -25.8097  -30.8831   27.0219 H   0  0  0  0  0  0
  -26.2884  -29.6791   24.1206 H   0  0  0  0  0  0
  -27.4092  -29.7302   25.4624 H   0  0  0  0  0  0
  -27.8726  -30.4344   23.9311 H   0  0  0  0  0  0
  -27.2671  -33.3626   26.2089 H   0  0  0  0  0  0
  -28.3838  -32.6934   25.0291 H   0  0  0  0  0  0
  -28.0770  -31.8463   26.5374 H   0  0  0  0  0  0
  -28.2611  -38.0083   24.7527 H   0  0  0  0  0  0
  -28.1059  -36.2622   24.6292 H   0  0  0  0  0  0
  -27.2300  -37.1446   25.8874 H   0  0  0  0  0  0
  -20.9337  -29.8844   21.7003 H   0  0  0  0  0  0
  -26.0171  -38.2868   24.1434 H   0  0  0  0  0  0
  -28.8562  -19.4814   23.1283 H   0  0  0  0  0  0
  -29.8080  -17.2324   23.2005 H   0  0  0  0  0  0
  -28.5415  -19.2351   18.8502 H   0  0  0  0  0  0
  -28.9398  -15.8632   18.5064 H   0  0  0  0  0  0
  -30.5856  -16.4868   18.3090 H   0  0  0  0  0  0
  -29.2160  -17.3774   17.6610 H   0  0  0  0  0  0
  -26.4799  -23.2036   21.9356 H   0  0  0  0  0  0
  -25.5812  -21.9033   21.1719 H   0  0  0  0  0  0
  -26.1653  -23.2259   20.1853 H   0  0  0  0  0  0
  -29.5133  -22.1231   19.7162 H   0  0  0  0  0  0
  -29.5658  -22.8274   21.3025 H   0  0  0  0  0  0
  -27.8998  -24.0423   18.9902 H   0  0  0  0  0  0
  -29.5640  -24.3986   19.2441 H   0  0  0  0  0  0
  -29.0592  -25.3376   21.5231 H   0  0  0  0  0  0
  -27.3625  -25.1781   21.2157 H   0  0  0  0  0  0
  -29.2555  -15.0510   21.8626 H   0  0  0  0  0  0
  1 25  1  0  0  0
  1 30  2  0  0  0
  1 84  1  0  0  0
  2  3  1  0  0  0
  2 25  1  0  0  0
  2 85  1  0  0  0
  2 86  1  0  0  0
  3  4  1  0  0  0
  3 87  1  0  0  0
  3 88  1  0  0  0
  4  5  1  0  0  0
  4 89  1  0  0  0
  4 90  1  0  0  0
  5  6  1  0  0  0
  5 26  1  0  0  0
  5 91  1  0  0  0
  6 25  1  0  0  0
  6 92  1  0  0  0
  6 93  1  0  0  0
  7  8  2  0  0  0
  7 26  1  0  0  0
  7 29  1  0  0  0
  8  9  1  0  0  0
  8 22  1  0  0  0
  9 10  1  0  0  0
  9 27  2  0  0  0
 10 11  2  0  0  0
 10 15  1  0  0  0
 11 12  1  0  0  0
 11 94  1  0  0  0
 12 13  2  0  0  0
 12 95  1  0  0  0
 13 14  1  0  0  0
 13 31  1  0  0  0
 14 15  2  0  0  0
 14 96  1  0  0  0
 15 97  1  0  0  0
 16 17  2  0  0  0
 16 21  1  0  0  0
 16 31  1  0  0  0
 17 18  1  0  0  0
 17 98  1  0  0  0
 18 19  2  0  0  0
 18 99  1  0  0  0
 19 20  1  0  0  0
 19 24  1  0  0  0
 20 21  2  0  0  0
 20100  1  0  0  0
 21 23  1  0  0  0
 22 28  1  0  0  0
 22 32  2  0  0  0
 26 27  1  0  0  0
 28101  1  0  0  0
 28102  1  0  0  0
 29103  1  0  0  0
 29104  1  0  0  0
 33 34  1  0  0  0
 33 66  1  0  0  0
 33 70  2  0  0  0
 34 36  1  0  0  0
 34 59  1  0  0  0
 34105  1  0  0  0
 35 44  2  0  0  0
 35 45  1  0  0  0
 35 68  1  0  0  0
 36 56  1  0  0  0
 36106  1  0  0  0
 37 39  1  0  0  0
 37 47  1  0  0  0
 37 66  1  0  0  0
 37107  1  0  0  0
 38 43  2  0  0  0
 38 46  1  0  0  0
 38 47  1  0  0  0
 39 64  1  0  0  0
 39 67  2  0  0  0
 40 52  1  0  0  0
 40 53  2  0  0  0
 40 58  1  0  0  0
 41108  1  0  0  0
 41109  1  0  0  0
 41110  1  0  0  0
 41 48  1  0  0  0
 42 43  1  0  0  0
 42 66  1  0  0  0
 42111  1  0  0  0
 42112  1  0  0  0
 43 44  1  0  0  0
 44113  1  0  0  0
 45 46  2  0  0  0
 45114  1  0  0  0
 46115  1  0  0  0
 47116  1  0  0  0
 47117  1  0  0  0
 48 56  1  0  0  0
 48 65  1  0  0  0
 48118  1  0  0  0
 49 50  1  0  0  0
 49 53  1  0  0  0
 49 64  1  0  0  0
 49119  1  0  0  0
 50 51  1  0  0  0
 50120  1  0  0  0
 50121  1  0  0  0
 51 52  1  0  0  0
 51122  1  0  0  0
 51123  1  0  0  0
 52124  1  0  0  0
 52125  1  0  0  0
 53 54  1  0  0  0
 54 55  2  0  0  0
 54126  1  0  0  0
 55 57  1  0  0  0
 55127  1  0  0  0
 56 69  2  0  0  0
 57 58  2  0  0  0
 57128  1  0  0  0
 58129  1  0  0  0
 59 60  1  0  0  0
 59 61  1  0  0  0
 59 62  1  0  0  0
 60130  1  0  0  0
 60131  1  0  0  0
 60132  1  0  0  0
 61133  1  0  0  0
 61134  1  0  0  0
 61135  1  0  0  0
 62136  1  0  0  0
 62137  1  0  0  0
 62138  1  0  0  0
 63 65  1  0  0  0
 63139  1  0  0  0
 63140  1  0  0  0
 63141  1  0  0  0
 64142  1  0  0  0
 65143  1  0  0  0
 68 82  1  0  0  0
 71 72  2  0  0  0
 71 75  1  0  0  0
 71144  1  0  0  0
 72 76  1  0  0  0
 72145  1  0  0  0
 73 74  1  0  0  0
 73 75  2  0  0  0
 73146  1  0  0  0
 74 76  2  0  0  0
 74 78  1  0  0  0
 75 83  1  0  0  0
 76 84  1  0  0  0
 77 79  1  0  0  0
 77 80  1  0  0  0
 77 83  2  0  0  0
 78147  1  0  0  0
 78148  1  0  0  0
 78149  1  0  0  0
 79150  1  0  0  0
 79151  1  0  0  0
 79152  1  0  0  0
 80 81  1  0  0  0
 80153  1  0  0  0
 80154  1  0  0  0
 81 82  1  0  0  0
 81155  1  0  0  0
 81156  1  0  0  0
 82157  1  0  0  0
 82158  1  0  0  0
 84159  1  0  0  0
M  ISO  4   1 100  68 101  82 101  84 100
M  END
> <chiral flag>
0

> <version>
0

> <s_m_source_file>
/data/baiqing/PycharmProjects/Reinvent-master-3.2/result/LINK_invent/BTK/process_docking_weight1_custom_sum_contain_oxygen_bond_distance_aromatic_linkinvent_7_9_3/rearranged_h_0011.sdf

> <i_m_source_file_index>
75

> <r_mmod_Potential_Energy-OPLS-2005>
18.5537281036377

> <r_mmod_Stretch_Energy-OPLS-2005>
50.8511543273926

> <r_mmod_Bend_Energy-OPLS-2005>
151.579650878906

> <r_mmod_Torsional_Energy-OPLS-2005>
302.073150634766

> <r_mmod_Improper_Torsional_Energy-OPLS-2005>
9.1064453125

> <r_mmod_Van_der_Waal_Energy-OPLS-2005>
139.877243041992

> <r_mmod_Electrostatic_Energy-OPLS-2005>
-448.865692138672

> <r_mmod_Solvation_Energy-OPLS-2005>
-206.571502685547

> <b_mmod_Minimization_Converged-OPLS-2005>
0

> <r_mmod_RMS_Derivative-OPLS-2005>
1.73337841033936

$$$$
75
                    3D
 Structure written by MMmdl.
148156  0  0  1  0            999 V2000
  -30.5131  -14.9198   20.4189 C   0  0  0  0  0  0
  -30.4526  -12.5646   19.4858 C   0  0  0  0  0  0
  -29.5242  -12.5333   18.2476 C   0  0  0  0  0  0
  -28.0544  -12.3231   18.6621 C   0  0  0  0  0  0
  -27.6375  -13.2384   19.8422 C   0  0  2  0  0  0
  -28.6834  -13.2231   20.9785 C   0  0  0  0  0  0
  -25.2496  -13.8190   20.5681 C   0  0  0  0  0  0
  -24.1802  -13.0435   20.9227 C   0  0  0  0  0  0
  -24.6406  -11.6915   20.8749 C   0  0  0  0  0  0
  -23.9079  -10.4293   21.0403 C   0  0  0  0  0  0
  -24.3624   -9.4207   21.9183 C   0  0  0  0  0  0
  -23.6290   -8.2247   22.0754 C   0  0  0  0  0  0
  -22.4273   -8.0286   21.3546 C   0  0  0  0  0  0
  -21.9910   -9.0262   20.4650 C   0  0  0  0  0  0
  -22.7245  -10.2137   20.3057 C   0  0  0  0  0  0
  -21.6855   -6.0729   22.5274 C   0  0  0  0  0  0
  -21.4017   -6.5632   23.8207 C   0  0  0  0  0  0
  -21.3661   -5.6785   24.9169 C   0  0  0  0  0  0
  -21.6044   -4.3047   24.7222 C   0  0  0  0  0  0
  -21.8818   -3.8139   23.4344 C   0  0  0  0  0  0
  -21.9194   -4.6957   22.3396 C   0  0  0  0  0  0
  -22.7824  -13.5216   21.1872 C   0  0  0  0  0  0
  -22.1662   -4.2142   21.0977 F   0  0  0  0  0  0
  -21.5629   -3.4536   25.7736 F   0  0  0  0  0  0
  -29.9670  -13.6392   20.3927 N   0  0  0  0  0  0
  -26.2922  -12.9406   20.3231 N   0  0  0  0  0  0
  -25.9336  -11.6546   20.5722 N   0  0  0  0  0  0
  -22.0462  -12.8221   22.0433 N   0  0  0  0  0  0
  -25.4155  -15.1908   20.4036 N   0  0  0  0  0  0
  -31.7052  -15.0537   20.1196 O   0  0  0  0  0  0
  -21.6640   -6.8880   21.4239 O   0  0  0  0  0  0
  -22.3515  -14.5518   20.6704 O   0  0  0  0  0  0
  -24.6445  -31.8448   23.1892 C   0  0  0  0  0  0
  -25.9219  -32.4698   23.8288 C   0  0  1  0  0  0
  -27.2191  -27.1409   20.1382 C   0  0  0  0  0  0
  -25.5966  -33.8504   24.2202 N   0  0  0  0  0  0
  -23.4483  -30.4659   21.5353 C   0  0  2  0  0  0
  -24.8971  -28.8972   20.1104 C   0  0  0  0  0  0
  -22.7581  -29.4551   22.4858 C   0  0  0  0  0  0
  -18.0314  -28.1393   22.8478 C   0  0  0  0  0  0
  -24.1495  -36.7255   23.2643 C   0  0  0  0  0  0
  -26.0058  -30.7191   21.3894 C   0  0  0  0  0  0
  -26.0769  -29.3319   20.7277 C   0  0  0  0  0  0
  -27.2389  -28.4701   20.7260 C   0  0  0  0  0  0
  -26.0095  -26.8117   19.4829 C   0  0  0  0  0  0
  -24.8759  -27.6491   19.4748 C   0  0  0  0  0  0
  -23.6747  -29.7988   20.1538 C   0  0  0  0  0  0
  -25.4127  -36.3032   24.0315 C   0  0  1  0  0  0
  -20.5928  -28.3721   23.1232 C   0  0  2  0  0  0
  -20.6795  -26.9423   22.5403 C   0  0  0  0  0  0
  -19.5764  -26.6376   21.5215 C   0  0  0  0  0  0
  -18.1949  -26.7928   22.1628 C   0  0  0  0  0  0
  -19.1571  -28.8876   23.2846 C   0  0  0  0  0  0
  -18.9481  -30.1472   23.8872 C   0  0  0  0  0  0
  -17.6475  -30.6585   24.0558 C   0  0  0  0  0  0
  -25.9076  -34.9407   23.5065 C   0  0  0  0  0  0
  -16.5369  -29.9077   23.6333 C   0  0  0  0  0  0
  -16.7298  -28.6498   23.0352 C   0  0  0  0  0  0
  -26.4529  -31.6563   25.0731 C   0  0  0  0  0  0
  -25.3706  -31.3769   26.1423 C   0  0  0  0  0  0
  -27.0380  -30.2947   24.6326 C   0  0  0  0  0  0
  -27.6064  -32.4326   25.7512 C   0  0  0  0  0  0
  -27.5571  -37.1798   24.8472 C   0  0  0  0  0  0
  -21.4272  -29.3047   22.3604 N   0  0  0  0  0  0
  -26.4300  -37.3736   23.9392 N   0  0  0  0  0  0
  -24.7194  -31.0305   22.0928 N   0  0  0  0  0  0
  -23.4225  -28.8091   23.3003 O   0  0  0  0  0  0
  -28.2631  -26.1432   20.2027 O   0  0  0  0  0  0
  -26.5659  -34.8901   22.4644 O   0  0  0  0  0  0
  -23.5563  -32.1331   23.7104 O   0  0  0  0  0  0
  -30.5467  -18.5530   20.3175 C   0  0  0  0  0  0
  -30.2667  -19.9941   20.2436 C   0  0  0  0  0  0
  -28.2396  -18.1362   20.5412 C   0  0  0  0  0  0
  -29.5360  -17.5332   20.4758 C   0  0  0  0  0  0
  -28.9451  -20.5750   20.3073 C   0  0  0  0  0  0
  -27.9553  -19.5492   20.4527 C   0  0  0  0  0  0
  -28.9311  -23.3603   20.2549 C   0  0  0  0  0  0
  -27.9079  -24.6402   20.0032 C   0  0  0  0  0  0
  -28.4619  -22.0268   20.1822 N   0  0  0  0  0  0
  -29.6258  -16.0057   20.6082 N   0  0  0  0  0  0
  -30.1189  -23.5899   20.4961 O   0  0  0  0  0  0
  -26.2939  -20.0247   20.5275 Cl  0  0  0  0  0  0
  -31.4840  -12.7355   19.1739 H   0  0  0  0  0  0
  -30.4495  -11.6002   19.9963 H   0  0  0  0  0  0
  -29.8347  -11.7462   17.5589 H   0  0  0  0  0  0
  -29.6175  -13.4724   17.7003 H   0  0  0  0  0  0
  -27.9377  -11.2770   18.9477 H   0  0  0  0  0  0
  -27.3949  -12.4815   17.8081 H   0  0  0  0  0  0
  -27.6101  -14.2486   19.4331 H   0  0  0  0  0  0
  -28.7607  -12.2302   21.4242 H   0  0  0  0  0  0
  -28.3868  -13.8957   21.7843 H   0  0  0  0  0  0
  -25.2768   -9.5676   22.4761 H   0  0  0  0  0  0
  -23.9994   -7.4635   22.7479 H   0  0  0  0  0  0
  -21.0836   -8.8786   19.8962 H   0  0  0  0  0  0
  -22.3703  -10.9676   19.6171 H   0  0  0  0  0  0
  -21.2012   -7.6140   23.9706 H   0  0  0  0  0  0
  -21.1483   -6.0517   25.9070 H   0  0  0  0  0  0
  -22.0596   -2.7604   23.2846 H   0  0  0  0  0  0
  -22.4072  -11.9894   22.4840 H   0  0  0  0  0  0
  -21.1082  -13.1258   22.2625 H   0  0  0  0  0  0
  -24.6311  -15.8289   20.4834 H   0  0  0  0  0  0
  -26.2211  -15.6108   19.9609 H   0  0  0  0  0  0
  -26.7291  -32.5303   23.1022 H   0  0  0  0  0  0
  -25.0090  -33.9621   25.0334 H   0  0  0  0  0  0
  -22.7512  -31.2923   21.3822 H   0  0  0  0  0  0
  -23.3746  -35.9602   23.3329 H   0  0  0  0  0  0
  -24.3571  -36.8859   22.2051 H   0  0  0  0  0  0
  -23.7275  -37.6471   23.6661 H   0  0  0  0  0  0
  -26.1651  -31.4761   20.6202 H   0  0  0  0  0  0
  -26.8749  -30.7658   22.0340 H   0  0  0  0  0  0
  -28.1364  -28.7971   21.2320 H   0  0  0  0  0  0
  -25.8930  -25.8635   18.9823 H   0  0  0  0  0  0
  -23.9751  -27.3111   18.9805 H   0  0  0  0  0  0
  -23.8129  -30.5749   19.3999 H   0  0  0  0  0  0
  -22.7892  -29.2427   19.8417 H   0  0  0  0  0  0
  -25.1318  -36.1868   25.0809 H   0  0  0  0  0  0
  -21.0027  -28.3312   24.1348 H   0  0  0  0  0  0
  -20.5683  -26.2337   23.3624 H   0  0  0  0  0  0
  -21.6661  -26.7417   22.1203 H   0  0  0  0  0  0
  -19.6919  -25.6281   21.1257 H   0  0  0  0  0  0
  -19.6689  -27.3175   20.6735 H   0  0  0  0  0  0
  -17.4213  -26.6677   21.4037 H   0  0  0  0  0  0
  -18.0343  -26.0079   22.9032 H   0  0  0  0  0  0
  -19.7957  -30.7301   24.2227 H   0  0  0  0  0  0
  -17.5023  -31.6261   24.5165 H   0  0  0  0  0  0
  -15.5367  -30.2964   23.7660 H   0  0  0  0  0  0
  -15.8704  -28.0800   22.7073 H   0  0  0  0  0  0
  -24.5888  -30.7112   25.7747 H   0  0  0  0  0  0
  -24.8891  -32.2957   26.4781 H   0  0  0  0  0  0
  -25.7979  -30.8988   27.0244 H   0  0  0  0  0  0
  -26.2997  -29.6679   24.1310 H   0  0  0  0  0  0
  -27.3945  -29.7243   25.4912 H   0  0  0  0  0  0
  -27.8931  -30.4158   23.9673 H   0  0  0  0  0  0
  -27.2660  -33.3637   26.2050 H   0  0  0  0  0  0
  -28.3893  -32.6868   25.0355 H   0  0  0  0  0  0
  -28.0713  -31.8480   26.5459 H   0  0  0  0  0  0
  -28.2621  -38.0059   24.7453 H   0  0  0  0  0  0
  -28.1035  -36.2587   24.6385 H   0  0  0  0  0  0
  -27.2280  -37.1552   25.8876 H   0  0  0  0  0  0
  -20.9484  -29.8767   21.6784 H   0  0  0  0  0  0
  -26.0167  -38.2817   24.1343 H   0  0  0  0  0  0
  -31.5791  -18.2383   20.2537 H   0  0  0  0  0  0
  -31.1047  -20.6640   20.1160 H   0  0  0  0  0  0
  -27.3875  -17.4845   20.6636 H   0  0  0  0  0  0
  -27.0276  -24.4353   20.6135 H   0  0  0  0  0  0
  -27.5916  -24.5256   18.9666 H   0  0  0  0  0  0
  -27.4601  -22.0388   20.0368 H   0  0  0  0  0  0
  -28.7244  -15.6123   20.8296 H   0  0  0  0  0  0
  1 25  1  0  0  0
  1 30  2  0  0  0
  1 80  1  0  0  0
  2  3  1  0  0  0
  2 25  1  0  0  0
  2 83  1  0  0  0
  2 84  1  0  0  0
  3  4  1  0  0  0
  3 85  1  0  0  0
  3 86  1  0  0  0
  4  5  1  0  0  0
  4 87  1  0  0  0
  4 88  1  0  0  0
  5  6  1  0  0  0
  5 26  1  0  0  0
  5 89  1  0  0  0
  6 25  1  0  0  0
  6 90  1  0  0  0
  6 91  1  0  0  0
  7  8  2  0  0  0
  7 26  1  0  0  0
  7 29  1  0  0  0
  8  9  1  0  0  0
  8 22  1  0  0  0
  9 10  1  0  0  0
  9 27  2  0  0  0
 10 11  2  0  0  0
 10 15  1  0  0  0
 11 12  1  0  0  0
 11 92  1  0  0  0
 12 13  2  0  0  0
 12 93  1  0  0  0
 13 14  1  0  0  0
 13 31  1  0  0  0
 14 15  2  0  0  0
 14 94  1  0  0  0
 15 95  1  0  0  0
 16 17  2  0  0  0
 16 21  1  0  0  0
 16 31  1  0  0  0
 17 18  1  0  0  0
 17 96  1  0  0  0
 18 19  2  0  0  0
 18 97  1  0  0  0
 19 20  1  0  0  0
 19 24  1  0  0  0
 20 21  2  0  0  0
 20 98  1  0  0  0
 21 23  1  0  0  0
 22 28  1  0  0  0
 22 32  2  0  0  0
 26 27  1  0  0  0
 28 99  1  0  0  0
 28100  1  0  0  0
 29101  1  0  0  0
 29102  1  0  0  0
 33 34  1  0  0  0
 33 66  1  0  0  0
 33 70  2  0  0  0
 34 36  1  0  0  0
 34 59  1  0  0  0
 34103  1  0  0  0
 35 44  2  0  0  0
 35 45  1  0  0  0
 35 68  1  0  0  0
 36 56  1  0  0  0
 36104  1  0  0  0
 37 39  1  0  0  0
 37 47  1  0  0  0
 37 66  1  0  0  0
 37105  1  0  0  0
 38 43  2  0  0  0
 38 46  1  0  0  0
 38 47  1  0  0  0
 39 64  1  0  0  0
 39 67  2  0  0  0
 40 52  1  0  0  0
 40 53  2  0  0  0
 40 58  1  0  0  0
 41106  1  0  0  0
 41107  1  0  0  0
 41108  1  0  0  0
 41 48  1  0  0  0
 42 43  1  0  0  0
 42 66  1  0  0  0
 42109  1  0  0  0
 42110  1  0  0  0
 43 44  1  0  0  0
 44111  1  0  0  0
 45 46  2  0  0  0
 45112  1  0  0  0
 46113  1  0  0  0
 47114  1  0  0  0
 47115  1  0  0  0
 48 56  1  0  0  0
 48 65  1  0  0  0
 48116  1  0  0  0
 49 50  1  0  0  0
 49 53  1  0  0  0
 49 64  1  0  0  0
 49117  1  0  0  0
 50 51  1  0  0  0
 50118  1  0  0  0
 50119  1  0  0  0
 51 52  1  0  0  0
 51120  1  0  0  0
 51121  1  0  0  0
 52122  1  0  0  0
 52123  1  0  0  0
 53 54  1  0  0  0
 54 55  2  0  0  0
 54124  1  0  0  0
 55 57  1  0  0  0
 55125  1  0  0  0
 56 69  2  0  0  0
 57 58  2  0  0  0
 57126  1  0  0  0
 58127  1  0  0  0
 59 60  1  0  0  0
 59 61  1  0  0  0
 59 62  1  0  0  0
 60128  1  0  0  0
 60129  1  0  0  0
 60130  1  0  0  0
 61131  1  0  0  0
 61132  1  0  0  0
 61133  1  0  0  0
 62134  1  0  0  0
 62135  1  0  0  0
 62136  1  0  0  0
 63 65  1  0  0  0
 63137  1  0  0  0
 63138  1  0  0  0
 63139  1  0  0  0
 64140  1  0  0  0
 65141  1  0  0  0
 68 78  1  0  0  0
 71 72  2  0  0  0
 71 74  1  0  0  0
 71142  1  0  0  0
 72 75  1  0  0  0
 72143  1  0  0  0
 73 74  2  0  0  0
 73 76  1  0  0  0
 73144  1  0  0  0
 74 80  1  0  0  0
 75 76  2  0  0  0
 75 79  1  0  0  0
 76 82  1  0  0  0
 77 78  1  0  0  0
 77 79  1  0  0  0
 77 81  2  0  0  0
 78145  1  0  0  0
 78146  1  0  0  0
 79147  1  0  0  0
 80148  1  0  0  0
M  ISO  4   1 100  68 101  78 101  80 100
M  END
> <chiral flag>
0

> <version>
0

> <s_m_source_file>
/data/baiqing/PycharmProjects/Reinvent-master-3.2/result/LINK_invent/BTK/process_docking_weight1_custom_sum_contain_oxygen_bond_distance_aromatic_linkinvent_7_9_3/rearranged_h_0011.sdf

> <i_m_source_file_index>
76

> <r_mmod_Potential_Energy-OPLS-2005>
407.054107666016

> <r_mmod_Stretch_Energy-OPLS-2005>
219.328079223633

> <r_mmod_Bend_Energy-OPLS-2005>
282.177978515625

> <r_mmod_Torsional_Energy-OPLS-2005>
220.394485473633

> <r_mmod_Improper_Torsional_Energy-OPLS-2005>
5.02419376373291

> <r_mmod_Van_der_Waal_Energy-OPLS-2005>
130.257141113281

> <r_mmod_Electrostatic_Energy-OPLS-2005>
-386.735473632812

> <r_mmod_Solvation_Energy-OPLS-2005>
-246.111587524414

> <b_mmod_Minimization_Converged-OPLS-2005>
0

> <r_mmod_RMS_Derivative-OPLS-2005>
0.945383846759796

$$$$
76
                    3D
 Structure written by MMmdl.
148156  0  0  1  0            999 V2000
  -30.5204  -14.9199   20.4222 C   0  0  0  0  0  0
  -30.4515  -12.5657   19.4868 C   0  0  0  0  0  0
  -29.5236  -12.5307   18.2487 C   0  0  0  0  0  0
  -28.0538  -12.3214   18.6644 C   0  0  0  0  0  0
  -27.6358  -13.2383   19.8430 C   0  0  2  0  0  0
  -28.6827  -13.2292   20.9784 C   0  0  0  0  0  0
  -25.2489  -13.8181   20.5712 C   0  0  0  0  0  0
  -24.1800  -13.0421   20.9241 C   0  0  0  0  0  0
  -24.6404  -11.6904   20.8754 C   0  0  0  0  0  0
  -23.9080  -10.4284   21.0408 C   0  0  0  0  0  0
  -24.3626   -9.4198   21.9185 C   0  0  0  0  0  0
  -23.6297   -8.2235   22.0755 C   0  0  0  0  0  0
  -22.4278   -8.0277   21.3545 C   0  0  0  0  0  0
  -21.9916   -9.0254   20.4649 C   0  0  0  0  0  0
  -22.7250  -10.2130   20.3057 C   0  0  0  0  0  0
  -21.6851   -6.0737   22.5278 C   0  0  0  0  0  0
  -21.4014   -6.5641   23.8214 C   0  0  0  0  0  0
  -21.3660   -5.6791   24.9176 C   0  0  0  0  0  0
  -21.6043   -4.3055   24.7223 C   0  0  0  0  0  0
  -21.8820   -3.8148   23.4346 C   0  0  0  0  0  0
  -21.9193   -4.6965   22.3403 C   0  0  0  0  0  0
  -22.7820  -13.5206   21.1890 C   0  0  0  0  0  0
  -22.1662   -4.2150   21.0980 F   0  0  0  0  0  0
  -21.5629   -3.4539   25.7736 F   0  0  0  0  0  0
  -29.9649  -13.6441   20.3892 N   0  0  0  0  0  0
  -26.2915  -12.9403   20.3242 N   0  0  0  0  0  0
  -25.9332  -11.6539   20.5729 N   0  0  0  0  0  0
  -22.0461  -12.8197   22.0442 N   0  0  0  0  0  0
  -25.4114  -15.1902   20.4139 N   0  0  0  0  0  0
  -31.7178  -15.0422   20.1410 O   0  0  0  0  0  0
  -21.6639   -6.8879   21.4241 O   0  0  0  0  0  0
  -22.3500  -14.5507   20.6728 O   0  0  0  0  0  0
  -24.6431  -31.8451   23.1896 C   0  0  0  0  0  0
  -25.9206  -32.4699   23.8283 C   0  0  1  0  0  0
  -27.2188  -27.1416   20.1447 C   0  0  0  0  0  0
  -25.5957  -33.8507   24.2196 N   0  0  0  0  0  0
  -23.4468  -30.4657   21.5351 C   0  0  2  0  0  0
  -24.8974  -28.8966   20.1088 C   0  0  0  0  0  0
  -22.7569  -29.4555   22.4859 C   0  0  0  0  0  0
  -18.0306  -28.1397   22.8478 C   0  0  0  0  0  0
  -24.1494  -36.7255   23.2641 C   0  0  0  0  0  0
  -26.0038  -30.7192   21.3905 C   0  0  0  0  0  0
  -26.0752  -29.3319   20.7295 C   0  0  0  0  0  0
  -27.2360  -28.4701   20.7331 C   0  0  0  0  0  0
  -26.0152  -26.8138   19.4783 C   0  0  0  0  0  0
  -24.8803  -27.6505   19.4680 C   0  0  0  0  0  0
  -23.6736  -29.7977   20.1535 C   0  0  0  0  0  0
  -25.4126  -36.3031   24.0313 C   0  0  1  0  0  0
  -20.5922  -28.3723   23.1234 C   0  0  2  0  0  0
  -20.6790  -26.9425   22.5403 C   0  0  0  0  0  0
  -19.5764  -26.6380   21.5214 C   0  0  0  0  0  0
  -18.1946  -26.7932   22.1625 C   0  0  0  0  0  0
  -19.1563  -28.8878   23.2849 C   0  0  0  0  0  0
  -18.9477  -30.1475   23.8873 C   0  0  0  0  0  0
  -17.6473  -30.6592   24.0557 C   0  0  0  0  0  0
  -25.9079  -34.9407   23.5063 C   0  0  0  0  0  0
  -16.5366  -29.9084   23.6335 C   0  0  0  0  0  0
  -16.7290  -28.6504   23.0356 C   0  0  0  0  0  0
  -26.4524  -31.6567   25.0725 C   0  0  0  0  0  0
  -25.3704  -31.3766   26.1417 C   0  0  0  0  0  0
  -27.0384  -30.2955   24.6321 C   0  0  0  0  0  0
  -27.6058  -32.4330   25.7508 C   0  0  0  0  0  0
  -27.5578  -37.1785   24.8463 C   0  0  0  0  0  0
  -21.4261  -29.3050   22.3607 N   0  0  0  0  0  0
  -26.4288  -37.3744   23.9408 N   0  0  0  0  0  0
  -24.7176  -31.0309   22.0932 N   0  0  0  0  0  0
  -23.4213  -28.8097   23.3004 O   0  0  0  0  0  0
  -28.2607  -26.1444   20.2251 O   0  0  0  0  0  0
  -26.5661  -34.8902   22.4641 O   0  0  0  0  0  0
  -23.5549  -32.1327   23.7117 O   0  0  0  0  0  0
  -30.3742  -18.5716   21.0472 C   0  0  0  0  0  0
  -28.3104  -19.5434   19.4964 C   0  0  0  0  0  0
  -29.6173  -17.5396   20.3780 C   0  0  0  0  0  0
  -29.0270  -20.5814   20.1784 C   0  0  0  0  0  0
  -30.1020  -20.0113   20.9566 C   0  0  0  0  0  0
  -28.5751  -18.1237   19.5870 C   0  0  0  0  0  0
  -28.8990  -23.3619   20.3678 C   0  0  0  0  0  0
  -27.9302  -24.6454   19.9634 C   0  0  0  0  0  0
  -28.5429  -22.0341   20.0205 N   0  0  0  0  0  0
  -29.6499  -16.0201   20.5959 N   0  0  0  0  0  0
  -29.9434  -23.5919   20.9810 O   0  0  0  0  0  0
  -30.8881  -20.8451   21.6767 F   0  0  0  0  0  0
  -27.5405  -17.0677   18.6940 Cl  0  0  0  0  0  0
  -31.4837  -12.7359   19.1751 H   0  0  0  0  0  0
  -30.4487  -11.6032   20.0010 H   0  0  0  0  0  0
  -29.8358  -11.7410   17.5638 H   0  0  0  0  0  0
  -29.6165  -13.4680   17.6977 H   0  0  0  0  0  0
  -27.9394  -11.2759   18.9532 H   0  0  0  0  0  0
  -27.3927  -12.4748   17.8108 H   0  0  0  0  0  0
  -27.6078  -14.2465   19.4316 H   0  0  0  0  0  0
  -28.7619  -12.2388   21.4292 H   0  0  0  0  0  0
  -28.3870  -13.9065   21.7810 H   0  0  0  0  0  0
  -25.2772   -9.5671   22.4762 H   0  0  0  0  0  0
  -24.0003   -7.4626   22.7474 H   0  0  0  0  0  0
  -21.0845   -8.8777   19.8956 H   0  0  0  0  0  0
  -22.3711  -10.9672   19.6169 H   0  0  0  0  0  0
  -21.2004   -7.6149   23.9716 H   0  0  0  0  0  0
  -21.1483   -6.0523   25.9077 H   0  0  0  0  0  0
  -22.0598   -2.7610   23.2844 H   0  0  0  0  0  0
  -22.4081  -11.9869   22.4846 H   0  0  0  0  0  0
  -21.1075  -13.1219   22.2640 H   0  0  0  0  0  0
  -24.6243  -15.8231   20.5020 H   0  0  0  0  0  0
  -26.2129  -15.6260   19.9748 H   0  0  0  0  0  0
  -26.7274  -32.5306   23.1016 H   0  0  0  0  0  0
  -25.0077  -33.9628   25.0323 H   0  0  0  0  0  0
  -22.7488  -31.2912   21.3819 H   0  0  0  0  0  0
  -23.3761  -35.9584   23.3290 H   0  0  0  0  0  0
  -24.3577  -36.8901   22.2059 H   0  0  0  0  0  0
  -23.7248  -37.6446   23.6686 H   0  0  0  0  0  0
  -26.1626  -31.4762   20.6213 H   0  0  0  0  0  0
  -26.8728  -30.7664   22.0353 H   0  0  0  0  0  0
  -28.1301  -28.7959   21.2461 H   0  0  0  0  0  0
  -25.9071  -25.8657   18.9743 H   0  0  0  0  0  0
  -23.9823  -27.3132   18.9686 H   0  0  0  0  0  0
  -23.8092  -30.5740   19.3993 H   0  0  0  0  0  0
  -22.7886  -29.2398   19.8415 H   0  0  0  0  0  0
  -25.1319  -36.1857   25.0804 H   0  0  0  0  0  0
  -21.0013  -28.3311   24.1358 H   0  0  0  0  0  0
  -20.5687  -26.2336   23.3625 H   0  0  0  0  0  0
  -21.6655  -26.7433   22.1201 H   0  0  0  0  0  0
  -19.6925  -25.6285   21.1262 H   0  0  0  0  0  0
  -19.6700  -27.3175   20.6734 H   0  0  0  0  0  0
  -17.4215  -26.6675   21.4031 H   0  0  0  0  0  0
  -18.0348  -26.0084   22.9030 H   0  0  0  0  0  0
  -19.7953  -30.7299   24.2228 H   0  0  0  0  0  0
  -17.5025  -31.6270   24.5164 H   0  0  0  0  0  0
  -15.5363  -30.2977   23.7674 H   0  0  0  0  0  0
  -15.8690  -28.0812   22.7084 H   0  0  0  0  0  0
  -24.5887  -30.7113   25.7735 H   0  0  0  0  0  0
  -24.8892  -32.2953   26.4780 H   0  0  0  0  0  0
  -25.7980  -30.8975   27.0235 H   0  0  0  0  0  0
  -26.3006  -29.6679   24.1309 H   0  0  0  0  0  0
  -27.3962  -29.7257   25.4909 H   0  0  0  0  0  0
  -27.8933  -30.4175   23.9664 H   0  0  0  0  0  0
  -27.2650  -33.3641   26.2047 H   0  0  0  0  0  0
  -28.3887  -32.6875   25.0351 H   0  0  0  0  0  0
  -28.0707  -31.8482   26.5456 H   0  0  0  0  0  0
  -28.2587  -38.0087   24.7508 H   0  0  0  0  0  0
  -28.1081  -36.2619   24.6293 H   0  0  0  0  0  0
  -27.2295  -37.1432   25.8864 H   0  0  0  0  0  0
  -20.9470  -29.8755   21.6782 H   0  0  0  0  0  0
  -26.0154  -38.2813   24.1406 H   0  0  0  0  0  0
  -31.1722  -18.2607   21.7043 H   0  0  0  0  0  0
  -27.4796  -19.8367   18.8716 H   0  0  0  0  0  0
  -26.9800  -24.4371   20.4570 H   0  0  0  0  0  0
  -27.7409  -24.5441   18.8946 H   0  0  0  0  0  0
  -27.6810  -22.0689   19.4953 H   0  0  0  0  0  0
  -28.7152  -15.6589   20.7092 H   0  0  0  0  0  0
  1 25  1  0  0  0
  1 30  2  0  0  0
  1 80  1  0  0  0
  2  3  1  0  0  0
  2 25  1  0  0  0
  2 84  1  0  0  0
  2 85  1  0  0  0
  3  4  1  0  0  0
  3 86  1  0  0  0
  3 87  1  0  0  0
  4  5  1  0  0  0
  4 88  1  0  0  0
  4 89  1  0  0  0
  5  6  1  0  0  0
  5 26  1  0  0  0
  5 90  1  0  0  0
  6 25  1  0  0  0
  6 91  1  0  0  0
  6 92  1  0  0  0
  7  8  2  0  0  0
  7 26  1  0  0  0
  7 29  1  0  0  0
  8  9  1  0  0  0
  8 22  1  0  0  0
  9 10  1  0  0  0
  9 27  2  0  0  0
 10 11  2  0  0  0
 10 15  1  0  0  0
 11 12  1  0  0  0
 11 93  1  0  0  0
 12 13  2  0  0  0
 12 94  1  0  0  0
 13 14  1  0  0  0
 13 31  1  0  0  0
 14 15  2  0  0  0
 14 95  1  0  0  0
 15 96  1  0  0  0
 16 17  2  0  0  0
 16 21  1  0  0  0
 16 31  1  0  0  0
 17 18  1  0  0  0
 17 97  1  0  0  0
 18 19  2  0  0  0
 18 98  1  0  0  0
 19 20  1  0  0  0
 19 24  1  0  0  0
 20 21  2  0  0  0
 20 99  1  0  0  0
 21 23  1  0  0  0
 22 28  1  0  0  0
 22 32  2  0  0  0
 26 27  1  0  0  0
 28100  1  0  0  0
 28101  1  0  0  0
 29102  1  0  0  0
 29103  1  0  0  0
 33 34  1  0  0  0
 33 66  1  0  0  0
 33 70  2  0  0  0
 34 36  1  0  0  0
 34 59  1  0  0  0
 34104  1  0  0  0
 35 44  2  0  0  0
 35 45  1  0  0  0
 35 68  1  0  0  0
 36 56  1  0  0  0
 36105  1  0  0  0
 37 39  1  0  0  0
 37 47  1  0  0  0
 37 66  1  0  0  0
 37106  1  0  0  0
 38 43  2  0  0  0
 38 46  1  0  0  0
 38 47  1  0  0  0
 39 64  1  0  0  0
 39 67  2  0  0  0
 40 52  1  0  0  0
 40 53  2  0  0  0
 40 58  1  0  0  0
 41107  1  0  0  0
 41108  1  0  0  0
 41109  1  0  0  0
 41 48  1  0  0  0
 42 43  1  0  0  0
 42 66  1  0  0  0
 42110  1  0  0  0
 42111  1  0  0  0
 43 44  1  0  0  0
 44112  1  0  0  0
 45 46  2  0  0  0
 45113  1  0  0  0
 46114  1  0  0  0
 47115  1  0  0  0
 47116  1  0  0  0
 48 56  1  0  0  0
 48 65  1  0  0  0
 48117  1  0  0  0
 49 50  1  0  0  0
 49 53  1  0  0  0
 49 64  1  0  0  0
 49118  1  0  0  0
 50 51  1  0  0  0
 50119  1  0  0  0
 50120  1  0  0  0
 51 52  1  0  0  0
 51121  1  0  0  0
 51122  1  0  0  0
 52123  1  0  0  0
 52124  1  0  0  0
 53 54  1  0  0  0
 54 55  2  0  0  0
 54125  1  0  0  0
 55 57  1  0  0  0
 55126  1  0  0  0
 56 69  2  0  0  0
 57 58  2  0  0  0
 57127  1  0  0  0
 58128  1  0  0  0
 59 60  1  0  0  0
 59 61  1  0  0  0
 59 62  1  0  0  0
 60129  1  0  0  0
 60130  1  0  0  0
 60131  1  0  0  0
 61132  1  0  0  0
 61133  1  0  0  0
 61134  1  0  0  0
 62135  1  0  0  0
 62136  1  0  0  0
 62137  1  0  0  0
 63 65  1  0  0  0
 63138  1  0  0  0
 63139  1  0  0  0
 63140  1  0  0  0
 64141  1  0  0  0
 65142  1  0  0  0
 68 78  1  0  0  0
 71 73  2  0  0  0
 71 75  1  0  0  0
 71143  1  0  0  0
 72 74  1  0  0  0
 72 76  2  0  0  0
 72144  1  0  0  0
 73 76  1  0  0  0
 73 80  1  0  0  0
 74 75  2  0  0  0
 74 79  1  0  0  0
 75 82  1  0  0  0
 76 83  1  0  0  0
 77 78  1  0  0  0
 77 79  1  0  0  0
 77 81  2  0  0  0
 78145  1  0  0  0
 78146  1  0  0  0
 79147  1  0  0  0
 80148  1  0  0  0
M  ISO  4   1 100  68 101  78 101  80 100
M  END
> <chiral flag>
0

> <version>
0

> <s_m_source_file>
/data/baiqing/PycharmProjects/Reinvent-master-3.2/result/LINK_invent/BTK/process_docking_weight1_custom_sum_contain_oxygen_bond_distance_aromatic_linkinvent_7_9_3/rearranged_h_0011.sdf

> <i_m_source_file_index>
77

> <r_mmod_Potential_Energy-OPLS-2005>
384.859466552734

> <r_mmod_Stretch_Energy-OPLS-2005>
220.520233154297

> <r_mmod_Bend_Energy-OPLS-2005>
267.625915527344

> <r_mmod_Torsional_Energy-OPLS-2005>
240.501495361328

> <r_mmod_Improper_Torsional_Energy-OPLS-2005>
6.81895685195923

> <r_mmod_Van_der_Waal_Energy-OPLS-2005>
126.908294677734

> <r_mmod_Electrostatic_Energy-OPLS-2005>
-404.080993652344

> <r_mmod_Solvation_Energy-OPLS-2005>
-256.457611083984

> <b_mmod_Minimization_Converged-OPLS-2005>
0

> <r_mmod_RMS_Derivative-OPLS-2005>
0.821168065071106

$$$$
77
                    3D
 Structure written by MMmdl.
158166  0  0  1  0            999 V2000
  -30.6158  -14.6300   20.5094 C   0  0  0  0  0  0
  -30.4405  -12.3891   19.4460 C   0  0  0  0  0  0
  -29.5074  -12.5155   18.2200 C   0  0  0  0  0  0
  -28.0291  -12.3524   18.6306 C   0  0  0  0  0  0
  -27.6547  -13.2137   19.8658 C   0  0  2  0  0  0
  -28.6996  -13.0524   20.9927 C   0  0  0  0  0  0
  -25.2554  -13.8158   20.5650 C   0  0  0  0  0  0
  -24.1834  -13.0434   20.9191 C   0  0  0  0  0  0
  -24.6403  -11.6900   20.8746 C   0  0  0  0  0  0
  -23.9077  -10.4290   21.0414 C   0  0  0  0  0  0
  -24.3623   -9.4203   21.9191 C   0  0  0  0  0  0
  -23.6293   -8.2245   22.0762 C   0  0  0  0  0  0
  -22.4273   -8.0286   21.3549 C   0  0  0  0  0  0
  -21.9914   -9.0267   20.4653 C   0  0  0  0  0  0
  -22.7250  -10.2141   20.3064 C   0  0  0  0  0  0
  -21.6853   -6.0741   22.5281 C   0  0  0  0  0  0
  -21.4017   -6.5644   23.8217 C   0  0  0  0  0  0
  -21.3656   -5.6795   24.9176 C   0  0  0  0  0  0
  -21.6041   -4.3057   24.7223 C   0  0  0  0  0  0
  -21.8822   -3.8152   23.4342 C   0  0  0  0  0  0
  -21.9192   -4.6970   22.3400 C   0  0  0  0  0  0
  -22.7852  -13.5230   21.1855 C   0  0  0  0  0  0
  -22.1657   -4.2154   21.0978 F   0  0  0  0  0  0
  -21.5628   -3.4540   25.7736 F   0  0  0  0  0  0
  -30.0162  -13.4003   20.4334 N   0  0  0  0  0  0
  -26.2991  -12.9341   20.3317 N   0  0  0  0  0  0
  -25.9327  -11.6498   20.5752 N   0  0  0  0  0  0
  -22.0483  -12.8235   22.0404 N   0  0  0  0  0  0
  -25.4265  -15.1878   20.3987 N   0  0  0  0  0  0
  -31.7772  -14.8042   20.1264 O   0  0  0  0  0  0
  -21.6638   -6.8882   21.4241 O   0  0  0  0  0  0
  -22.3543  -14.5541   20.6701 O   0  0  0  0  0  0
  -24.6250  -31.8607   23.2057 C   0  0  0  0  0  0
  -25.9110  -32.4777   23.8371 C   0  0  1  0  0  0
  -27.2176  -27.3260   20.1117 C   0  0  0  0  0  0
  -25.5932  -33.8575   24.2295 N   0  0  0  0  0  0
  -23.4173  -30.4863   21.5476 C   0  0  2  0  0  0
  -24.8625  -28.9479   20.1079 C   0  0  0  0  0  0
  -22.7469  -29.4620   22.4931 C   0  0  0  0  0  0
  -18.0280  -28.1385   22.8450 C   0  0  0  0  0  0
  -24.1493  -36.7296   23.2635 C   0  0  0  0  0  0
  -25.9597  -30.7928   21.3783 C   0  0  0  0  0  0
  -26.0320  -29.4239   20.7136 C   0  0  0  0  0  0
  -27.2131  -28.6237   20.7069 C   0  0  0  0  0  0
  -26.0243  -26.9048   19.4783 C   0  0  0  0  0  0
  -24.8602  -27.6920   19.4840 C   0  0  0  0  0  0
  -23.6295  -29.8266   20.1594 C   0  0  0  0  0  0
  -25.4116  -36.3079   24.0328 C   0  0  1  0  0  0
  -20.5875  -28.3675   23.1272 C   0  0  2  0  0  0
  -20.6779  -26.9398   22.5404 C   0  0  0  0  0  0
  -19.5768  -26.6380   21.5186 C   0  0  0  0  0  0
  -18.1935  -26.7926   22.1591 C   0  0  0  0  0  0
  -19.1531  -28.8850   23.2845 C   0  0  0  0  0  0
  -18.9464  -30.1449   23.8860 C   0  0  0  0  0  0
  -17.6471  -30.6582   24.0549 C   0  0  0  0  0  0
  -25.9051  -34.9443   23.5112 C   0  0  0  0  0  0
  -16.5355  -29.9085   23.6325 C   0  0  0  0  0  0
  -16.7269  -28.6508   23.0327 C   0  0  0  0  0  0
  -26.4479  -31.6606   25.0755 C   0  0  0  0  0  0
  -25.3698  -31.3767   26.1481 C   0  0  0  0  0  0
  -27.0333  -30.3027   24.6241 C   0  0  0  0  0  0
  -27.6039  -32.4352   25.7515 C   0  0  0  0  0  0
  -27.5585  -37.1800   24.8454 C   0  0  0  0  0  0
  -21.4189  -29.3029   22.3675 N   0  0  0  0  0  0
  -26.4292  -37.3778   23.9405 N   0  0  0  0  0  0
  -24.6856  -31.0633   22.0997 N   0  0  0  0  0  0
  -23.4191  -28.8138   23.2987 O   0  0  0  0  0  0
  -28.3309  -26.4737   20.1713 O   0  0  0  0  0  0
  -26.5612  -34.8904   22.4675 O   0  0  0  0  0  0
  -23.5420  -32.1407   23.7392 O   0  0  0  0  0  0
  -28.6823  -17.8829   20.8722 C   0  0  0  0  0  0
  -28.6811  -19.3081   20.8396 C   0  0  0  0  0  0
  -31.0651  -17.8549   20.5696 C   0  0  0  0  0  0
  -31.0727  -19.2844   20.5411 C   0  0  0  0  0  0
  -29.8712  -17.1137   20.7550 C   0  0  0  0  0  0
  -29.8774  -20.0575   20.7069 C   0  0  0  0  0  0
  -32.4140  -19.9723   20.3432 C   0  0  0  0  0  0
  -30.5291  -21.8529   22.1382 C   0  0  0  0  0  0
  -29.1970  -23.9912   20.4839 C   0  0  0  0  0  0
  -28.8508  -22.4296   20.3939 C   0  0  0  0  0  0
  -28.0932  -25.0220   20.0090 C   0  0  0  0  0  0
  -29.7834  -15.6584   20.8637 N   0  0  0  0  0  0
  -29.9225  -21.4907   20.8564 N   0  0  0  0  0  0
  -31.4807  -12.5207   19.1442 H   0  0  0  0  0  0
  -30.3771  -11.3879   19.8757 H   0  0  0  0  0  0
  -29.7698  -11.7717   17.4657 H   0  0  0  0  0  0
  -29.6500  -13.4894   17.7486 H   0  0  0  0  0  0
  -27.8625  -11.2975   18.8498 H   0  0  0  0  0  0
  -27.3760  -12.5943   17.7908 H   0  0  0  0  0  0
  -27.6764  -14.2520   19.5342 H   0  0  0  0  0  0
  -28.7084  -12.0243   21.3583 H   0  0  0  0  0  0
  -28.4453  -13.6689   21.8562 H   0  0  0  0  0  0
  -25.2768   -9.5672   22.4762 H   0  0  0  0  0  0
  -23.9999   -7.4634   22.7480 H   0  0  0  0  0  0
  -21.0849   -8.8794   19.8955 H   0  0  0  0  0  0
  -22.3720  -10.9684   19.6172 H   0  0  0  0  0  0
  -21.2016   -7.6153   23.9721 H   0  0  0  0  0  0
  -21.1470   -6.0523   25.9078 H   0  0  0  0  0  0
  -22.0601   -2.7614   23.2844 H   0  0  0  0  0  0
  -22.4090  -11.9893   22.4802 H   0  0  0  0  0  0
  -21.1099  -13.1272   22.2605 H   0  0  0  0  0  0
  -24.6481  -15.8331   20.4772 H   0  0  0  0  0  0
  -26.2538  -15.6134   20.0012 H   0  0  0  0  0  0
  -26.7179  -32.5414   23.1114 H   0  0  0  0  0  0
  -25.0067  -33.9726   25.0433 H   0  0  0  0  0  0
  -22.7083  -31.3049   21.4088 H   0  0  0  0  0  0
  -23.3748  -35.9636   23.3293 H   0  0  0  0  0  0
  -24.3580  -36.8928   22.2049 H   0  0  0  0  0  0
  -23.7264  -37.6500   23.6669 H   0  0  0  0  0  0
  -26.0998  -31.5628   20.6181 H   0  0  0  0  0  0
  -26.8376  -30.8313   22.0123 H   0  0  0  0  0  0
  -28.1101  -28.9814   21.1923 H   0  0  0  0  0  0
  -25.9556  -25.9475   18.9828 H   0  0  0  0  0  0
  -23.9646  -27.3182   19.0077 H   0  0  0  0  0  0
  -23.7453  -30.6075   19.4069 H   0  0  0  0  0  0
  -22.7506  -29.2543   19.8558 H   0  0  0  0  0  0
  -25.1297  -36.1933   25.0826 H   0  0  0  0  0  0
  -20.9935  -28.3259   24.1406 H   0  0  0  0  0  0
  -20.5686  -26.2269   23.3595 H   0  0  0  0  0  0
  -21.6649  -26.7451   22.1190 H   0  0  0  0  0  0
  -19.6935  -25.6288   21.1223 H   0  0  0  0  0  0
  -19.6736  -27.3171   20.6701 H   0  0  0  0  0  0
  -17.4209  -26.6626   21.4003 H   0  0  0  0  0  0
  -18.0363  -26.0084   22.9013 H   0  0  0  0  0  0
  -19.7946  -30.7254   24.2218 H   0  0  0  0  0  0
  -17.5036  -31.6259   24.5163 H   0  0  0  0  0  0
  -15.5356  -30.2978   23.7700 H   0  0  0  0  0  0
  -15.8653  -28.0839   22.7055 H   0  0  0  0  0  0
  -24.5850  -30.7144   25.7801 H   0  0  0  0  0  0
  -24.8903  -32.2946   26.4896 H   0  0  0  0  0  0
  -25.7997  -30.8939   27.0270 H   0  0  0  0  0  0
  -26.2931  -29.6780   24.1232 H   0  0  0  0  0  0
  -27.3969  -29.7292   25.4777 H   0  0  0  0  0  0
  -27.8830  -30.4297   23.9526 H   0  0  0  0  0  0
  -27.2644  -33.3652   26.2093 H   0  0  0  0  0  0
  -28.3841  -32.6931   25.0336 H   0  0  0  0  0  0
  -28.0724  -31.8488   26.5430 H   0  0  0  0  0  0
  -28.2577  -38.0118   24.7505 H   0  0  0  0  0  0
  -28.1113  -36.2649   24.6278 H   0  0  0  0  0  0
  -27.2299  -37.1428   25.8853 H   0  0  0  0  0  0
  -20.9371  -29.8758   21.6891 H   0  0  0  0  0  0
  -26.0174  -38.2852   24.1422 H   0  0  0  0  0  0
  -27.7357  -17.3806   21.0129 H   0  0  0  0  0  0
  -27.7412  -19.8209   20.9797 H   0  0  0  0  0  0
  -32.0033  -17.3289   20.4690 H   0  0  0  0  0  0
  -33.1243  -19.3112   19.8470 H   0  0  0  0  0  0
  -32.8394  -20.2615   21.3039 H   0  0  0  0  0  0
  -32.3118  -20.8635   19.7237 H   0  0  0  0  0  0
  -31.2579  -22.6523   21.9957 H   0  0  0  0  0  0
  -31.0436  -21.0240   22.6266 H   0  0  0  0  0  0
  -29.7708  -22.2069   22.8373 H   0  0  0  0  0  0
  -30.1118  -24.1850   19.9242 H   0  0  0  0  0  0
  -29.4302  -24.2397   21.5193 H   0  0  0  0  0  0
  -28.5981  -22.1821   19.3616 H   0  0  0  0  0  0
  -27.9475  -22.2363   20.9760 H   0  0  0  0  0  0
  -27.8945  -24.8303   18.9533 H   0  0  0  0  0  0
  -27.1829  -24.7590   20.5531 H   0  0  0  0  0  0
  -28.8735  -15.3209   21.1394 H   0  0  0  0  0  0
  1 25  1  0  0  0
  1 30  2  0  0  0
  1 82  1  0  0  0
  2  3  1  0  0  0
  2 25  1  0  0  0
  2 84  1  0  0  0
  2 85  1  0  0  0
  3  4  1  0  0  0
  3 86  1  0  0  0
  3 87  1  0  0  0
  4  5  1  0  0  0
  4 88  1  0  0  0
  4 89  1  0  0  0
  5  6  1  0  0  0
  5 26  1  0  0  0
  5 90  1  0  0  0
  6 25  1  0  0  0
  6 91  1  0  0  0
  6 92  1  0  0  0
  7  8  2  0  0  0
  7 26  1  0  0  0
  7 29  1  0  0  0
  8  9  1  0  0  0
  8 22  1  0  0  0
  9 10  1  0  0  0
  9 27  2  0  0  0
 10 11  2  0  0  0
 10 15  1  0  0  0
 11 12  1  0  0  0
 11 93  1  0  0  0
 12 13  2  0  0  0
 12 94  1  0  0  0
 13 14  1  0  0  0
 13 31  1  0  0  0
 14 15  2  0  0  0
 14 95  1  0  0  0
 15 96  1  0  0  0
 16 17  2  0  0  0
 16 21  1  0  0  0
 16 31  1  0  0  0
 17 18  1  0  0  0
 17 97  1  0  0  0
 18 19  2  0  0  0
 18 98  1  0  0  0
 19 20  1  0  0  0
 19 24  1  0  0  0
 20 21  2  0  0  0
 20 99  1  0  0  0
 21 23  1  0  0  0
 22 28  1  0  0  0
 22 32  2  0  0  0
 26 27  1  0  0  0
 28100  1  0  0  0
 28101  1  0  0  0
 29102  1  0  0  0
 29103  1  0  0  0
 33 34  1  0  0  0
 33 66  1  0  0  0
 33 70  2  0  0  0
 34 36  1  0  0  0
 34 59  1  0  0  0
 34104  1  0  0  0
 35 44  2  0  0  0
 35 45  1  0  0  0
 35 68  1  0  0  0
 36 56  1  0  0  0
 36105  1  0  0  0
 37 39  1  0  0  0
 37 47  1  0  0  0
 37 66  1  0  0  0
 37106  1  0  0  0
 38 43  2  0  0  0
 38 46  1  0  0  0
 38 47  1  0  0  0
 39 64  1  0  0  0
 39 67  2  0  0  0
 40 52  1  0  0  0
 40 53  2  0  0  0
 40 58  1  0  0  0
 41107  1  0  0  0
 41108  1  0  0  0
 41109  1  0  0  0
 41 48  1  0  0  0
 42 43  1  0  0  0
 42 66  1  0  0  0
 42110  1  0  0  0
 42111  1  0  0  0
 43 44  1  0  0  0
 44112  1  0  0  0
 45 46  2  0  0  0
 45113  1  0  0  0
 46114  1  0  0  0
 47115  1  0  0  0
 47116  1  0  0  0
 48 56  1  0  0  0
 48 65  1  0  0  0
 48117  1  0  0  0
 49 50  1  0  0  0
 49 53  1  0  0  0
 49 64  1  0  0  0
 49118  1  0  0  0
 50 51  1  0  0  0
 50119  1  0  0  0
 50120  1  0  0  0
 51 52  1  0  0  0
 51121  1  0  0  0
 51122  1  0  0  0
 52123  1  0  0  0
 52124  1  0  0  0
 53 54  1  0  0  0
 54 55  2  0  0  0
 54125  1  0  0  0
 55 57  1  0  0  0
 55126  1  0  0  0
 56 69  2  0  0  0
 57 58  2  0  0  0
 57127  1  0  0  0
 58128  1  0  0  0
 59 60  1  0  0  0
 59 61  1  0  0  0
 59 62  1  0  0  0
 60129  1  0  0  0
 60130  1  0  0  0
 60131  1  0  0  0
 61132  1  0  0  0
 61133  1  0  0  0
 61134  1  0  0  0
 62135  1  0  0  0
 62136  1  0  0  0
 62137  1  0  0  0
 63 65  1  0  0  0
 63138  1  0  0  0
 63139  1  0  0  0
 63140  1  0  0  0
 64141  1  0  0  0
 65142  1  0  0  0
 68 81  1  0  0  0
 71 72  2  0  0  0
 71 75  1  0  0  0
 71143  1  0  0  0
 72 76  1  0  0  0
 72144  1  0  0  0
 73 74  1  0  0  0
 73 75  2  0  0  0
 73145  1  0  0  0
 74 76  2  0  0  0
 74 77  1  0  0  0
 75 82  1  0  0  0
 76 83  1  0  0  0
 77146  1  0  0  0
 77147  1  0  0  0
 77148  1  0  0  0
 78 83  1  0  0  0
 78149  1  0  0  0
 78150  1  0  0  0
 78151  1  0  0  0
 79 80  1  0  0  0
 79 81  1  0  0  0
 79152  1  0  0  0
 79153  1  0  0  0
 80 83  1  0  0  0
 80154  1  0  0  0
 80155  1  0  0  0
 81156  1  0  0  0
 81157  1  0  0  0
 82158  1  0  0  0
M  ISO  4   1 100  68 101  81 101  82 100
M  END
> <chiral flag>
0

> <version>
0

> <s_m_source_file>
/data/baiqing/PycharmProjects/Reinvent-master-3.2/result/LINK_invent/BTK/process_docking_weight1_custom_sum_contain_oxygen_bond_distance_aromatic_linkinvent_7_9_3/rearranged_h_0011.sdf

> <i_m_source_file_index>
78

> <r_mmod_Potential_Energy-OPLS-2005>
28.5406532287598

> <r_mmod_Stretch_Energy-OPLS-2005>
76.7796783447266

> <r_mmod_Bend_Energy-OPLS-2005>
137.429397583008

> <r_mmod_Torsional_Energy-OPLS-2005>
223.209915161133

> <r_mmod_Improper_Torsional_Energy-OPLS-2005>
8.21591472625732

> <r_mmod_Van_der_Waal_Energy-OPLS-2005>
153.076431274414

> <r_mmod_Electrostatic_Energy-OPLS-2005>
-398.662139892578

> <r_mmod_Solvation_Energy-OPLS-2005>
-218.110122680664

> <b_mmod_Minimization_Converged-OPLS-2005>
0

> <r_mmod_RMS_Derivative-OPLS-2005>
1.94501602649689

$$$$
78
                    3D
 Structure written by MMmdl.
164172  0  0  1  0            999 V2000
  -30.7007  -14.4517   20.4773 C   0  0  0  0  0  0
  -30.4174  -12.2661   19.4235 C   0  0  0  0  0  0
  -29.4922  -12.4690   18.2035 C   0  0  0  0  0  0
  -28.0094  -12.3501   18.6144 C   0  0  0  0  0  0
  -27.6573  -13.2011   19.8658 C   0  0  2  0  0  0
  -28.7059  -13.0116   20.9879 C   0  0  0  0  0  0
  -25.2606  -13.8153   20.5695 C   0  0  0  0  0  0
  -24.1836  -13.0435   20.9164 C   0  0  0  0  0  0
  -24.6371  -11.6897   20.8724 C   0  0  0  0  0  0
  -23.9026  -10.4289   21.0384 C   0  0  0  0  0  0
  -24.3584   -9.4216   21.9171 C   0  0  0  0  0  0
  -23.6270   -8.2245   22.0743 C   0  0  0  0  0  0
  -22.4257   -8.0272   21.3532 C   0  0  0  0  0  0
  -21.9878   -9.0239   20.4635 C   0  0  0  0  0  0
  -22.7191  -10.2126   20.3041 C   0  0  0  0  0  0
  -21.6865   -6.0721   22.5274 C   0  0  0  0  0  0
  -21.4026   -6.5624   23.8208 C   0  0  0  0  0  0
  -21.3658   -5.6777   24.9171 C   0  0  0  0  0  0
  -21.6043   -4.3040   24.7217 C   0  0  0  0  0  0
  -21.8821   -3.8128   23.4337 C   0  0  0  0  0  0
  -21.9199   -4.6949   22.3395 C   0  0  0  0  0  0
  -22.7863  -13.5254   21.1831 C   0  0  0  0  0  0
  -22.1671   -4.2132   21.0972 F   0  0  0  0  0  0
  -21.5619   -3.4525   25.7725 F   0  0  0  0  0  0
  -30.0360  -13.2723   20.4195 N   0  0  0  0  0  0
  -26.3017  -12.9297   20.3352 N   0  0  0  0  0  0
  -25.9294  -11.6461   20.5745 N   0  0  0  0  0  0
  -22.0482  -12.8260   22.0389 N   0  0  0  0  0  0
  -25.4361  -15.1863   20.4160 N   0  0  0  0  0  0
  -31.8947  -14.5832   20.2067 O   0  0  0  0  0  0
  -21.6640   -6.8858   21.4230 O   0  0  0  0  0  0
  -22.3543  -14.5544   20.6660 O   0  0  0  0  0  0
  -24.6119  -31.8701   23.2117 C   0  0  0  0  0  0
  -25.9036  -32.4821   23.8381 C   0  0  1  0  0  0
  -27.2332  -27.4537   20.0741 C   0  0  0  0  0  0
  -25.5906  -33.8618   24.2310 N   0  0  0  0  0  0
  -23.3958  -30.4971   21.5522 C   0  0  2  0  0  0
  -24.8391  -28.9668   20.1133 C   0  0  0  0  0  0
  -22.7376  -29.4680   22.4992 C   0  0  0  0  0  0
  -18.0267  -28.1382   22.8508 C   0  0  0  0  0  0
  -24.1484  -36.7316   23.2627 C   0  0  0  0  0  0
  -25.9234  -30.8372   21.3668 C   0  0  0  0  0  0
  -25.9973  -29.4731   20.7142 C   0  0  0  0  0  0
  -27.1910  -28.7189   20.7005 C   0  0  0  0  0  0
  -26.0550  -26.9699   19.4538 C   0  0  0  0  0  0
  -24.8615  -27.7131   19.4827 C   0  0  0  0  0  0
  -23.6010  -29.8322   20.1649 C   0  0  0  0  0  0
  -25.4108  -36.3111   24.0327 C   0  0  1  0  0  0
  -20.5856  -28.3666   23.1331 C   0  0  2  0  0  0
  -20.6759  -26.9401   22.5432 C   0  0  0  0  0  0
  -19.5730  -26.6380   21.5227 C   0  0  0  0  0  0
  -18.1908  -26.7926   22.1643 C   0  0  0  0  0  0
  -19.1515  -28.8842   23.2921 C   0  0  0  0  0  0
  -18.9450  -30.1456   23.8926 C   0  0  0  0  0  0
  -17.6453  -30.6598   24.0577 C   0  0  0  0  0  0
  -25.9041  -34.9476   23.5118 C   0  0  0  0  0  0
  -16.5345  -29.9105   23.6330 C   0  0  0  0  0  0
  -16.7260  -28.6517   23.0346 C   0  0  0  0  0  0
  -26.4478  -31.6578   25.0686 C   0  0  0  0  0  0
  -25.3738  -31.3690   26.1426 C   0  0  0  0  0  0
  -27.0302  -30.3017   24.6037 C   0  0  0  0  0  0
  -27.6050  -32.4299   25.7451 C   0  0  0  0  0  0
  -27.5574  -37.1813   24.8462 C   0  0  0  0  0  0
  -21.4113  -29.3042   22.3739 N   0  0  0  0  0  0
  -26.4287  -37.3791   23.9406 N   0  0  0  0  0  0
  -24.6611  -31.0810   22.1031 N   0  0  0  0  0  0
  -23.4151  -28.8228   23.3030 O   0  0  0  0  0  0
  -28.4275  -26.7582   20.0936 O   0  0  0  0  0  0
  -26.5604  -34.8930   22.4686 O   0  0  0  0  0  0
  -23.5327  -32.1467   23.7539 O   0  0  0  0  0  0
  -28.1781  -18.3492   22.8472 C   0  0  0  0  0  0
  -29.4221  -16.2740   22.5402 C   0  0  0  0  0  0
  -28.8549  -17.2411   23.3921 C   0  0  0  0  0  0
  -28.5999  -17.5127   20.5896 C   0  0  0  0  0  0
  -28.0389  -18.4954   21.4459 C   0  0  0  0  0  0
  -29.3072  -16.4111   21.1388 C   0  0  0  0  0  0
  -26.4720  -20.4626   21.3422 C   0  0  0  0  0  0
  -27.7760  -24.4305   20.5385 C   0  0  0  0  0  0
  -28.9873  -17.1071   24.8953 C   0  0  0  0  0  0
  -28.4488  -17.6458   19.0714 C   0  0  0  0  0  0
  -25.8241  -21.4149   20.3294 C   0  0  0  0  0  0
  -28.4857  -25.4158   19.5906 C   0  0  0  0  0  0
  -25.8030  -22.9016   20.7523 C   0  0  0  0  0  0
  -27.3868  -19.6123   20.8447 N   0  0  0  0  0  0
  -29.9065  -15.4992   20.2347 N   0  0  0  0  0  0
  -26.7785  -23.7064   20.0136 N   0  0  0  0  0  0
  -26.1122  -20.4923   22.5209 O   0  0  0  0  0  0
  -28.0986  -24.3625   21.7263 O   0  0  0  0  0  0
  -31.4651  -12.3463   19.1260 H   0  0  0  0  0  0
  -30.2940  -11.2657   19.8392 H   0  0  0  0  0  0
  -29.7215  -11.7324   17.4327 H   0  0  0  0  0  0
  -29.6759  -13.4468   17.7534 H   0  0  0  0  0  0
  -27.8097  -11.2970   18.8131 H   0  0  0  0  0  0
  -27.3636  -12.6255   17.7791 H   0  0  0  0  0  0
  -27.6851  -14.2411   19.5456 H   0  0  0  0  0  0
  -28.6693  -11.9940   21.3795 H   0  0  0  0  0  0
  -28.4966  -13.6726   21.8294 H   0  0  0  0  0  0
  -25.2724   -9.5701   22.4753 H   0  0  0  0  0  0
  -23.9978   -7.4637   22.7460 H   0  0  0  0  0  0
  -21.0813   -8.8740   19.8950 H   0  0  0  0  0  0
  -22.3634  -10.9653   19.6149 H   0  0  0  0  0  0
  -21.2037   -7.6133   23.9705 H   0  0  0  0  0  0
  -21.1481   -6.0509   25.9072 H   0  0  0  0  0  0
  -22.0606   -2.7588   23.2838 H   0  0  0  0  0  0
  -22.4104  -11.9952   22.4820 H   0  0  0  0  0  0
  -21.1097  -13.1290   22.2558 H   0  0  0  0  0  0
  -24.6817  -15.8475   20.5623 H   0  0  0  0  0  0
  -26.3166  -15.6288   20.1840 H   0  0  0  0  0  0
  -26.7099  -32.5555   23.1136 H   0  0  0  0  0  0
  -25.0053  -33.9776   25.0448 H   0  0  0  0  0  0
  -22.6833  -31.3139   21.4177 H   0  0  0  0  0  0
  -23.3741  -35.9651   23.3312 H   0  0  0  0  0  0
  -24.3557  -36.8916   22.2031 H   0  0  0  0  0  0
  -23.7254  -37.6532   23.6643 H   0  0  0  0  0  0
  -26.0322  -31.6026   20.5971 H   0  0  0  0  0  0
  -26.8133  -30.8867   21.9835 H   0  0  0  0  0  0
  -28.0850  -29.1062   21.1697 H   0  0  0  0  0  0
  -26.0265  -26.0286   18.9296 H   0  0  0  0  0  0
  -23.9742  -27.3248   19.0007 H   0  0  0  0  0  0
  -23.7125  -30.6080   19.4065 H   0  0  0  0  0  0
  -22.7237  -29.2532   19.8692 H   0  0  0  0  0  0
  -25.1291  -36.1955   25.0815 H   0  0  0  0  0  0
  -20.9965  -28.3246   24.1448 H   0  0  0  0  0  0
  -20.5670  -26.2280   23.3628 H   0  0  0  0  0  0
  -21.6635  -26.7459   22.1226 H   0  0  0  0  0  0
  -19.6889  -25.6301   21.1246 H   0  0  0  0  0  0
  -19.6655  -27.3199   20.6761 H   0  0  0  0  0  0
  -17.4185  -26.6719   21.4036 H   0  0  0  0  0  0
  -18.0275  -26.0041   22.9013 H   0  0  0  0  0  0
  -19.7924  -30.7270   24.2285 H   0  0  0  0  0  0
  -17.5009  -31.6277   24.5187 H   0  0  0  0  0  0
  -15.5346  -30.3027   23.7632 H   0  0  0  0  0  0
  -15.8648  -28.0867   22.7029 H   0  0  0  0  0  0
  -24.5904  -30.7049   25.7748 H   0  0  0  0  0  0
  -24.8945  -32.2859   26.4857 H   0  0  0  0  0  0
  -25.8068  -30.8848   27.0182 H   0  0  0  0  0  0
  -26.2834  -29.6784   24.1098 H   0  0  0  0  0  0
  -27.4092  -29.7229   25.4474 H   0  0  0  0  0  0
  -27.8660  -30.4331   23.9159 H   0  0  0  0  0  0
  -27.2649  -33.3575   26.2055 H   0  0  0  0  0  0
  -28.3832  -32.6891   25.0265 H   0  0  0  0  0  0
  -28.0741  -31.8409   26.5336 H   0  0  0  0  0  0
  -28.2614  -38.0090   24.7504 H   0  0  0  0  0  0
  -28.1056  -36.2632   24.6310 H   0  0  0  0  0  0
  -27.2290  -37.1476   25.8862 H   0  0  0  0  0  0
  -20.9274  -29.8746   21.6953 H   0  0  0  0  0  0
  -26.0183  -38.2865   24.1416 H   0  0  0  0  0  0
  -27.7821  -19.0879   23.5288 H   0  0  0  0  0  0
  -29.9621  -15.4427   22.9719 H   0  0  0  0  0  0
  -28.0064  -17.1381   25.3719 H   0  0  0  0  0  0
  -29.5905  -17.9217   25.2968 H   0  0  0  0  0  0
  -29.4649  -16.1670   25.1696 H   0  0  0  0  0  0
  -27.5174  -18.1378   18.7889 H   0  0  0  0  0  0
  -28.4263  -16.6802   18.5688 H   0  0  0  0  0  0
  -29.2800  -18.2198   18.6629 H   0  0  0  0  0  0
  -24.7938  -21.0748   20.2226 H   0  0  0  0  0  0
  -26.2677  -21.2968   19.3397 H   0  0  0  0  0  0
  -28.1077  -25.3579   18.5700 H   0  0  0  0  0  0
  -29.5337  -25.1247   19.5330 H   0  0  0  0  0  0
  -25.9166  -23.0196   21.8323 H   0  0  0  0  0  0
  -24.8182  -23.3137   20.5270 H   0  0  0  0  0  0
  -27.5554  -19.7164   19.8541 H   0  0  0  0  0  0
  -30.1447  -15.9381   19.3583 H   0  0  0  0  0  0
  -26.6104  -23.8233   19.0228 H   0  0  0  0  0  0
  1 25  1  0  0  0
  1 30  2  0  0  0
  1 85  1  0  0  0
  2  3  1  0  0  0
  2 25  1  0  0  0
  2 89  1  0  0  0
  2 90  1  0  0  0
  3  4  1  0  0  0
  3 91  1  0  0  0
  3 92  1  0  0  0
  4  5  1  0  0  0
  4 93  1  0  0  0
  4 94  1  0  0  0
  5  6  1  0  0  0
  5 26  1  0  0  0
  5 95  1  0  0  0
  6 25  1  0  0  0
  6 96  1  0  0  0
  6 97  1  0  0  0
  7  8  2  0  0  0
  7 26  1  0  0  0
  7 29  1  0  0  0
  8  9  1  0  0  0
  8 22  1  0  0  0
  9 10  1  0  0  0
  9 27  2  0  0  0
 10 11  2  0  0  0
 10 15  1  0  0  0
 11 12  1  0  0  0
 11 98  1  0  0  0
 12 13  2  0  0  0
 12 99  1  0  0  0
 13 14  1  0  0  0
 13 31  1  0  0  0
 14 15  2  0  0  0
 14100  1  0  0  0
 15101  1  0  0  0
 16 17  2  0  0  0
 16 21  1  0  0  0
 16 31  1  0  0  0
 17 18  1  0  0  0
 17102  1  0  0  0
 18 19  2  0  0  0
 18103  1  0  0  0
 19 20  1  0  0  0
 19 24  1  0  0  0
 20 21  2  0  0  0
 20104  1  0  0  0
 21 23  1  0  0  0
 22 28  1  0  0  0
 22 32  2  0  0  0
 26 27  1  0  0  0
 28105  1  0  0  0
 28106  1  0  0  0
 29107  1  0  0  0
 29108  1  0  0  0
 33 34  1  0  0  0
 33 66  1  0  0  0
 33 70  2  0  0  0
 34 36  1  0  0  0
 34 59  1  0  0  0
 34109  1  0  0  0
 35 44  2  0  0  0
 35 45  1  0  0  0
 35 68  1  0  0  0
 36 56  1  0  0  0
 36110  1  0  0  0
 37 39  1  0  0  0
 37 47  1  0  0  0
 37 66  1  0  0  0
 37111  1  0  0  0
 38 43  2  0  0  0
 38 46  1  0  0  0
 38 47  1  0  0  0
 39 64  1  0  0  0
 39 67  2  0  0  0
 40 52  1  0  0  0
 40 53  2  0  0  0
 40 58  1  0  0  0
 41112  1  0  0  0
 41113  1  0  0  0
 41114  1  0  0  0
 41 48  1  0  0  0
 42 43  1  0  0  0
 42 66  1  0  0  0
 42115  1  0  0  0
 42116  1  0  0  0
 43 44  1  0  0  0
 44117  1  0  0  0
 45 46  2  0  0  0
 45118  1  0  0  0
 46119  1  0  0  0
 47120  1  0  0  0
 47121  1  0  0  0
 48 56  1  0  0  0
 48 65  1  0  0  0
 48122  1  0  0  0
 49 50  1  0  0  0
 49 53  1  0  0  0
 49 64  1  0  0  0
 49123  1  0  0  0
 50 51  1  0  0  0
 50124  1  0  0  0
 50125  1  0  0  0
 51 52  1  0  0  0
 51126  1  0  0  0
 51127  1  0  0  0
 52128  1  0  0  0
 52129  1  0  0  0
 53 54  1  0  0  0
 54 55  2  0  0  0
 54130  1  0  0  0
 55 57  1  0  0  0
 55131  1  0  0  0
 56 69  2  0  0  0
 57 58  2  0  0  0
 57132  1  0  0  0
 58133  1  0  0  0
 59 60  1  0  0  0
 59 61  1  0  0  0
 59 62  1  0  0  0
 60134  1  0  0  0
 60135  1  0  0  0
 60136  1  0  0  0
 61137  1  0  0  0
 61138  1  0  0  0
 61139  1  0  0  0
 62140  1  0  0  0
 62141  1  0  0  0
 62142  1  0  0  0
 63 65  1  0  0  0
 63143  1  0  0  0
 63144  1  0  0  0
 63145  1  0  0  0
 64146  1  0  0  0
 65147  1  0  0  0
 68 82  1  0  0  0
 71 73  2  0  0  0
 71 75  1  0  0  0
 71148  1  0  0  0
 72 73  1  0  0  0
 72 76  2  0  0  0
 72149  1  0  0  0
 73 79  1  0  0  0
 74 75  2  0  0  0
 74 76  1  0  0  0
 74 80  1  0  0  0
 75 84  1  0  0  0
 76 85  1  0  0  0
 77 81  1  0  0  0
 77 84  1  0  0  0
 77 87  2  0  0  0
 78 82  1  0  0  0
 78 86  1  0  0  0
 78 88  2  0  0  0
 79150  1  0  0  0
 79151  1  0  0  0
 79152  1  0  0  0
 80153  1  0  0  0
 80154  1  0  0  0
 80155  1  0  0  0
 81 83  1  0  0  0
 81156  1  0  0  0
 81157  1  0  0  0
 82158  1  0  0  0
 82159  1  0  0  0
 83 86  1  0  0  0
 83160  1  0  0  0
 83161  1  0  0  0
 84162  1  0  0  0
 85163  1  0  0  0
 86164  1  0  0  0
M  ISO  4   1 100  68 101  82 101  85 100
M  END
> <chiral flag>
0

> <version>
0

> <s_m_source_file>
/data/baiqing/PycharmProjects/Reinvent-master-3.2/result/LINK_invent/BTK/process_docking_weight1_custom_sum_contain_oxygen_bond_distance_aromatic_linkinvent_7_9_3/rearranged_h_0011.sdf

> <i_m_source_file_index>
79

> <r_mmod_Potential_Energy-OPLS-2005>
-51.3905563354492

> <r_mmod_Stretch_Energy-OPLS-2005>
34.9638214111328

> <r_mmod_Bend_Energy-OPLS-2005>
119.072547912598

> <r_mmod_Torsional_Energy-OPLS-2005>
262.994201660156

> <r_mmod_Improper_Torsional_Energy-OPLS-2005>
23.4687385559082

> <r_mmod_Van_der_Waal_Energy-OPLS-2005>
159.386291503906

> <r_mmod_Electrostatic_Energy-OPLS-2005>
-400.956726074219

> <r_mmod_Solvation_Energy-OPLS-2005>
-269.090728759766

> <b_mmod_Minimization_Converged-OPLS-2005>
0

> <r_mmod_RMS_Derivative-OPLS-2005>
2.36219382286072

$$$$
79
                    3D
 Structure written by MMmdl.
151159  0  0  1  0            999 V2000
  -30.5432  -14.9777   20.3491 C   0  0  0  0  0  0
  -30.4457  -12.5928   19.4759 C   0  0  0  0  0  0
  -29.5100  -12.4285   18.2525 C   0  0  0  0  0  0
  -28.0421  -12.2686   18.6865 C   0  0  0  0  0  0
  -27.6237  -13.2391   19.8226 C   0  0  2  0  0  0
  -28.6786  -13.3154   20.9435 C   0  0  0  0  0  0
  -25.2481  -13.8214   20.5745 C   0  0  0  0  0  0
  -24.1778  -13.0450   20.9243 C   0  0  0  0  0  0
  -24.6377  -11.6930   20.8787 C   0  0  0  0  0  0
  -23.9063  -10.4299   21.0426 C   0  0  0  0  0  0
  -24.3617   -9.4208   21.9195 C   0  0  0  0  0  0
  -23.6294   -8.2241   22.0756 C   0  0  0  0  0  0
  -22.4277   -8.0281   21.3545 C   0  0  0  0  0  0
  -21.9915   -9.0257   20.4649 C   0  0  0  0  0  0
  -22.7241  -10.2139   20.3067 C   0  0  0  0  0  0
  -21.6853   -6.0736   22.5278 C   0  0  0  0  0  0
  -21.4014   -6.5640   23.8211 C   0  0  0  0  0  0
  -21.3659   -5.6793   24.9173 C   0  0  0  0  0  0
  -21.6043   -4.3056   24.7225 C   0  0  0  0  0  0
  -21.8819   -3.8147   23.4346 C   0  0  0  0  0  0
  -21.9192   -4.6963   22.3402 C   0  0  0  0  0  0
  -22.7798  -13.5226   21.1883 C   0  0  0  0  0  0
  -22.1661   -4.2149   21.0980 F   0  0  0  0  0  0
  -21.5628   -3.4540   25.7738 F   0  0  0  0  0  0
  -29.9354  -13.7209   20.3025 N   0  0  0  0  0  0
  -26.2883  -12.9422   20.3274 N   0  0  0  0  0  0
  -25.9308  -11.6567   20.5808 N   0  0  0  0  0  0
  -22.0443  -12.8212   22.0434 N   0  0  0  0  0  0
  -25.4198  -15.1939   20.4180 N   0  0  0  0  0  0
  -31.7796  -14.9896   20.3144 O   0  0  0  0  0  0
  -21.6641   -6.8878   21.4239 O   0  0  0  0  0  0
  -22.3484  -14.5526   20.6720 O   0  0  0  0  0  0
  -24.6427  -31.8444   23.1878 C   0  0  0  0  0  0
  -25.9200  -32.4698   23.8270 C   0  0  1  0  0  0
  -27.2178  -27.1417   20.1641 C   0  0  0  0  0  0
  -25.5949  -33.8503   24.2189 N   0  0  0  0  0  0
  -23.4465  -30.4623   21.5334 C   0  0  2  0  0  0
  -24.8969  -28.8847   20.1158 C   0  0  0  0  0  0
  -22.7564  -29.4548   22.4866 C   0  0  0  0  0  0
  -18.0303  -28.1395   22.8478 C   0  0  0  0  0  0
  -24.1491  -36.7257   23.2643 C   0  0  0  0  0  0
  -26.0013  -30.7211   21.3845 C   0  0  0  0  0  0
  -26.0744  -29.3304   20.7313 C   0  0  0  0  0  0
  -27.2400  -28.4767   20.7334 C   0  0  0  0  0  0
  -26.0166  -26.7904   19.5153 C   0  0  0  0  0  0
  -24.8798  -27.6276   19.4915 C   0  0  0  0  0  0
  -23.6736  -29.7877   20.1544 C   0  0  0  0  0  0
  -25.4124  -36.3033   24.0315 C   0  0  1  0  0  0
  -20.5915  -28.3720   23.1238 C   0  0  2  0  0  0
  -20.6788  -26.9425   22.5405 C   0  0  0  0  0  0
  -19.5762  -26.6382   21.5213 C   0  0  0  0  0  0
  -18.1943  -26.7934   22.1624 C   0  0  0  0  0  0
  -19.1560  -28.8876   23.2850 C   0  0  0  0  0  0
  -18.9476  -30.1472   23.8875 C   0  0  0  0  0  0
  -17.6473  -30.6592   24.0559 C   0  0  0  0  0  0
  -25.9072  -34.9409   23.5062 C   0  0  0  0  0  0
  -16.5364  -29.9084   23.6336 C   0  0  0  0  0  0
  -16.7288  -28.6503   23.0357 C   0  0  0  0  0  0
  -26.4525  -31.6564   25.0710 C   0  0  0  0  0  0
  -25.3711  -31.3749   26.1406 C   0  0  0  0  0  0
  -27.0393  -30.2963   24.6284 C   0  0  0  0  0  0
  -27.6053  -32.4332   25.7498 C   0  0  0  0  0  0
  -27.5574  -37.1787   24.8467 C   0  0  0  0  0  0
  -21.4257  -29.3047   22.3612 N   0  0  0  0  0  0
  -26.4289  -37.3745   23.9405 N   0  0  0  0  0  0
  -24.7166  -31.0305   22.0907 N   0  0  0  0  0  0
  -23.4207  -28.8100   23.3020 O   0  0  0  0  0  0
  -28.2722  -26.1633   20.1705 O   0  0  0  0  0  0
  -26.5660  -34.8906   22.4642 O   0  0  0  0  0  0
  -23.5547  -32.1315   23.7102 O   0  0  0  0  0  0
  -28.9059  -18.4798   19.2120 C   0  0  0  0  0  0
  -28.6882  -19.9060   19.3682 C   0  0  0  0  0  0
  -30.0316  -18.3594   21.2663 C   0  0  0  0  0  0
  -29.6173  -17.5982   20.1190 C   0  0  0  0  0  0
  -29.1198  -20.6584   20.5006 C   0  0  0  0  0  0
  -29.7874  -19.7921   21.4477 C   0  0  0  0  0  0
  -28.5892  -23.3289   20.0545 C   0  0  0  0  0  0
  -29.8104  -15.9013   18.3075 C   0  0  0  0  0  0
  -28.0373  -24.7364   20.7420 C   0  0  0  0  0  0
  -28.8172  -22.1367   20.7914 N   0  0  0  0  0  0
  -29.8510  -16.0982   19.7740 N   0  0  0  0  0  0
  -28.7838  -23.3306   18.8362 O   0  0  0  0  0  0
  -30.2205  -20.3574   22.6005 F   0  0  0  0  0  0
  -31.4671  -12.7730   19.1367 H   0  0  0  0  0  0
  -30.4805  -11.6747   20.0644 H   0  0  0  0  0  0
  -29.8153  -11.5564   17.6727 H   0  0  0  0  0  0
  -29.5916  -13.2658   17.5660 H   0  0  0  0  0  0
  -27.9274  -11.2397   19.0291 H   0  0  0  0  0  0
  -27.3773  -12.3757   17.8286 H   0  0  0  0  0  0
  -27.5696  -14.2251   19.3630 H   0  0  0  0  0  0
  -28.7829  -12.3604   21.4605 H   0  0  0  0  0  0
  -28.3854  -14.0526   21.6930 H   0  0  0  0  0  0
  -25.2758   -9.5684   22.4776 H   0  0  0  0  0  0
  -24.0002   -7.4631   22.7474 H   0  0  0  0  0  0
  -21.0847   -8.8778   19.8952 H   0  0  0  0  0  0
  -22.3699  -10.9682   19.6181 H   0  0  0  0  0  0
  -21.2008   -7.6148   23.9714 H   0  0  0  0  0  0
  -21.1481   -6.0524   25.9076 H   0  0  0  0  0  0
  -22.0598   -2.7609   23.2847 H   0  0  0  0  0  0
  -22.4065  -11.9878   22.4826 H   0  0  0  0  0  0
  -21.1058  -13.1230   22.2634 H   0  0  0  0  0  0
  -24.6597  -15.8537   20.5424 H   0  0  0  0  0  0
  -26.2832  -15.6342   20.1255 H   0  0  0  0  0  0
  -26.7267  -32.5311   23.1001 H   0  0  0  0  0  0
  -25.0073  -33.9617   25.0321 H   0  0  0  0  0  0
  -22.7488  -31.2877   21.3770 H   0  0  0  0  0  0
  -23.3756  -35.9586   23.3299 H   0  0  0  0  0  0
  -24.3574  -36.8896   22.2059 H   0  0  0  0  0  0
  -23.7246  -37.6451   23.6686 H   0  0  0  0  0  0
  -26.1533  -31.4735   20.6095 H   0  0  0  0  0  0
  -26.8729  -30.7750   22.0252 H   0  0  0  0  0  0
  -28.1421  -28.8169   21.2223 H   0  0  0  0  0  0
  -25.9452  -25.8252   19.0339 H   0  0  0  0  0  0
  -23.9815  -27.2812   18.9991 H   0  0  0  0  0  0
  -23.8112  -30.5599   19.3967 H   0  0  0  0  0  0
  -22.7887  -29.2289   19.8446 H   0  0  0  0  0  0
  -25.1313  -36.1862   25.0808 H   0  0  0  0  0  0
  -21.0006  -28.3310   24.1360 H   0  0  0  0  0  0
  -20.5682  -26.2334   23.3623 H   0  0  0  0  0  0
  -21.6654  -26.7432   22.1202 H   0  0  0  0  0  0
  -19.6924  -25.6287   21.1257 H   0  0  0  0  0  0
  -19.6699  -27.3180   20.6733 H   0  0  0  0  0  0
  -17.4212  -26.6677   21.4028 H   0  0  0  0  0  0
  -18.0343  -26.0080   22.9025 H   0  0  0  0  0  0
  -19.7952  -30.7294   24.2235 H   0  0  0  0  0  0
  -17.5026  -31.6270   24.5164 H   0  0  0  0  0  0
  -15.5363  -30.2979   23.7673 H   0  0  0  0  0  0
  -15.8688  -28.0814   22.7086 H   0  0  0  0  0  0
  -24.5897  -30.7090   25.7724 H   0  0  0  0  0  0
  -24.8891  -32.2929   26.4778 H   0  0  0  0  0  0
  -25.7995  -30.8958   27.0218 H   0  0  0  0  0  0
  -26.3010  -29.6683   24.1285 H   0  0  0  0  0  0
  -27.4005  -29.7264   25.4855 H   0  0  0  0  0  0
  -27.8915  -30.4204   23.9600 H   0  0  0  0  0  0
  -27.2644  -33.3651   26.2020 H   0  0  0  0  0  0
  -28.3894  -32.6862   25.0349 H   0  0  0  0  0  0
  -28.0688  -31.8494   26.5461 H   0  0  0  0  0  0
  -28.2590  -38.0084   24.7503 H   0  0  0  0  0  0
  -28.1072  -36.2612   24.6309 H   0  0  0  0  0  0
  -27.2288  -37.1452   25.8869 H   0  0  0  0  0  0
  -20.9469  -29.8755   21.6786 H   0  0  0  0  0  0
  -26.0156  -38.2814   24.1403 H   0  0  0  0  0  0
  -28.4772  -18.0639   18.3124 H   0  0  0  0  0  0
  -28.1357  -20.4213   18.5956 H   0  0  0  0  0  0
  -30.5660  -17.8448   22.0507 H   0  0  0  0  0  0
  -28.8029  -15.6551   17.9726 H   0  0  0  0  0  0
  -30.4925  -15.1363   17.9347 H   0  0  0  0  0  0
  -30.1477  -16.7831   17.7634 H   0  0  0  0  0  0
  -28.4406  -24.7558   21.7543 H   0  0  0  0  0  0
  -26.9649  -24.5967   20.8782 H   0  0  0  0  0  0
  -28.7780  -22.3173   21.7858 H   0  0  0  0  0  0
  1 25  1  0  0  0
  1 30  2  0  0  0
  1 81  1  0  0  0
  2  3  1  0  0  0
  2 25  1  0  0  0
  2 84  1  0  0  0
  2 85  1  0  0  0
  3  4  1  0  0  0
  3 86  1  0  0  0
  3 87  1  0  0  0
  4  5  1  0  0  0
  4 88  1  0  0  0
  4 89  1  0  0  0
  5  6  1  0  0  0
  5 26  1  0  0  0
  5 90  1  0  0  0
  6 25  1  0  0  0
  6 91  1  0  0  0
  6 92  1  0  0  0
  7  8  2  0  0  0
  7 26  1  0  0  0
  7 29  1  0  0  0
  8  9  1  0  0  0
  8 22  1  0  0  0
  9 10  1  0  0  0
  9 27  2  0  0  0
 10 11  2  0  0  0
 10 15  1  0  0  0
 11 12  1  0  0  0
 11 93  1  0  0  0
 12 13  2  0  0  0
 12 94  1  0  0  0
 13 14  1  0  0  0
 13 31  1  0  0  0
 14 15  2  0  0  0
 14 95  1  0  0  0
 15 96  1  0  0  0
 16 17  2  0  0  0
 16 21  1  0  0  0
 16 31  1  0  0  0
 17 18  1  0  0  0
 17 97  1  0  0  0
 18 19  2  0  0  0
 18 98  1  0  0  0
 19 20  1  0  0  0
 19 24  1  0  0  0
 20 21  2  0  0  0
 20 99  1  0  0  0
 21 23  1  0  0  0
 22 28  1  0  0  0
 22 32  2  0  0  0
 26 27  1  0  0  0
 28100  1  0  0  0
 28101  1  0  0  0
 29102  1  0  0  0
 29103  1  0  0  0
 33 34  1  0  0  0
 33 66  1  0  0  0
 33 70  2  0  0  0
 34 36  1  0  0  0
 34 59  1  0  0  0
 34104  1  0  0  0
 35 44  2  0  0  0
 35 45  1  0  0  0
 35 68  1  0  0  0
 36 56  1  0  0  0
 36105  1  0  0  0
 37 39  1  0  0  0
 37 47  1  0  0  0
 37 66  1  0  0  0
 37106  1  0  0  0
 38 43  2  0  0  0
 38 46  1  0  0  0
 38 47  1  0  0  0
 39 64  1  0  0  0
 39 67  2  0  0  0
 40 52  1  0  0  0
 40 53  2  0  0  0
 40 58  1  0  0  0
 41107  1  0  0  0
 41108  1  0  0  0
 41109  1  0  0  0
 41 48  1  0  0  0
 42 43  1  0  0  0
 42 66  1  0  0  0
 42110  1  0  0  0
 42111  1  0  0  0
 43 44  1  0  0  0
 44112  1  0  0  0
 45 46  2  0  0  0
 45113  1  0  0  0
 46114  1  0  0  0
 47115  1  0  0  0
 47116  1  0  0  0
 48 56  1  0  0  0
 48 65  1  0  0  0
 48117  1  0  0  0
 49 50  1  0  0  0
 49 53  1  0  0  0
 49 64  1  0  0  0
 49118  1  0  0  0
 50 51  1  0  0  0
 50119  1  0  0  0
 50120  1  0  0  0
 51 52  1  0  0  0
 51121  1  0  0  0
 51122  1  0  0  0
 52123  1  0  0  0
 52124  1  0  0  0
 53 54  1  0  0  0
 54 55  2  0  0  0
 54125  1  0  0  0
 55 57  1  0  0  0
 55126  1  0  0  0
 56 69  2  0  0  0
 57 58  2  0  0  0
 57127  1  0  0  0
 58128  1  0  0  0
 59 60  1  0  0  0
 59 61  1  0  0  0
 59 62  1  0  0  0
 60129  1  0  0  0
 60130  1  0  0  0
 60131  1  0  0  0
 61132  1  0  0  0
 61133  1  0  0  0
 61134  1  0  0  0
 62135  1  0  0  0
 62136  1  0  0  0
 62137  1  0  0  0
 63 65  1  0  0  0
 63138  1  0  0  0
 63139  1  0  0  0
 63140  1  0  0  0
 64141  1  0  0  0
 65142  1  0  0  0
 68 79  1  0  0  0
 71 72  2  0  0  0
 71 74  1  0  0  0
 71143  1  0  0  0
 72 75  1  0  0  0
 72144  1  0  0  0
 73 74  2  0  0  0
 73 76  1  0  0  0
 73145  1  0  0  0
 74 81  1  0  0  0
 75 76  2  0  0  0
 75 80  1  0  0  0
 76 83  1  0  0  0
 77 79  1  0  0  0
 77 80  1  0  0  0
 77 82  2  0  0  0
 78 81  1  0  0  0
 78146  1  0  0  0
 78147  1  0  0  0
 78148  1  0  0  0
 79149  1  0  0  0
 79150  1  0  0  0
 80151  1  0  0  0
M  ISO  4   1 100  68 101  79 101  81 100
M  END
> <chiral flag>
0

> <version>
0

> <s_m_source_file>
/data/baiqing/PycharmProjects/Reinvent-master-3.2/result/LINK_invent/BTK/process_docking_weight1_custom_sum_contain_oxygen_bond_distance_aromatic_linkinvent_7_9_3/rearranged_h_0011.sdf

> <i_m_source_file_index>
80

> <r_mmod_Potential_Energy-OPLS-2005>
672.080810546875

> <r_mmod_Stretch_Energy-OPLS-2005>
239.82356262207

> <r_mmod_Bend_Energy-OPLS-2005>
275.839935302734

> <r_mmod_Torsional_Energy-OPLS-2005>
329.212829589844

> <r_mmod_Improper_Torsional_Energy-OPLS-2005>
27.5813770294189

> <r_mmod_Van_der_Waal_Energy-OPLS-2005>
141.710189819336

> <r_mmod_Electrostatic_Energy-OPLS-2005>
-330.666473388672

> <r_mmod_Solvation_Energy-OPLS-2005>
-221.92951965332

> <b_mmod_Minimization_Converged-OPLS-2005>
0

> <r_mmod_RMS_Derivative-OPLS-2005>
0.0914374142885208

$$$$
80
                    3D
 Structure written by MMmdl.
168176  0  0  1  0            999 V2000
  -30.4975  -15.0364   20.3772 C   0  0  0  0  0  0
  -30.4400  -12.6423   19.5131 C   0  0  0  0  0  0
  -29.5266  -12.5288   18.2693 C   0  0  0  0  0  0
  -28.0590  -12.3194   18.6859 C   0  0  0  0  0  0
  -27.6240  -13.2604   19.8402 C   0  0  2  0  0  0
  -28.6628  -13.3137   20.9778 C   0  0  0  0  0  0
  -25.2420  -13.8250   20.5806 C   0  0  0  0  0  0
  -24.1747  -13.0453   20.9288 C   0  0  0  0  0  0
  -24.6369  -11.6951   20.8797 C   0  0  0  0  0  0
  -23.9077  -10.4305   21.0446 C   0  0  0  0  0  0
  -24.3631   -9.4217   21.9221 C   0  0  0  0  0  0
  -23.6296   -8.2257   22.0791 C   0  0  0  0  0  0
  -22.4272   -8.0314   21.3577 C   0  0  0  0  0  0
  -21.9910   -9.0289   20.4690 C   0  0  0  0  0  0
  -22.7248  -10.2159   20.3089 C   0  0  0  0  0  0
  -21.6830   -6.0764   22.5291 C   0  0  0  0  0  0
  -21.4027   -6.5667   23.8237 C   0  0  0  0  0  0
  -21.3662   -5.6813   24.9197 C   0  0  0  0  0  0
  -21.6033   -4.3071   24.7220 C   0  0  0  0  0  0
  -21.8797   -3.8163   23.4331 C   0  0  0  0  0  0
  -21.9183   -4.6995   22.3399 C   0  0  0  0  0  0
  -22.7763  -13.5238   21.1906 C   0  0  0  0  0  0
  -22.1643   -4.2183   21.0967 F   0  0  0  0  0  0
  -21.5613   -3.4556   25.7726 F   0  0  0  0  0  0
  -29.9295  -13.7552   20.3765 N   0  0  0  0  0  0
  -26.2838  -12.9501   20.3259 N   0  0  0  0  0  0
  -25.9288  -11.6609   20.5714 N   0  0  0  0  0  0
  -22.0364  -12.8277   22.0454 N   0  0  0  0  0  0
  -25.4071  -15.1992   20.4298 N   0  0  0  0  0  0
  -31.6988  -15.0865   20.0823 O   0  0  0  0  0  0
  -21.6632   -6.8904   21.4254 O   0  0  0  0  0  0
  -22.3467  -14.5525   20.6713 O   0  0  0  0  0  0
  -24.6487  -31.8385   23.1817 C   0  0  0  0  0  0
  -25.9240  -32.4666   23.8235 C   0  0  1  0  0  0
  -27.2226  -27.0857   20.1593 C   0  0  0  0  0  0
  -25.5956  -33.8466   24.2156 N   0  0  0  0  0  0
  -23.4551  -30.4553   21.5276 C   0  0  2  0  0  0
  -24.9061  -28.8655   20.1162 C   0  0  0  0  0  0
  -22.7585  -29.4521   22.4814 C   0  0  0  0  0  0
  -18.0312  -28.1400   22.8450 C   0  0  0  0  0  0
  -24.1489  -36.7247   23.2645 C   0  0  0  0  0  0
  -26.0155  -30.6989   21.3839 C   0  0  0  0  0  0
  -26.0869  -29.3023   20.7313 C   0  0  0  0  0  0
  -27.2479  -28.4306   20.7280 C   0  0  0  0  0  0
  -26.0135  -26.7606   19.5105 C   0  0  0  0  0  0
  -24.8833  -27.6095   19.4908 C   0  0  0  0  0  0
  -23.6857  -29.7768   20.1515 C   0  0  0  0  0  0
  -25.4119  -36.3018   24.0314 C   0  0  1  0  0  0
  -20.5922  -28.3732   23.1210 C   0  0  2  0  0  0
  -20.6798  -26.9428   22.5391 C   0  0  0  0  0  0
  -19.5788  -26.6371   21.5190 C   0  0  0  0  0  0
  -18.1962  -26.7932   22.1603 C   0  0  0  0  0  0
  -19.1567  -28.8881   23.2827 C   0  0  0  0  0  0
  -18.9490  -30.1456   23.8876 C   0  0  0  0  0  0
  -17.6489  -30.6587   24.0559 C   0  0  0  0  0  0
  -25.9068  -34.9397   23.5048 C   0  0  0  0  0  0
  -16.5377  -29.9080   23.6326 C   0  0  0  0  0  0
  -16.7297  -28.6501   23.0349 C   0  0  0  0  0  0
  -26.4530  -31.6550   25.0696 C   0  0  0  0  0  0
  -25.3690  -31.3744   26.1376 C   0  0  0  0  0  0
  -27.0385  -30.2939   24.6298 C   0  0  0  0  0  0
  -27.6050  -32.4307   25.7495 C   0  0  0  0  0  0
  -27.5572  -37.1779   24.8457 C   0  0  0  0  0  0
  -21.4274  -29.3049   22.3574 N   0  0  0  0  0  0
  -26.4275  -37.3738   23.9412 N   0  0  0  0  0  0
  -24.7277  -31.0183   22.0878 N   0  0  0  0  0  0
  -23.4196  -28.8080   23.3005 O   0  0  0  0  0  0
  -28.2805  -26.0871   20.1630 O   0  0  0  0  0  0
  -26.5669  -34.8918   22.4635 O   0  0  0  0  0  0
  -23.5593  -32.1277   23.7005 O   0  0  0  0  0  0
  -30.2836  -17.8760   18.7411 C   0  0  0  0  0  0
  -29.7719  -20.3119   18.6545 C   0  0  0  0  0  0
  -29.2630  -18.9983   20.6228 C   0  0  0  0  0  0
  -30.2323  -19.1126   18.0441 C   0  0  0  0  0  0
  -29.7857  -17.7051   20.0505 C   0  0  0  0  0  0
  -29.2647  -20.3572   19.9704 C   0  0  0  0  0  0
  -30.6260  -19.1237   16.5955 C   0  0  0  0  0  0
  -30.4297  -23.5359   19.9552 C   0  0  0  0  0  0
  -29.0187  -21.2378   14.0009 C   0  0  0  0  0  0
  -30.9091  -19.6655   13.5453 C   0  0  0  0  0  0
  -28.6014  -18.7549   14.0266 C   0  0  0  0  0  0
  -28.0607  -24.5468   20.4566 C   0  0  0  0  0  0
  -28.9405  -23.1696   19.9143 C   0  0  2  0  0  0
  -29.6128  -19.8655   14.3621 C   0  0  0  0  0  0
  -29.7260  -16.2390   20.5864 N   0  0  0  0  0  0
  -28.7807  -21.6908   20.4783 N   0  0  0  0  0  0
  -29.8177  -19.8588   15.8152 N   0  0  0  0  0  0
  -31.5380  -18.4030   16.1855 O   0  0  0  0  0  0
  -31.4732  -12.8084   19.1986 H   0  0  0  0  0  0
  -30.4530  -11.7056   20.0718 H   0  0  0  0  0  0
  -29.8519  -11.7032   17.6358 H   0  0  0  0  0  0
  -29.6140  -13.4296   17.6619 H   0  0  0  0  0  0
  -27.9579  -11.2787   18.9972 H   0  0  0  0  0  0
  -27.3945  -12.4402   17.8314 H   0  0  0  0  0  0
  -27.5787  -14.2571   19.3957 H   0  0  0  0  0  0
  -28.7650  -12.3355   21.4518 H   0  0  0  0  0  0
  -28.3475  -14.0097   21.7583 H   0  0  0  0  0  0
  -25.2771   -9.5686   22.4832 H   0  0  0  0  0  0
  -24.0000   -7.4623   22.7493 H   0  0  0  0  0  0
  -21.0845   -8.8813   19.8982 H   0  0  0  0  0  0
  -22.3712  -10.9720   19.6218 H   0  0  0  0  0  0
  -21.2050   -7.6181   23.9757 H   0  0  0  0  0  0
  -21.1505   -6.0544   25.9107 H   0  0  0  0  0  0
  -22.0565   -2.7618   23.2816 H   0  0  0  0  0  0
  -22.3923  -11.9971   22.4944 H   0  0  0  0  0  0
  -21.0993  -13.1357   22.2610 H   0  0  0  0  0  0
  -24.6436  -15.8480   20.5945 H   0  0  0  0  0  0
  -26.2291  -15.6466   20.0475 H   0  0  0  0  0  0
  -26.7314  -32.5261   23.0965 H   0  0  0  0  0  0
  -25.0053  -33.9546   25.0272 H   0  0  0  0  0  0
  -22.7608  -31.2822   21.3636 H   0  0  0  0  0  0
  -23.3758  -35.9567   23.3283 H   0  0  0  0  0  0
  -24.3576  -36.8911   22.2064 H   0  0  0  0  0  0
  -23.7235  -37.6433   23.6700 H   0  0  0  0  0  0
  -26.1695  -31.4484   20.6056 H   0  0  0  0  0  0
  -26.8869  -30.7571   22.0250 H   0  0  0  0  0  0
  -28.1526  -28.7684   21.2142 H   0  0  0  0  0  0
  -25.9270  -25.8047   19.0172 H   0  0  0  0  0  0
  -23.9838  -27.2672   18.9991 H   0  0  0  0  0  0
  -23.8348  -30.5472   19.3936 H   0  0  0  0  0  0
  -22.7998  -29.2218   19.8350 H   0  0  0  0  0  0
  -25.1300  -36.1844   25.0801 H   0  0  0  0  0  0
  -21.0009  -28.3349   24.1341 H   0  0  0  0  0  0
  -20.5666  -26.2346   23.3615 H   0  0  0  0  0  0
  -21.6677  -26.7412   22.1230 H   0  0  0  0  0  0
  -19.6961  -25.6267   21.1264 H   0  0  0  0  0  0
  -19.6754  -27.3144   20.6695 H   0  0  0  0  0  0
  -17.4223  -26.6651   21.4021 H   0  0  0  0  0  0
  -18.0391  -26.0075   22.9011 H   0  0  0  0  0  0
  -19.7960  -30.7267   24.2268 H   0  0  0  0  0  0
  -17.5042  -31.6277   24.5165 H   0  0  0  0  0  0
  -15.5375  -30.2998   23.7650 H   0  0  0  0  0  0
  -15.8694  -28.0811   22.7094 H   0  0  0  0  0  0
  -24.5868  -30.7102   25.7693 H   0  0  0  0  0  0
  -24.8872  -32.2919   26.4756 H   0  0  0  0  0  0
  -25.7953  -30.8940   27.0186 H   0  0  0  0  0  0
  -26.3000  -29.6648   24.1315 H   0  0  0  0  0  0
  -27.4000  -29.7264   25.4881 H   0  0  0  0  0  0
  -27.8913  -30.4176   23.9619 H   0  0  0  0  0  0
  -27.2647  -33.3622   26.2032 H   0  0  0  0  0  0
  -28.3896  -32.6838   25.0351 H   0  0  0  0  0  0
  -28.0679  -31.8446   26.5444 H   0  0  0  0  0  0
  -28.2569  -38.0098   24.7507 H   0  0  0  0  0  0
  -28.1094  -36.2618   24.6270 H   0  0  0  0  0  0
  -27.2290  -37.1421   25.8863 H   0  0  0  0  0  0
  -20.9486  -29.8753   21.6745 H   0  0  0  0  0  0
  -26.0141  -38.2806   24.1422 H   0  0  0  0  0  0
  -30.6403  -17.0065   18.2036 H   0  0  0  0  0  0
  -29.7815  -21.2222   18.0709 H   0  0  0  0  0  0
  -28.8277  -18.9460   21.6096 H   0  0  0  0  0  0
  -30.6106  -24.4922   19.4624 H   0  0  0  0  0  0
  -31.0426  -22.7954   19.4429 H   0  0  0  0  0  0
  -30.7896  -23.6191   20.9803 H   0  0  0  0  0  0
  -28.7738  -21.3010   12.9390 H   0  0  0  0  0  0
  -29.7214  -22.0424   14.2225 H   0  0  0  0  0  0
  -28.0995  -21.4411   14.5544 H   0  0  0  0  0  0
  -30.7157  -19.7641   12.4769 H   0  0  0  0  0  0
  -31.3353  -18.6733   13.6849 H   0  0  0  0  0  0
  -31.6708  -20.4005   13.8041 H   0  0  0  0  0  0
  -28.4508  -18.6485   12.9522 H   0  0  0  0  0  0
  -27.6238  -18.9530   14.4730 H   0  0  0  0  0  0
  -28.9408  -17.7891   14.4039 H   0  0  0  0  0  0
  -28.1299  -24.5113   21.5434 H   0  0  0  0  0  0
  -27.0138  -24.3271   20.2541 H   0  0  0  0  0  0
  -28.6840  -23.0906   18.8590 H   0  0  0  0  0  0
  -28.8574  -16.0313   21.0564 H   0  0  0  0  0  0
  -28.3931  -21.6699   21.4206 H   0  0  0  0  0  0
  -29.1180  -20.3676   16.3352 H   0  0  0  0  0  0
  1 25  1  0  0  0
  1 30  2  0  0  0
  1 85  1  0  0  0
  2  3  1  0  0  0
  2 25  1  0  0  0
  2 89  1  0  0  0
  2 90  1  0  0  0
  3  4  1  0  0  0
  3 91  1  0  0  0
  3 92  1  0  0  0
  4  5  1  0  0  0
  4 93  1  0  0  0
  4 94  1  0  0  0
  5  6  1  0  0  0
  5 26  1  0  0  0
  5 95  1  0  0  0
  6 25  1  0  0  0
  6 96  1  0  0  0
  6 97  1  0  0  0
  7  8  2  0  0  0
  7 26  1  0  0  0
  7 29  1  0  0  0
  8  9  1  0  0  0
  8 22  1  0  0  0
  9 10  1  0  0  0
  9 27  2  0  0  0
 10 11  2  0  0  0
 10 15  1  0  0  0
 11 12  1  0  0  0
 11 98  1  0  0  0
 12 13  2  0  0  0
 12 99  1  0  0  0
 13 14  1  0  0  0
 13 31  1  0  0  0
 14 15  2  0  0  0
 14100  1  0  0  0
 15101  1  0  0  0
 16 17  2  0  0  0
 16 21  1  0  0  0
 16 31  1  0  0  0
 17 18  1  0  0  0
 17102  1  0  0  0
 18 19  2  0  0  0
 18103  1  0  0  0
 19 20  1  0  0  0
 19 24  1  0  0  0
 20 21  2  0  0  0
 20104  1  0  0  0
 21 23  1  0  0  0
 22 28  1  0  0  0
 22 32  2  0  0  0
 26 27  1  0  0  0
 28105  1  0  0  0
 28106  1  0  0  0
 29107  1  0  0  0
 29108  1  0  0  0
 33 34  1  0  0  0
 33 66  1  0  0  0
 33 70  2  0  0  0
 34 36  1  0  0  0
 34 59  1  0  0  0
 34109  1  0  0  0
 35 44  2  0  0  0
 35 45  1  0  0  0
 35 68  1  0  0  0
 36 56  1  0  0  0
 36110  1  0  0  0
 37 39  1  0  0  0
 37 47  1  0  0  0
 37 66  1  0  0  0
 37111  1  0  0  0
 38 43  2  0  0  0
 38 46  1  0  0  0
 38 47  1  0  0  0
 39 64  1  0  0  0
 39 67  2  0  0  0
 40 52  1  0  0  0
 40 53  2  0  0  0
 40 58  1  0  0  0
 41112  1  0  0  0
 41113  1  0  0  0
 41114  1  0  0  0
 41 48  1  0  0  0
 42 43  1  0  0  0
 42 66  1  0  0  0
 42115  1  0  0  0
 42116  1  0  0  0
 43 44  1  0  0  0
 44117  1  0  0  0
 45 46  2  0  0  0
 45118  1  0  0  0
 46119  1  0  0  0
 47120  1  0  0  0
 47121  1  0  0  0
 48 56  1  0  0  0
 48 65  1  0  0  0
 48122  1  0  0  0
 49 50  1  0  0  0
 49 53  1  0  0  0
 49 64  1  0  0  0
 49123  1  0  0  0
 50 51  1  0  0  0
 50124  1  0  0  0
 50125  1  0  0  0
 51 52  1  0  0  0
 51126  1  0  0  0
 51127  1  0  0  0
 52128  1  0  0  0
 52129  1  0  0  0
 53 54  1  0  0  0
 54 55  2  0  0  0
 54130  1  0  0  0
 55 57  1  0  0  0
 55131  1  0  0  0
 56 69  2  0  0  0
 57 58  2  0  0  0
 57132  1  0  0  0
 58133  1  0  0  0
 59 60  1  0  0  0
 59 61  1  0  0  0
 59 62  1  0  0  0
 60134  1  0  0  0
 60135  1  0  0  0
 60136  1  0  0  0
 61137  1  0  0  0
 61138  1  0  0  0
 61139  1  0  0  0
 62140  1  0  0  0
 62141  1  0  0  0
 62142  1  0  0  0
 63 65  1  0  0  0
 63143  1  0  0  0
 63144  1  0  0  0
 63145  1  0  0  0
 64146  1  0  0  0
 65147  1  0  0  0
 68 82  1  0  0  0
 71 74  2  0  0  0
 71 75  1  0  0  0
 71148  1  0  0  0
 72 74  1  0  0  0
 72 76  2  0  0  0
 72149  1  0  0  0
 73 75  2  0  0  0
 73 76  1  0  0  0
 73150  1  0  0  0
 74 77  1  0  0  0
 75 85  1  0  0  0
 76 86  1  0  0  0
 77 87  1  0  0  0
 77 88  2  0  0  0
 78151  1  0  0  0
 78152  1  0  0  0
 78153  1  0  0  0
 78 83  1  0  0  0
 79154  1  0  0  0
 79155  1  0  0  0
 79156  1  0  0  0
 79 84  1  0  0  0
 80 84  1  0  0  0
 80157  1  0  0  0
 80158  1  0  0  0
 80159  1  0  0  0
 81 84  1  0  0  0
 81160  1  0  0  0
 81161  1  0  0  0
 81162  1  0  0  0
 82 83  1  0  0  0
 82163  1  0  0  0
 82164  1  0  0  0
 83 86  1  0  0  0
 83165  1  0  0  0
 84 87  1  0  0  0
 85166  1  0  0  0
 86167  1  0  0  0
 87168  1  0  0  0
M  ISO  4   1 100  68 101  82 101  85 100
M  END
> <chiral flag>
0

> <version>
0

> <s_m_source_file>
/data/baiqing/PycharmProjects/Reinvent-master-3.2/result/LINK_invent/BTK/process_docking_weight1_custom_sum_contain_oxygen_bond_distance_aromatic_linkinvent_7_9_3/rearranged_h_0011.sdf

> <i_m_source_file_index>
81

> <r_mmod_Potential_Energy-OPLS-2005>
577.119995117188

> <r_mmod_Stretch_Energy-OPLS-2005>
324.509765625

> <r_mmod_Bend_Energy-OPLS-2005>
305.694458007812

> <r_mmod_Torsional_Energy-OPLS-2005>
246.723541259766

> <r_mmod_Improper_Torsional_Energy-OPLS-2005>
5.71979188919067

> <r_mmod_Van_der_Waal_Energy-OPLS-2005>
131.225631713867

> <r_mmod_Electrostatic_Energy-OPLS-2005>
-441.622436523438

> <r_mmod_Solvation_Energy-OPLS-2005>
-241.247116088867

> <b_mmod_Minimization_Converged-OPLS-2005>
0

> <r_mmod_RMS_Derivative-OPLS-2005>
4.26244306564331

$$$$
81
                    3D
 Structure written by MMmdl.
152160  0  0  1  0            999 V2000
  -30.5403  -14.9162   20.4301 C   0  0  0  0  0  0
  -30.4466  -12.5607   19.4953 C   0  0  0  0  0  0
  -29.5172  -12.5106   18.2599 C   0  0  0  0  0  0
  -28.0578  -12.2839   18.6924 C   0  0  0  0  0  0
  -27.6374  -13.2307   19.8442 C   0  0  2  0  0  0
  -28.6786  -13.2440   20.9849 C   0  0  0  0  0  0
  -25.2519  -13.8188   20.5710 C   0  0  0  0  0  0
  -24.1801  -13.0443   20.9206 C   0  0  0  0  0  0
  -24.6389  -11.6918   20.8762 C   0  0  0  0  0  0
  -23.9066  -10.4293   21.0419 C   0  0  0  0  0  0
  -24.3615   -9.4206   21.9195 C   0  0  0  0  0  0
  -23.6291   -8.2243   22.0767 C   0  0  0  0  0  0
  -22.4273   -8.0285   21.3548 C   0  0  0  0  0  0
  -21.9909   -9.0256   20.4648 C   0  0  0  0  0  0
  -22.7242  -10.2135   20.3065 C   0  0  0  0  0  0
  -21.6842   -6.0740   22.5274 C   0  0  0  0  0  0
  -21.4013   -6.5640   23.8210 C   0  0  0  0  0  0
  -21.3668   -5.6794   24.9168 C   0  0  0  0  0  0
  -21.6036   -4.3052   24.7215 C   0  0  0  0  0  0
  -21.8825   -3.8149   23.4333 C   0  0  0  0  0  0
  -21.9194   -4.6970   22.3391 C   0  0  0  0  0  0
  -22.7823  -13.5229   21.1869 C   0  0  0  0  0  0
  -22.1658   -4.2157   21.0969 F   0  0  0  0  0  0
  -21.5631   -3.4548   25.7728 F   0  0  0  0  0  0
  -29.9664  -13.6462   20.3994 N   0  0  0  0  0  0
  -26.2927  -12.9390   20.3268 N   0  0  0  0  0  0
  -25.9313  -11.6543   20.5762 N   0  0  0  0  0  0
  -22.0460  -12.8222   22.0412 N   0  0  0  0  0  0
  -25.4259  -15.1919   20.4158 N   0  0  0  0  0  0
  -31.7222  -15.0240   20.0851 O   0  0  0  0  0  0
  -21.6637   -6.8884   21.4233 O   0  0  0  0  0  0
  -22.3519  -14.5538   20.6713 O   0  0  0  0  0  0
  -24.6422  -31.8448   23.1892 C   0  0  0  0  0  0
  -25.9199  -32.4695   23.8267 C   0  0  1  0  0  0
  -27.2112  -27.1487   20.1338 C   0  0  0  0  0  0
  -25.5966  -33.8498   24.2187 N   0  0  0  0  0  0
  -23.4434  -30.4662   21.5362 C   0  0  2  0  0  0
  -24.8878  -28.8954   20.1077 C   0  0  0  0  0  0
  -22.7567  -29.4544   22.4862 C   0  0  0  0  0  0
  -18.0305  -28.1383   22.8433 C   0  0  0  0  0  0
  -24.1497  -36.7262   23.2649 C   0  0  0  0  0  0
  -25.9974  -30.7237   21.3833 C   0  0  0  0  0  0
  -26.0656  -29.3354   20.7231 C   0  0  0  0  0  0
  -27.2256  -28.4764   20.7218 C   0  0  0  0  0  0
  -26.0012  -26.8041   19.4875 C   0  0  0  0  0  0
  -24.8661  -27.6420   19.4794 C   0  0  0  0  0  0
  -23.6681  -29.8015   20.1514 C   0  0  0  0  0  0
  -25.4123  -36.3036   24.0332 C   0  0  1  0  0  0
  -20.5919  -28.3705   23.1226 C   0  0  2  0  0  0
  -20.6788  -26.9418   22.5390 C   0  0  0  0  0  0
  -19.5765  -26.6370   21.5183 C   0  0  0  0  0  0
  -18.1941  -26.7916   22.1585 C   0  0  0  0  0  0
  -19.1568  -28.8860   23.2809 C   0  0  0  0  0  0
  -18.9496  -30.1447   23.8841 C   0  0  0  0  0  0
  -17.6497  -30.6570   24.0550 C   0  0  0  0  0  0
  -25.9073  -34.9410   23.5065 C   0  0  0  0  0  0
  -16.5381  -29.9073   23.6329 C   0  0  0  0  0  0
  -16.7300  -28.6503   23.0322 C   0  0  0  0  0  0
  -26.4541  -31.6563   25.0694 C   0  0  0  0  0  0
  -25.3745  -31.3738   26.1408 C   0  0  0  0  0  0
  -27.0440  -30.2987   24.6239 C   0  0  0  0  0  0
  -27.6058  -32.4337   25.7469 C   0  0  0  0  0  0
  -27.5576  -37.1783   24.8472 C   0  0  0  0  0  0
  -21.4270  -29.3030   22.3610 N   0  0  0  0  0  0
  -26.4279  -37.3752   23.9430 N   0  0  0  0  0  0
  -24.7139  -31.0327   22.0921 N   0  0  0  0  0  0
  -23.4222  -28.8096   23.2994 O   0  0  0  0  0  0
  -28.2881  -26.1970   20.2355 O   0  0  0  0  0  0
  -26.5655  -34.8911   22.4642 O   0  0  0  0  0  0
  -23.5551  -32.1320   23.7145 O   0  0  0  0  0  0
  -28.8852  -18.4465   21.2823 C   0  0  0  0  0  0
  -28.7785  -19.8911   21.1051 C   0  0  0  0  0  0
  -30.5237  -18.3210   19.6090 C   0  0  0  0  0  0
  -29.7601  -17.5641   20.5490 C   0  0  0  0  0  0
  -29.5333  -20.6575   20.1560 C   0  0  0  0  0  0
  -30.4129  -19.7583   19.4157 C   0  0  0  0  0  0
  -30.7620  -22.6869   19.5108 C   0  0  0  0  0  0
  -28.6084  -23.3006   20.5424 C   0  0  0  0  0  0
  -28.3051  -24.7367   19.7041 C   0  0  0  0  0  0
  -29.7293  -16.0394   20.7294 N   0  0  0  0  0  0
  -29.4700  -22.1472   19.9423 N   0  0  0  0  0  0
  -31.1954  -20.2626   18.4303 F   0  0  0  0  0  0
  -31.4767  -12.7193   19.1736 H   0  0  0  0  0  0
  -30.4438  -11.6016   20.0152 H   0  0  0  0  0  0
  -29.8313  -11.7163   17.5800 H   0  0  0  0  0  0
  -29.5926  -13.4440   17.7001 H   0  0  0  0  0  0
  -27.9783  -11.2480   19.0290 H   0  0  0  0  0  0
  -27.3812  -12.3793   17.8429 H   0  0  0  0  0  0
  -27.6113  -14.2316   19.4117 H   0  0  0  0  0  0
  -28.7532  -12.2640   21.4604 H   0  0  0  0  0  0
  -28.3750  -13.9394   21.7687 H   0  0  0  0  0  0
  -25.2758   -9.5682   22.4770 H   0  0  0  0  0  0
  -23.9996   -7.4638   22.7492 H   0  0  0  0  0  0
  -21.0844   -8.8772   19.8950 H   0  0  0  0  0  0
  -22.3703  -10.9672   19.6176 H   0  0  0  0  0  0
  -21.2012   -7.6155   23.9706 H   0  0  0  0  0  0
  -21.1479   -6.0529   25.9069 H   0  0  0  0  0  0
  -22.0600   -2.7617   23.2825 H   0  0  0  0  0  0
  -22.4075  -11.9859   22.4761 H   0  0  0  0  0  0
  -21.1086  -13.1251   22.2640 H   0  0  0  0  0  0
  -24.6646  -15.8501   20.5360 H   0  0  0  0  0  0
  -26.2804  -15.6293   20.0944 H   0  0  0  0  0  0
  -26.7253  -32.5315   23.0985 H   0  0  0  0  0  0
  -25.0117  -33.9606   25.0338 H   0  0  0  0  0  0
  -22.7459  -31.2934   21.3868 H   0  0  0  0  0  0
  -23.3761  -35.9586   23.3293 H   0  0  0  0  0  0
  -24.3580  -36.8911   22.2066 H   0  0  0  0  0  0
  -23.7247  -37.6451   23.6691 H   0  0  0  0  0  0
  -26.1487  -31.4801   20.6116 H   0  0  0  0  0  0
  -26.8700  -30.7731   22.0236 H   0  0  0  0  0  0
  -28.1219  -28.8065   21.2281 H   0  0  0  0  0  0
  -25.8682  -25.8473   19.0122 H   0  0  0  0  0  0
  -23.9606  -27.2959   18.9986 H   0  0  0  0  0  0
  -23.8158  -30.5822   19.4046 H   0  0  0  0  0  0
  -22.7803  -29.2552   19.8294 H   0  0  0  0  0  0
  -25.1298  -36.1866   25.0823 H   0  0  0  0  0  0
  -20.9979  -28.3287   24.1360 H   0  0  0  0  0  0
  -20.5677  -26.2328   23.3607 H   0  0  0  0  0  0
  -21.6663  -26.7422   22.1207 H   0  0  0  0  0  0
  -19.6958  -25.6281   21.1219 H   0  0  0  0  0  0
  -19.6722  -27.3166   20.6700 H   0  0  0  0  0  0
  -17.4229  -26.6653   21.3967 H   0  0  0  0  0  0
  -18.0348  -26.0053   22.8988 H   0  0  0  0  0  0
  -19.7995  -30.7240   24.2213 H   0  0  0  0  0  0
  -17.5080  -31.6254   24.5164 H   0  0  0  0  0  0
  -15.5386  -30.2966   23.7695 H   0  0  0  0  0  0
  -15.8695  -28.0824   22.7042 H   0  0  0  0  0  0
  -24.5910  -30.7092   25.7745 H   0  0  0  0  0  0
  -24.8947  -32.2922   26.4798 H   0  0  0  0  0  0
  -25.8043  -30.8938   27.0212 H   0  0  0  0  0  0
  -26.3054  -29.6679   24.1279 H   0  0  0  0  0  0
  -27.4157  -29.7297   25.4765 H   0  0  0  0  0  0
  -27.8907  -30.4273   23.9494 H   0  0  0  0  0  0
  -27.2640  -33.3667   26.1964 H   0  0  0  0  0  0
  -28.3902  -32.6863   25.0325 H   0  0  0  0  0  0
  -28.0693  -31.8533   26.5458 H   0  0  0  0  0  0
  -28.2579  -38.0088   24.7519 H   0  0  0  0  0  0
  -28.1085  -36.2622   24.6284 H   0  0  0  0  0  0
  -27.2300  -37.1409   25.8873 H   0  0  0  0  0  0
  -20.9501  -29.8814   21.6847 H   0  0  0  0  0  0
  -26.0155  -38.2826   24.1438 H   0  0  0  0  0  0
  -28.2478  -18.0044   22.0345 H   0  0  0  0  0  0
  -28.0795  -20.4222   21.7361 H   0  0  0  0  0  0
  -31.2137  -17.7920   18.9689 H   0  0  0  0  0  0
  -31.5934  -22.2278   20.0497 H   0  0  0  0  0  0
  -30.8427  -23.7595   19.6917 H   0  0  0  0  0  0
  -30.9108  -22.5427   18.4417 H   0  0  0  0  0  0
  -27.6498  -22.8799   20.8500 H   0  0  0  0  0  0
  -29.0965  -23.5805   21.4758 H   0  0  0  0  0  0
  -27.4119  -24.5358   19.1209 H   0  0  0  0  0  0
  -29.0583  -24.7986   18.9201 H   0  0  0  0  0  0
  -28.8579  -15.7208   21.1252 H   0  0  0  0  0  0
  1 25  1  0  0  0
  1 30  2  0  0  0
  1 80  1  0  0  0
  2  3  1  0  0  0
  2 25  1  0  0  0
  2 83  1  0  0  0
  2 84  1  0  0  0
  3  4  1  0  0  0
  3 85  1  0  0  0
  3 86  1  0  0  0
  4  5  1  0  0  0
  4 87  1  0  0  0
  4 88  1  0  0  0
  5  6  1  0  0  0
  5 26  1  0  0  0
  5 89  1  0  0  0
  6 25  1  0  0  0
  6 90  1  0  0  0
  6 91  1  0  0  0
  7  8  2  0  0  0
  7 26  1  0  0  0
  7 29  1  0  0  0
  8  9  1  0  0  0
  8 22  1  0  0  0
  9 10  1  0  0  0
  9 27  2  0  0  0
 10 11  2  0  0  0
 10 15  1  0  0  0
 11 12  1  0  0  0
 11 92  1  0  0  0
 12 13  2  0  0  0
 12 93  1  0  0  0
 13 14  1  0  0  0
 13 31  1  0  0  0
 14 15  2  0  0  0
 14 94  1  0  0  0
 15 95  1  0  0  0
 16 17  2  0  0  0
 16 21  1  0  0  0
 16 31  1  0  0  0
 17 18  1  0  0  0
 17 96  1  0  0  0
 18 19  2  0  0  0
 18 97  1  0  0  0
 19 20  1  0  0  0
 19 24  1  0  0  0
 20 21  2  0  0  0
 20 98  1  0  0  0
 21 23  1  0  0  0
 22 28  1  0  0  0
 22 32  2  0  0  0
 26 27  1  0  0  0
 28 99  1  0  0  0
 28100  1  0  0  0
 29101  1  0  0  0
 29102  1  0  0  0
 33 34  1  0  0  0
 33 66  1  0  0  0
 33 70  2  0  0  0
 34 36  1  0  0  0
 34 59  1  0  0  0
 34103  1  0  0  0
 35 44  2  0  0  0
 35 45  1  0  0  0
 35 68  1  0  0  0
 36 56  1  0  0  0
 36104  1  0  0  0
 37 39  1  0  0  0
 37 47  1  0  0  0
 37 66  1  0  0  0
 37105  1  0  0  0
 38 43  2  0  0  0
 38 46  1  0  0  0
 38 47  1  0  0  0
 39 64  1  0  0  0
 39 67  2  0  0  0
 40 52  1  0  0  0
 40 53  2  0  0  0
 40 58  1  0  0  0
 41106  1  0  0  0
 41107  1  0  0  0
 41108  1  0  0  0
 41 48  1  0  0  0
 42 43  1  0  0  0
 42 66  1  0  0  0
 42109  1  0  0  0
 42110  1  0  0  0
 43 44  1  0  0  0
 44111  1  0  0  0
 45 46  2  0  0  0
 45112  1  0  0  0
 46113  1  0  0  0
 47114  1  0  0  0
 47115  1  0  0  0
 48 56  1  0  0  0
 48 65  1  0  0  0
 48116  1  0  0  0
 49 50  1  0  0  0
 49 53  1  0  0  0
 49 64  1  0  0  0
 49117  1  0  0  0
 50 51  1  0  0  0
 50118  1  0  0  0
 50119  1  0  0  0
 51 52  1  0  0  0
 51120  1  0  0  0
 51121  1  0  0  0
 52122  1  0  0  0
 52123  1  0  0  0
 53 54  1  0  0  0
 54 55  2  0  0  0
 54124  1  0  0  0
 55 57  1  0  0  0
 55125  1  0  0  0
 56 69  2  0  0  0
 57 58  2  0  0  0
 57126  1  0  0  0
 58127  1  0  0  0
 59 60  1  0  0  0
 59 61  1  0  0  0
 59 62  1  0  0  0
 60128  1  0  0  0
 60129  1  0  0  0
 60130  1  0  0  0
 61131  1  0  0  0
 61132  1  0  0  0
 61133  1  0  0  0
 62134  1  0  0  0
 62135  1  0  0  0
 62136  1  0  0  0
 63 65  1  0  0  0
 63137  1  0  0  0
 63138  1  0  0  0
 63139  1  0  0  0
 64140  1  0  0  0
 65141  1  0  0  0
 68 79  1  0  0  0
 71 72  2  0  0  0
 71 74  1  0  0  0
 71142  1  0  0  0
 72 75  1  0  0  0
 72143  1  0  0  0
 73 74  2  0  0  0
 73 76  1  0  0  0
 73144  1  0  0  0
 74 80  1  0  0  0
 75 76  2  0  0  0
 75 81  1  0  0  0
 76 82  1  0  0  0
 77 81  1  0  0  0
 77145  1  0  0  0
 77146  1  0  0  0
 77147  1  0  0  0
 78 79  1  0  0  0
 78 81  1  0  0  0
 78148  1  0  0  0
 78149  1  0  0  0
 79150  1  0  0  0
 79151  1  0  0  0
 80152  1  0  0  0
M  ISO  4   1 100  68 101  79 101  80 100
M  END
> <chiral flag>
0

> <version>
0

> <s_m_source_file>
/data/baiqing/PycharmProjects/Reinvent-master-3.2/result/LINK_invent/BTK/process_docking_weight1_custom_sum_contain_oxygen_bond_distance_aromatic_linkinvent_7_9_3/rearranged_h_0011.sdf

> <i_m_source_file_index>
82

> <r_mmod_Potential_Energy-OPLS-2005>
511.603118896484

> <r_mmod_Stretch_Energy-OPLS-2005>
230.296722412109

> <r_mmod_Bend_Energy-OPLS-2005>
284.916046142578

> <r_mmod_Torsional_Energy-OPLS-2005>
211.01481628418

> <r_mmod_Improper_Torsional_Energy-OPLS-2005>
5.03031587600708

> <r_mmod_Van_der_Waal_Energy-OPLS-2005>
145.182098388672

> <r_mmod_Electrostatic_Energy-OPLS-2005>
-309.540466308594

> <r_mmod_Solvation_Energy-OPLS-2005>
-229.006332397461

> <b_mmod_Minimization_Converged-OPLS-2005>
0

> <r_mmod_RMS_Derivative-OPLS-2005>
3.109783411026

$$$$
82
                    3D
 Structure written by MMmdl.
152160  0  0  1  0            999 V2000
  -30.5402  -14.9163   20.4320 C   0  0  0  0  0  0
  -30.4476  -12.5618   19.4955 C   0  0  0  0  0  0
  -29.5174  -12.5114   18.2600 C   0  0  0  0  0  0
  -28.0586  -12.2833   18.6933 C   0  0  0  0  0  0
  -27.6376  -13.2306   19.8449 C   0  0  2  0  0  0
  -28.6788  -13.2436   20.9860 C   0  0  0  0  0  0
  -25.2518  -13.8191   20.5690 C   0  0  0  0  0  0
  -24.1805  -13.0442   20.9207 C   0  0  0  0  0  0
  -24.6392  -11.6922   20.8761 C   0  0  0  0  0  0
  -23.9070  -10.4295   21.0420 C   0  0  0  0  0  0
  -24.3618   -9.4209   21.9194 C   0  0  0  0  0  0
  -23.6292   -8.2245   22.0768 C   0  0  0  0  0  0
  -22.4274   -8.0291   21.3552 C   0  0  0  0  0  0
  -21.9911   -9.0258   20.4650 C   0  0  0  0  0  0
  -22.7246  -10.2137   20.3066 C   0  0  0  0  0  0
  -21.6847   -6.0744   22.5272 C   0  0  0  0  0  0
  -21.4010   -6.5643   23.8209 C   0  0  0  0  0  0
  -21.3665   -5.6797   24.9169 C   0  0  0  0  0  0
  -21.6039   -4.3057   24.7214 C   0  0  0  0  0  0
  -21.8826   -3.8153   23.4332 C   0  0  0  0  0  0
  -21.9189   -4.6969   22.3393 C   0  0  0  0  0  0
  -22.7823  -13.5233   21.1856 C   0  0  0  0  0  0
  -22.1658   -4.2162   21.0968 F   0  0  0  0  0  0
  -21.5630   -3.4546   25.7727 F   0  0  0  0  0  0
  -29.9670  -13.6467   20.4005 N   0  0  0  0  0  0
  -26.2925  -12.9386   20.3270 N   0  0  0  0  0  0
  -25.9318  -11.6539   20.5768 N   0  0  0  0  0  0
  -22.0462  -12.8223   22.0411 N   0  0  0  0  0  0
  -25.4246  -15.1908   20.4112 N   0  0  0  0  0  0
  -31.7229  -15.0247   20.0869 O   0  0  0  0  0  0
  -21.6639   -6.8884   21.4238 O   0  0  0  0  0  0
  -22.3516  -14.5534   20.6705 O   0  0  0  0  0  0
  -24.6422  -31.8444   23.1891 C   0  0  0  0  0  0
  -25.9194  -32.4692   23.8265 C   0  0  1  0  0  0
  -27.2133  -27.1471   20.1348 C   0  0  0  0  0  0
  -25.5965  -33.8499   24.2189 N   0  0  0  0  0  0
  -23.4442  -30.4656   21.5353 C   0  0  2  0  0  0
  -24.8892  -28.8931   20.1078 C   0  0  0  0  0  0
  -22.7569  -29.4546   22.4869 C   0  0  0  0  0  0
  -18.0308  -28.1387   22.8434 C   0  0  0  0  0  0
  -24.1498  -36.7261   23.2652 C   0  0  0  0  0  0
  -25.9982  -30.7226   21.3836 C   0  0  0  0  0  0
  -26.0662  -29.3340   20.7230 C   0  0  0  0  0  0
  -27.2259  -28.4746   20.7231 C   0  0  0  0  0  0
  -26.0040  -26.8010   19.4890 C   0  0  0  0  0  0
  -24.8685  -27.6396   19.4788 C   0  0  0  0  0  0
  -23.6686  -29.7990   20.1512 C   0  0  0  0  0  0
  -25.4124  -36.3035   24.0335 C   0  0  1  0  0  0
  -20.5919  -28.3703   23.1230 C   0  0  2  0  0  0
  -20.6791  -26.9419   22.5391 C   0  0  0  0  0  0
  -19.5764  -26.6372   21.5185 C   0  0  0  0  0  0
  -18.1943  -26.7918   22.1587 C   0  0  0  0  0  0
  -19.1565  -28.8860   23.2807 C   0  0  0  0  0  0
  -18.9496  -30.1449   23.8844 C   0  0  0  0  0  0
  -17.6499  -30.6570   24.0553 C   0  0  0  0  0  0
  -25.9074  -34.9410   23.5063 C   0  0  0  0  0  0
  -16.5381  -29.9074   23.6334 C   0  0  0  0  0  0
  -16.7298  -28.6504   23.0324 C   0  0  0  0  0  0
  -26.4537  -31.6563   25.0700 C   0  0  0  0  0  0
  -25.3739  -31.3741   26.1411 C   0  0  0  0  0  0
  -27.0435  -30.2990   24.6243 C   0  0  0  0  0  0
  -27.6054  -32.4340   25.7474 C   0  0  0  0  0  0
  -27.5575  -37.1782   24.8473 C   0  0  0  0  0  0
  -21.4271  -29.3029   22.3611 N   0  0  0  0  0  0
  -26.4279  -37.3753   23.9432 N   0  0  0  0  0  0
  -24.7144  -31.0316   22.0919 N   0  0  0  0  0  0
  -23.4224  -28.8098   23.2998 O   0  0  0  0  0  0
  -28.2911  -26.1962   20.2384 O   0  0  0  0  0  0
  -26.5657  -34.8908   22.4644 O   0  0  0  0  0  0
  -23.5547  -32.1313   23.7148 O   0  0  0  0  0  0
  -30.5767  -18.3313   19.6604 C   0  0  0  0  0  0
  -28.7406  -19.8707   21.0722 C   0  0  0  0  0  0
  -29.7628  -17.5629   20.5471 C   0  0  0  0  0  0
  -29.5441  -20.6551   20.1775 C   0  0  0  0  0  0
  -28.8401  -18.4242   21.2424 C   0  0  0  0  0  0
  -30.4677  -19.7696   19.4774 C   0  0  0  0  0  0
  -30.7968  -22.7009   19.6284 C   0  0  0  0  0  0
  -28.5863  -23.2934   20.5400 C   0  0  0  0  0  0
  -28.3190  -24.7376   19.7019 C   0  0  0  0  0  0
  -29.7307  -16.0383   20.7274 N   0  0  0  0  0  0
  -29.4845  -22.1497   19.9768 N   0  0  0  0  0  0
  -27.9954  -17.8373   22.1232 F   0  0  0  0  0  0
  -31.3010  -20.2893   18.5435 F   0  0  0  0  0  0
  -31.4779  -12.7213   19.1741 H   0  0  0  0  0  0
  -30.4476  -11.6022   20.0146 H   0  0  0  0  0  0
  -29.8322  -11.7172   17.5804 H   0  0  0  0  0  0
  -29.5932  -13.4441   17.7004 H   0  0  0  0  0  0
  -27.9785  -11.2470   19.0286 H   0  0  0  0  0  0
  -27.3821  -12.3787   17.8433 H   0  0  0  0  0  0
  -27.6116  -14.2309   19.4121 H   0  0  0  0  0  0
  -28.7535  -12.2636   21.4599 H   0  0  0  0  0  0
  -28.3745  -13.9376   21.7703 H   0  0  0  0  0  0
  -25.2759   -9.5684   22.4775 H   0  0  0  0  0  0
  -24.0000   -7.4636   22.7487 H   0  0  0  0  0  0
  -21.0849   -8.8774   19.8944 H   0  0  0  0  0  0
  -22.3705  -10.9678   19.6181 H   0  0  0  0  0  0
  -21.2012   -7.6155   23.9710 H   0  0  0  0  0  0
  -21.1476   -6.0528   25.9072 H   0  0  0  0  0  0
  -22.0601   -2.7619   23.2823 H   0  0  0  0  0  0
  -22.4078  -11.9866   22.4763 H   0  0  0  0  0  0
  -21.1089  -13.1259   22.2645 H   0  0  0  0  0  0
  -24.6628  -15.8483   20.5318 H   0  0  0  0  0  0
  -26.2792  -15.6283   20.0904 H   0  0  0  0  0  0
  -26.7253  -32.5309   23.0985 H   0  0  0  0  0  0
  -25.0112  -33.9604   25.0335 H   0  0  0  0  0  0
  -22.7457  -31.2922   21.3845 H   0  0  0  0  0  0
  -23.3758  -35.9585   23.3296 H   0  0  0  0  0  0
  -24.3581  -36.8906   22.2065 H   0  0  0  0  0  0
  -23.7238  -37.6450   23.6689 H   0  0  0  0  0  0
  -26.1492  -31.4788   20.6122 H   0  0  0  0  0  0
  -26.8711  -30.7721   22.0238 H   0  0  0  0  0  0
  -28.1214  -28.8047   21.2310 H   0  0  0  0  0  0
  -25.8753  -25.8428   19.0167 H   0  0  0  0  0  0
  -23.9643  -27.2934   18.9966 H   0  0  0  0  0  0
  -23.8147  -30.5780   19.4018 H   0  0  0  0  0  0
  -22.7812  -29.2507   19.8307 H   0  0  0  0  0  0
  -25.1298  -36.1872   25.0825 H   0  0  0  0  0  0
  -20.9974  -28.3285   24.1363 H   0  0  0  0  0  0
  -20.5674  -26.2332   23.3606 H   0  0  0  0  0  0
  -21.6659  -26.7421   22.1208 H   0  0  0  0  0  0
  -19.6954  -25.6283   21.1221 H   0  0  0  0  0  0
  -19.6718  -27.3170   20.6702 H   0  0  0  0  0  0
  -17.4225  -26.6654   21.3971 H   0  0  0  0  0  0
  -18.0344  -26.0056   22.8993 H   0  0  0  0  0  0
  -19.7992  -30.7240   24.2213 H   0  0  0  0  0  0
  -17.5080  -31.6254   24.5160 H   0  0  0  0  0  0
  -15.5385  -30.2966   23.7695 H   0  0  0  0  0  0
  -15.8696  -28.0823   22.7046 H   0  0  0  0  0  0
  -24.5908  -30.7098   25.7738 H   0  0  0  0  0  0
  -24.8946  -32.2925   26.4800 H   0  0  0  0  0  0
  -25.8035  -30.8936   27.0212 H   0  0  0  0  0  0
  -26.3054  -29.6677   24.1281 H   0  0  0  0  0  0
  -27.4144  -29.7306   25.4776 H   0  0  0  0  0  0
  -27.8907  -30.4274   23.9503 H   0  0  0  0  0  0
  -27.2637  -33.3666   26.1970 H   0  0  0  0  0  0
  -28.3890  -32.6864   25.0322 H   0  0  0  0  0  0
  -28.0693  -31.8536   26.5457 H   0  0  0  0  0  0
  -28.2577  -38.0087   24.7520 H   0  0  0  0  0  0
  -28.1080  -36.2620   24.6286 H   0  0  0  0  0  0
  -27.2302  -37.1412   25.8873 H   0  0  0  0  0  0
  -20.9506  -29.8809   21.6841 H   0  0  0  0  0  0
  -26.0157  -38.2825   24.1434 H   0  0  0  0  0  0
  -31.3074  -17.8123   19.0585 H   0  0  0  0  0  0
  -28.0076  -20.3865   21.6730 H   0  0  0  0  0  0
  -31.5965  -22.2458   20.2161 H   0  0  0  0  0  0
  -30.8588  -23.7731   19.8200 H   0  0  0  0  0  0
  -31.0172  -22.5677   18.5701 H   0  0  0  0  0  0
  -27.6153  -22.8654   20.7955 H   0  0  0  0  0  0
  -29.0242  -23.5668   21.4998 H   0  0  0  0  0  0
  -27.4481  -24.5494   19.0815 H   0  0  0  0  0  0
  -29.1028  -24.7978   18.9483 H   0  0  0  0  0  0
  -28.8571  -15.7362   21.1322 H   0  0  0  0  0  0
  1 25  1  0  0  0
  1 30  2  0  0  0
  1 80  1  0  0  0
  2  3  1  0  0  0
  2 25  1  0  0  0
  2 84  1  0  0  0
  2 85  1  0  0  0
  3  4  1  0  0  0
  3 86  1  0  0  0
  3 87  1  0  0  0
  4  5  1  0  0  0
  4 88  1  0  0  0
  4 89  1  0  0  0
  5  6  1  0  0  0
  5 26  1  0  0  0
  5 90  1  0  0  0
  6 25  1  0  0  0
  6 91  1  0  0  0
  6 92  1  0  0  0
  7  8  2  0  0  0
  7 26  1  0  0  0
  7 29  1  0  0  0
  8  9  1  0  0  0
  8 22  1  0  0  0
  9 10  1  0  0  0
  9 27  2  0  0  0
 10 11  2  0  0  0
 10 15  1  0  0  0
 11 12  1  0  0  0
 11 93  1  0  0  0
 12 13  2  0  0  0
 12 94  1  0  0  0
 13 14  1  0  0  0
 13 31  1  0  0  0
 14 15  2  0  0  0
 14 95  1  0  0  0
 15 96  1  0  0  0
 16 17  2  0  0  0
 16 21  1  0  0  0
 16 31  1  0  0  0
 17 18  1  0  0  0
 17 97  1  0  0  0
 18 19  2  0  0  0
 18 98  1  0  0  0
 19 20  1  0  0  0
 19 24  1  0  0  0
 20 21  2  0  0  0
 20 99  1  0  0  0
 21 23  1  0  0  0
 22 28  1  0  0  0
 22 32  2  0  0  0
 26 27  1  0  0  0
 28100  1  0  0  0
 28101  1  0  0  0
 29102  1  0  0  0
 29103  1  0  0  0
 33 34  1  0  0  0
 33 66  1  0  0  0
 33 70  2  0  0  0
 34 36  1  0  0  0
 34 59  1  0  0  0
 34104  1  0  0  0
 35 44  2  0  0  0
 35 45  1  0  0  0
 35 68  1  0  0  0
 36 56  1  0  0  0
 36105  1  0  0  0
 37 39  1  0  0  0
 37 47  1  0  0  0
 37 66  1  0  0  0
 37106  1  0  0  0
 38 43  2  0  0  0
 38 46  1  0  0  0
 38 47  1  0  0  0
 39 64  1  0  0  0
 39 67  2  0  0  0
 40 52  1  0  0  0
 40 53  2  0  0  0
 40 58  1  0  0  0
 41107  1  0  0  0
 41108  1  0  0  0
 41109  1  0  0  0
 41 48  1  0  0  0
 42 43  1  0  0  0
 42 66  1  0  0  0
 42110  1  0  0  0
 42111  1  0  0  0
 43 44  1  0  0  0
 44112  1  0  0  0
 45 46  2  0  0  0
 45113  1  0  0  0
 46114  1  0  0  0
 47115  1  0  0  0
 47116  1  0  0  0
 48 56  1  0  0  0
 48 65  1  0  0  0
 48117  1  0  0  0
 49 50  1  0  0  0
 49 53  1  0  0  0
 49 64  1  0  0  0
 49118  1  0  0  0
 50 51  1  0  0  0
 50119  1  0  0  0
 50120  1  0  0  0
 51 52  1  0  0  0
 51121  1  0  0  0
 51122  1  0  0  0
 52123  1  0  0  0
 52124  1  0  0  0
 53 54  1  0  0  0
 54 55  2  0  0  0
 54125  1  0  0  0
 55 57  1  0  0  0
 55126  1  0  0  0
 56 69  2  0  0  0
 57 58  2  0  0  0
 57127  1  0  0  0
 58128  1  0  0  0
 59 60  1  0  0  0
 59 61  1  0  0  0
 59 62  1  0  0  0
 60129  1  0  0  0
 60130  1  0  0  0
 60131  1  0  0  0
 61132  1  0  0  0
 61133  1  0  0  0
 61134  1  0  0  0
 62135  1  0  0  0
 62136  1  0  0  0
 62137  1  0  0  0
 63 65  1  0  0  0
 63138  1  0  0  0
 63139  1  0  0  0
 63140  1  0  0  0
 64141  1  0  0  0
 65142  1  0  0  0
 68 79  1  0  0  0
 71 73  2  0  0  0
 71 76  1  0  0  0
 71143  1  0  0  0
 72 74  1  0  0  0
 72 75  2  0  0  0
 72144  1  0  0  0
 73 75  1  0  0  0
 73 80  1  0  0  0
 74 76  2  0  0  0
 74 81  1  0  0  0
 75 82  1  0  0  0
 76 83  1  0  0  0
 77 81  1  0  0  0
 77145  1  0  0  0
 77146  1  0  0  0
 77147  1  0  0  0
 78 79  1  0  0  0
 78 81  1  0  0  0
 78148  1  0  0  0
 78149  1  0  0  0
 79150  1  0  0  0
 79151  1  0  0  0
 80152  1  0  0  0
M  ISO  4   1 100  68 101  79 101  80 100
M  END
> <chiral flag>
0

> <version>
0

> <s_m_source_file>
/data/baiqing/PycharmProjects/Reinvent-master-3.2/result/LINK_invent/BTK/process_docking_weight1_custom_sum_contain_oxygen_bond_distance_aromatic_linkinvent_7_9_3/rearranged_h_0011.sdf

> <i_m_source_file_index>
83

> <r_mmod_Potential_Energy-OPLS-2005>
476.563720703125

> <r_mmod_Stretch_Energy-OPLS-2005>
230.876602172852

> <r_mmod_Bend_Energy-OPLS-2005>
286.58837890625

> <r_mmod_Torsional_Energy-OPLS-2005>
210.085144042969

> <r_mmod_Improper_Torsional_Energy-OPLS-2005>
5.06855201721191

> <r_mmod_Van_der_Waal_Energy-OPLS-2005>
144.009994506836

> <r_mmod_Electrostatic_Energy-OPLS-2005>
-353.039520263672

> <r_mmod_Solvation_Energy-OPLS-2005>
-221.398712158203

> <b_mmod_Minimization_Converged-OPLS-2005>
0

> <r_mmod_RMS_Derivative-OPLS-2005>
2.88075685501099

$$$$
83
                    3D
 Structure written by MMmdl.
151159  0  0  1  0            999 V2000
  -30.6314  -14.6502   20.4927 C   0  0  0  0  0  0
  -30.4372  -12.3978   19.4583 C   0  0  0  0  0  0
  -29.5079  -12.5047   18.2283 C   0  0  0  0  0  0
  -28.0304  -12.3486   18.6391 C   0  0  0  0  0  0
  -27.6528  -13.2220   19.8654 C   0  0  2  0  0  0
  -28.6987  -13.0878   20.9957 C   0  0  0  0  0  0
  -25.2528  -13.8163   20.5654 C   0  0  0  0  0  0
  -24.1810  -13.0425   20.9178 C   0  0  0  0  0  0
  -24.6401  -11.6907   20.8750 C   0  0  0  0  0  0
  -23.9072  -10.4289   21.0410 C   0  0  0  0  0  0
  -24.3621   -9.4206   21.9188 C   0  0  0  0  0  0
  -23.6297   -8.2240   22.0753 C   0  0  0  0  0  0
  -22.4279   -8.0280   21.3544 C   0  0  0  0  0  0
  -21.9916   -9.0254   20.4646 C   0  0  0  0  0  0
  -22.7244  -10.2132   20.3059 C   0  0  0  0  0  0
  -21.6853   -6.0739   22.5279 C   0  0  0  0  0  0
  -21.4011   -6.5642   23.8213 C   0  0  0  0  0  0
  -21.3659   -5.6793   24.9175 C   0  0  0  0  0  0
  -21.6044   -4.3055   24.7223 C   0  0  0  0  0  0
  -21.8821   -3.8150   23.4343 C   0  0  0  0  0  0
  -21.9194   -4.6968   22.3401 C   0  0  0  0  0  0
  -22.7835  -13.5218   21.1851 C   0  0  0  0  0  0
  -22.1663   -4.2155   21.0978 F   0  0  0  0  0  0
  -21.5631   -3.4537   25.7735 F   0  0  0  0  0  0
  -30.0141  -13.4266   20.4301 N   0  0  0  0  0  0
  -26.2990  -12.9372   20.3345 N   0  0  0  0  0  0
  -25.9340  -11.6521   20.5791 N   0  0  0  0  0  0
  -22.0488  -12.8209   22.0416 N   0  0  0  0  0  0
  -25.4186  -15.1873   20.4014 N   0  0  0  0  0  0
  -31.7945  -14.7936   20.1072 O   0  0  0  0  0  0
  -21.6641   -6.8879   21.4239 O   0  0  0  0  0  0
  -22.3514  -14.5530   20.6714 O   0  0  0  0  0  0
  -24.6271  -31.8596   23.2035 C   0  0  0  0  0  0
  -25.9112  -32.4779   23.8362 C   0  0  1  0  0  0
  -27.2225  -27.3148   20.1097 C   0  0  0  0  0  0
  -25.5927  -33.8580   24.2287 N   0  0  0  0  0  0
  -23.4208  -30.4849   21.5464 C   0  0  2  0  0  0
  -24.8656  -28.9427   20.1109 C   0  0  0  0  0  0
  -22.7483  -29.4622   22.4933 C   0  0  0  0  0  0
  -18.0287  -28.1385   22.8499 C   0  0  0  0  0  0
  -24.1487  -36.7286   23.2636 C   0  0  0  0  0  0
  -25.9633  -30.7892   21.3754 C   0  0  0  0  0  0
  -26.0369  -29.4173   20.7145 C   0  0  0  0  0  0
  -27.2180  -28.6158   20.7041 C   0  0  0  0  0  0
  -26.0235  -26.8964   19.4838 C   0  0  0  0  0  0
  -24.8614  -27.6874   19.4874 C   0  0  0  0  0  0
  -23.6351  -29.8241   20.1605 C   0  0  0  0  0  0
  -25.4112  -36.3081   24.0331 C   0  0  1  0  0  0
  -20.5892  -28.3683   23.1285 C   0  0  2  0  0  0
  -20.6775  -26.9406   22.5409 C   0  0  0  0  0  0
  -19.5746  -26.6386   21.5214 C   0  0  0  0  0  0
  -18.1927  -26.7934   22.1629 C   0  0  0  0  0  0
  -19.1544  -28.8852   23.2889 C   0  0  0  0  0  0
  -18.9466  -30.1458   23.8897 C   0  0  0  0  0  0
  -17.6466  -30.6589   24.0568 C   0  0  0  0  0  0
  -25.9045  -34.9455   23.5106 C   0  0  0  0  0  0
  -16.5354  -29.9090   23.6336 C   0  0  0  0  0  0
  -16.7275  -28.6507   23.0358 C   0  0  0  0  0  0
  -26.4492  -31.6590   25.0732 C   0  0  0  0  0  0
  -25.3728  -31.3751   26.1462 C   0  0  0  0  0  0
  -27.0313  -30.3006   24.6188 C   0  0  0  0  0  0
  -27.6056  -32.4316   25.7500 C   0  0  0  0  0  0
  -27.5580  -37.1796   24.8468 C   0  0  0  0  0  0
  -21.4191  -29.3041   22.3683 N   0  0  0  0  0  0
  -26.4288  -37.3780   23.9414 N   0  0  0  0  0  0
  -24.6892  -31.0614   22.0982 N   0  0  0  0  0  0
  -23.4209  -28.8154   23.3006 O   0  0  0  0  0  0
  -28.3363  -26.4568   20.1560 O   0  0  0  0  0  0
  -26.5612  -34.8924   22.4673 O   0  0  0  0  0  0
  -23.5431  -32.1385   23.7365 O   0  0  0  0  0  0
  -28.9860  -19.4478   21.0346 C   0  0  0  0  0  0
  -31.0385  -17.8269   20.0154 C   0  0  0  0  0  0
  -30.0669  -20.1037   20.3927 C   0  0  0  0  0  0
  -29.9671  -17.1678   20.6745 C   0  0  0  0  0  0
  -31.0875  -19.2470   19.8855 C   0  0  0  0  0  0
  -28.9407  -18.0245   21.1733 C   0  0  0  0  0  0
  -29.2921  -24.0297   20.3052 C   0  0  0  0  0  0
  -30.2644  -21.6690   20.3447 C   0  0  0  0  0  0
  -28.0869  -24.9990   19.9937 C   0  0  0  0  0  0
  -29.8423  -15.7124   20.8519 N   0  0  0  0  0  0
  -29.1405  -22.6630   20.2335 N   0  0  0  0  0  0
  -30.3861  -24.5233   20.5906 O   0  0  0  0  0  0
  -32.1636  -19.7942   19.2718 F   0  0  0  0  0  0
  -27.5961  -17.3272   22.0030 Cl  0  0  0  0  0  0
  -31.4787  -12.5199   19.1552 H   0  0  0  0  0  0
  -30.3724  -11.4058   19.9076 H   0  0  0  0  0  0
  -29.7708  -11.7448   17.4911 H   0  0  0  0  0  0
  -29.6532  -13.4691   17.7392 H   0  0  0  0  0  0
  -27.8637  -11.2967   18.8714 H   0  0  0  0  0  0
  -27.3775  -12.5800   17.7966 H   0  0  0  0  0  0
  -27.6667  -14.2565   19.5220 H   0  0  0  0  0  0
  -28.7112  -12.0705   21.3897 H   0  0  0  0  0  0
  -28.4448  -13.7300   21.8406 H   0  0  0  0  0  0
  -25.2765   -9.5682   22.4764 H   0  0  0  0  0  0
  -24.0008   -7.4628   22.7470 H   0  0  0  0  0  0
  -21.0848   -8.8775   19.8948 H   0  0  0  0  0  0
  -22.3706  -10.9674   19.6170 H   0  0  0  0  0  0
  -21.1999   -7.6151   23.9717 H   0  0  0  0  0  0
  -21.1480   -6.0523   25.9077 H   0  0  0  0  0  0
  -22.0600   -2.7613   23.2841 H   0  0  0  0  0  0
  -22.4111  -11.9871   22.4798 H   0  0  0  0  0  0
  -21.1111  -13.1234   22.2633 H   0  0  0  0  0  0
  -24.6579  -15.8422   20.5418 H   0  0  0  0  0  0
  -26.2828  -15.6394   20.1338 H   0  0  0  0  0  0
  -26.7182  -32.5442   23.1111 H   0  0  0  0  0  0
  -25.0083  -33.9730   25.0439 H   0  0  0  0  0  0
  -22.7148  -31.3061   21.4064 H   0  0  0  0  0  0
  -23.3754  -35.9613   23.3290 H   0  0  0  0  0  0
  -24.3582  -36.8910   22.2052 H   0  0  0  0  0  0
  -23.7235  -37.6489   23.6660 H   0  0  0  0  0  0
  -26.0983  -31.5552   20.6108 H   0  0  0  0  0  0
  -26.8428  -30.8338   22.0061 H   0  0  0  0  0  0
  -28.1171  -28.9762   21.1854 H   0  0  0  0  0  0
  -25.9478  -25.9406   18.9888 H   0  0  0  0  0  0
  -23.9643  -27.3184   19.0092 H   0  0  0  0  0  0
  -23.7565  -30.6033   19.4068 H   0  0  0  0  0  0
  -22.7540  -29.2561   19.8562 H   0  0  0  0  0  0
  -25.1293  -36.1924   25.0824 H   0  0  0  0  0  0
  -20.9991  -28.3246   24.1402 H   0  0  0  0  0  0
  -20.5671  -26.2288   23.3605 H   0  0  0  0  0  0
  -21.6641  -26.7428   22.1200 H   0  0  0  0  0  0
  -19.6899  -25.6300   21.1232 H   0  0  0  0  0  0
  -19.6683  -27.3207   20.6755 H   0  0  0  0  0  0
  -17.4198  -26.6687   21.4030 H   0  0  0  0  0  0
  -18.0320  -26.0077   22.9023 H   0  0  0  0  0  0
  -19.7938  -30.7280   24.2258 H   0  0  0  0  0  0
  -17.5018  -31.6269   24.5166 H   0  0  0  0  0  0
  -15.5356  -30.2989   23.7663 H   0  0  0  0  0  0
  -15.8673  -28.0827   22.7068 H   0  0  0  0  0  0
  -24.5909  -30.7077   25.7814 H   0  0  0  0  0  0
  -24.8907  -32.2922   26.4852 H   0  0  0  0  0  0
  -25.8050  -30.8970   27.0256 H   0  0  0  0  0  0
  -26.2876  -29.6774   24.1201 H   0  0  0  0  0  0
  -27.3985  -29.7248   25.4694 H   0  0  0  0  0  0
  -27.8766  -30.4281   23.9423 H   0  0  0  0  0  0
  -27.2685  -33.3643   26.2032 H   0  0  0  0  0  0
  -28.3891  -32.6815   25.0334 H   0  0  0  0  0  0
  -28.0681  -31.8453   26.5450 H   0  0  0  0  0  0
  -28.2593  -38.0099   24.7516 H   0  0  0  0  0  0
  -28.1077  -36.2630   24.6282 H   0  0  0  0  0  0
  -27.2299  -37.1434   25.8871 H   0  0  0  0  0  0
  -20.9355  -29.8782   21.6916 H   0  0  0  0  0  0
  -26.0162  -38.2847   24.1429 H   0  0  0  0  0  0
  -28.1914  -20.0398   21.4639 H   0  0  0  0  0  0
  -31.8559  -17.2556   19.6039 H   0  0  0  0  0  0
  -30.9399  -21.8874   19.5159 H   0  0  0  0  0  0
  -30.8328  -21.9215   21.2418 H   0  0  0  0  0  0
  -27.2561  -24.6985   20.6338 H   0  0  0  0  0  0
  -27.7934  -24.7985   18.9632 H   0  0  0  0  0  0
  -28.9489  -15.4322   21.2289 H   0  0  0  0  0  0
  -28.2280  -22.3047   19.9855 H   0  0  0  0  0  0
  1 25  1  0  0  0
  1 30  2  0  0  0
  1 80  1  0  0  0
  2  3  1  0  0  0
  2 25  1  0  0  0
  2 85  1  0  0  0
  2 86  1  0  0  0
  3  4  1  0  0  0
  3 87  1  0  0  0
  3 88  1  0  0  0
  4  5  1  0  0  0
  4 89  1  0  0  0
  4 90  1  0  0  0
  5  6  1  0  0  0
  5 26  1  0  0  0
  5 91  1  0  0  0
  6 25  1  0  0  0
  6 92  1  0  0  0
  6 93  1  0  0  0
  7  8  2  0  0  0
  7 26  1  0  0  0
  7 29  1  0  0  0
  8  9  1  0  0  0
  8 22  1  0  0  0
  9 10  1  0  0  0
  9 27  2  0  0  0
 10 11  2  0  0  0
 10 15  1  0  0  0
 11 12  1  0  0  0
 11 94  1  0  0  0
 12 13  2  0  0  0
 12 95  1  0  0  0
 13 14  1  0  0  0
 13 31  1  0  0  0
 14 15  2  0  0  0
 14 96  1  0  0  0
 15 97  1  0  0  0
 16 17  2  0  0  0
 16 21  1  0  0  0
 16 31  1  0  0  0
 17 18  1  0  0  0
 17 98  1  0  0  0
 18 19  2  0  0  0
 18 99  1  0  0  0
 19 20  1  0  0  0
 19 24  1  0  0  0
 20 21  2  0  0  0
 20100  1  0  0  0
 21 23  1  0  0  0
 22 28  1  0  0  0
 22 32  2  0  0  0
 26 27  1  0  0  0
 28101  1  0  0  0
 28102  1  0  0  0
 29103  1  0  0  0
 29104  1  0  0  0
 33 34  1  0  0  0
 33 66  1  0  0  0
 33 70  2  0  0  0
 34 36  1  0  0  0
 34 59  1  0  0  0
 34105  1  0  0  0
 35 44  2  0  0  0
 35 45  1  0  0  0
 35 68  1  0  0  0
 36 56  1  0  0  0
 36106  1  0  0  0
 37 39  1  0  0  0
 37 47  1  0  0  0
 37 66  1  0  0  0
 37107  1  0  0  0
 38 43  2  0  0  0
 38 46  1  0  0  0
 38 47  1  0  0  0
 39 64  1  0  0  0
 39 67  2  0  0  0
 40 52  1  0  0  0
 40 53  2  0  0  0
 40 58  1  0  0  0
 41108  1  0  0  0
 41109  1  0  0  0
 41110  1  0  0  0
 41 48  1  0  0  0
 42 43  1  0  0  0
 42 66  1  0  0  0
 42111  1  0  0  0
 42112  1  0  0  0
 43 44  1  0  0  0
 44113  1  0  0  0
 45 46  2  0  0  0
 45114  1  0  0  0
 46115  1  0  0  0
 47116  1  0  0  0
 47117  1  0  0  0
 48 56  1  0  0  0
 48 65  1  0  0  0
 48118  1  0  0  0
 49 50  1  0  0  0
 49 53  1  0  0  0
 49 64  1  0  0  0
 49119  1  0  0  0
 50 51  1  0  0  0
 50120  1  0  0  0
 50121  1  0  0  0
 51 52  1  0  0  0
 51122  1  0  0  0
 51123  1  0  0  0
 52124  1  0  0  0
 52125  1  0  0  0
 53 54  1  0  0  0
 54 55  2  0  0  0
 54126  1  0  0  0
 55 57  1  0  0  0
 55127  1  0  0  0
 56 69  2  0  0  0
 57 58  2  0  0  0
 57128  1  0  0  0
 58129  1  0  0  0
 59 60  1  0  0  0
 59 61  1  0  0  0
 59 62  1  0  0  0
 60130  1  0  0  0
 60131  1  0  0  0
 60132  1  0  0  0
 61133  1  0  0  0
 61134  1  0  0  0
 61135  1  0  0  0
 62136  1  0  0  0
 62137  1  0  0  0
 62138  1  0  0  0
 63 65  1  0  0  0
 63139  1  0  0  0
 63140  1  0  0  0
 63141  1  0  0  0
 64142  1  0  0  0
 65143  1  0  0  0
 68 79  1  0  0  0
 71 73  2  0  0  0
 71 76  1  0  0  0
 71144  1  0  0  0
 72 74  1  0  0  0
 72 75  2  0  0  0
 72145  1  0  0  0
 73 75  1  0  0  0
 73 78  1  0  0  0
 74 76  2  0  0  0
 74 80  1  0  0  0
 75 83  1  0  0  0
 76 84  1  0  0  0
 77 79  1  0  0  0
 77 81  1  0  0  0
 77 82  2  0  0  0
 78 81  1  0  0  0
 78146  1  0  0  0
 78147  1  0  0  0
 79148  1  0  0  0
 79149  1  0  0  0
 80150  1  0  0  0
 81151  1  0  0  0
M  ISO  4   1 100  68 101  79 101  80 100
M  END
> <chiral flag>
0

> <version>
0

> <s_m_source_file>
/data/baiqing/PycharmProjects/Reinvent-master-3.2/result/LINK_invent/BTK/process_docking_weight1_custom_sum_contain_oxygen_bond_distance_aromatic_linkinvent_7_9_3/rearranged_h_0011.sdf

> <i_m_source_file_index>
84

> <r_mmod_Potential_Energy-OPLS-2005>
-42.405387878418

> <r_mmod_Stretch_Energy-OPLS-2005>
81.5512237548828

> <r_mmod_Bend_Energy-OPLS-2005>
139.640441894531

> <r_mmod_Torsional_Energy-OPLS-2005>
208.231216430664

> <r_mmod_Improper_Torsional_Energy-OPLS-2005>
4.19159603118896

> <r_mmod_Van_der_Waal_Energy-OPLS-2005>
144.93571472168

> <r_mmod_Electrostatic_Energy-OPLS-2005>
-428.82861328125

> <r_mmod_Solvation_Energy-OPLS-2005>
-243.363372802734

> <b_mmod_Minimization_Converged-OPLS-2005>
0

> <r_mmod_RMS_Derivative-OPLS-2005>
0.97740775346756

$$$$
84
                    3D
 Structure written by MMmdl.
159167  0  0  1  0            999 V2000
  -30.5772  -14.6564   20.5088 C   0  0  0  0  0  0
  -30.4454  -12.4054   19.4527 C   0  0  0  0  0  0
  -29.5119  -12.5027   18.2234 C   0  0  0  0  0  0
  -28.0366  -12.3295   18.6387 C   0  0  0  0  0  0
  -27.6534  -13.2062   19.8593 C   0  0  2  0  0  0
  -28.6922  -13.0514   20.9919 C   0  0  0  0  0  0
  -25.2582  -13.8146   20.5645 C   0  0  0  0  0  0
  -24.1825  -13.0438   20.9157 C   0  0  0  0  0  0
  -24.6358  -11.6902   20.8709 C   0  0  0  0  0  0
  -23.9025  -10.4299   21.0396 C   0  0  0  0  0  0
  -24.3586   -9.4216   21.9168 C   0  0  0  0  0  0
  -23.6269   -8.2245   22.0747 C   0  0  0  0  0  0
  -22.4242   -8.0278   21.3549 C   0  0  0  0  0  0
  -21.9870   -9.0244   20.4653 C   0  0  0  0  0  0
  -22.7189  -10.2130   20.3052 C   0  0  0  0  0  0
  -21.6857   -6.0726   22.5267 C   0  0  0  0  0  0
  -21.4024   -6.5630   23.8199 C   0  0  0  0  0  0
  -21.3655   -5.6790   24.9158 C   0  0  0  0  0  0
  -21.6030   -4.3052   24.7223 C   0  0  0  0  0  0
  -21.8821   -3.8145   23.4344 C   0  0  0  0  0  0
  -21.9194   -4.6949   22.3402 C   0  0  0  0  0  0
  -22.7850  -13.5258   21.1820 C   0  0  0  0  0  0
  -22.1665   -4.2145   21.0979 F   0  0  0  0  0  0
  -21.5625   -3.4533   25.7737 F   0  0  0  0  0  0
  -30.0070  -13.4119   20.4410 N   0  0  0  0  0  0
  -26.2980  -12.9294   20.3260 N   0  0  0  0  0  0
  -25.9281  -11.6467   20.5684 N   0  0  0  0  0  0
  -22.0490  -12.8289   22.0389 N   0  0  0  0  0  0
  -25.4344  -15.1853   20.4069 N   0  0  0  0  0  0
  -31.7136  -14.8659   20.0719 O   0  0  0  0  0  0
  -21.6633   -6.8851   21.4226 O   0  0  0  0  0  0
  -22.3547  -14.5560   20.6642 O   0  0  0  0  0  0
  -24.6257  -31.8604   23.2011 C   0  0  0  0  0  0
  -25.9095  -32.4803   23.8355 C   0  0  1  0  0  0
  -27.2340  -27.3306   20.1468 C   0  0  0  0  0  0
  -25.5918  -33.8603   24.2300 N   0  0  0  0  0  0
  -23.4210  -30.4789   21.5436 C   0  0  2  0  0  0
  -24.8715  -28.9239   20.1212 C   0  0  0  0  0  0
  -22.7476  -29.4624   22.4957 C   0  0  0  0  0  0
  -18.0290  -28.1403   22.8493 C   0  0  0  0  0  0
  -24.1483  -36.7302   23.2635 C   0  0  0  0  0  0
  -25.9563  -30.7996   21.3642 C   0  0  0  0  0  0
  -26.0354  -29.4208   20.7215 C   0  0  0  0  0  0
  -27.2232  -28.6358   20.7195 C   0  0  0  0  0  0
  -26.0528  -26.8697   19.5333 C   0  0  0  0  0  0
  -24.8799  -27.6537   19.5168 C   0  0  0  0  0  0
  -23.6389  -29.8053   20.1616 C   0  0  0  0  0  0
  -25.4102  -36.3100   24.0336 C   0  0  1  0  0  0
  -20.5895  -28.3706   23.1299 C   0  0  2  0  0  0
  -20.6792  -26.9430   22.5427 C   0  0  0  0  0  0
  -19.5765  -26.6398   21.5231 C   0  0  0  0  0  0
  -18.1934  -26.7948   22.1628 C   0  0  0  0  0  0
  -19.1542  -28.8866   23.2891 C   0  0  0  0  0  0
  -18.9468  -30.1466   23.8908 C   0  0  0  0  0  0
  -17.6465  -30.6597   24.0575 C   0  0  0  0  0  0
  -25.9040  -34.9469   23.5120 C   0  0  0  0  0  0
  -16.5362  -29.9101   23.6330 C   0  0  0  0  0  0
  -16.7275  -28.6530   23.0339 C   0  0  0  0  0  0
  -26.4500  -31.6603   25.0712 C   0  0  0  0  0  0
  -25.3765  -31.3745   26.1468 C   0  0  0  0  0  0
  -27.0332  -30.3040   24.6117 C   0  0  0  0  0  0
  -27.6086  -32.4332   25.7461 C   0  0  0  0  0  0
  -27.5583  -37.1786   24.8457 C   0  0  0  0  0  0
  -21.4194  -29.3048   22.3685 N   0  0  0  0  0  0
  -26.4281  -37.3792   23.9427 N   0  0  0  0  0  0
  -24.6866  -31.0621   22.0956 N   0  0  0  0  0  0
  -23.4196  -28.8171   23.3049 O   0  0  0  0  0  0
  -28.3712  -26.5239   20.1269 O   0  0  0  0  0  0
  -26.5596  -34.8935   22.4678 O   0  0  0  0  0  0
  -23.5423  -32.1388   23.7357 O   0  0  0  0  0  0
  -29.7009  -18.0404   21.7658 C   0  0  0  0  0  0
  -29.6764  -17.0769   20.7199 C   0  0  0  0  0  0
  -29.1038  -19.9218   20.2555 C   0  0  0  0  0  0
  -29.3033  -17.5503   19.4308 C   0  0  0  0  0  0
  -29.4192  -19.4221   21.5493 C   0  0  0  0  0  0
  -29.0554  -18.9534   19.2122 C   0  0  0  0  0  0
  -30.4663  -22.7156   21.0734 C   0  0  0  0  0  0
  -28.2025  -16.8209   17.4196 C   0  0  0  0  0  0
  -28.4330  -23.8660   20.0032 C   0  0  0  0  0  0
  -28.3508  -25.2258   20.8291 C   0  0  0  0  0  0
  -28.9761  -22.5377   20.7239 C   0  0  1  0  0  0
  -29.7818  -15.6482   21.0233 N   0  0  0  0  0  0
  -28.7988  -21.2926   19.9181 N   0  0  0  0  0  0
  -29.1532  -16.5852   18.4527 O   0  0  0  0  0  0
  -29.4301  -20.2579   22.6173 F   0  0  0  0  0  0
  -28.7476  -19.4088   17.9704 F   0  0  0  0  0  0
  -31.4853  -12.5502   19.1533 H   0  0  0  0  0  0
  -30.3986  -11.4093   19.8936 H   0  0  0  0  0  0
  -29.7790  -11.7448   17.4854 H   0  0  0  0  0  0
  -29.6456  -13.4662   17.7292 H   0  0  0  0  0  0
  -27.8838  -11.2773   18.8815 H   0  0  0  0  0  0
  -27.3788  -12.5408   17.7954 H   0  0  0  0  0  0
  -27.6770  -14.2395   19.5144 H   0  0  0  0  0  0
  -28.7109  -12.0256   21.3609 H   0  0  0  0  0  0
  -28.4219  -13.6638   21.8524 H   0  0  0  0  0  0
  -25.2736   -9.5699   22.4733 H   0  0  0  0  0  0
  -23.9994   -7.4631   22.7454 H   0  0  0  0  0  0
  -21.0804   -8.8746   19.8961 H   0  0  0  0  0  0
  -22.3629  -10.9659   19.6168 H   0  0  0  0  0  0
  -21.2026   -7.6140   23.9695 H   0  0  0  0  0  0
  -21.1471   -6.0523   25.9059 H   0  0  0  0  0  0
  -22.0604   -2.7607   23.2843 H   0  0  0  0  0  0
  -22.4124  -12.0011   22.4897 H   0  0  0  0  0  0
  -21.1087  -13.1316   22.2534 H   0  0  0  0  0  0
  -24.6679  -15.8406   20.5052 H   0  0  0  0  0  0
  -26.2823  -15.6174   20.0662 H   0  0  0  0  0  0
  -26.7176  -32.5504   23.1124 H   0  0  0  0  0  0
  -25.0102  -33.9747   25.0475 H   0  0  0  0  0  0
  -22.7156  -31.2987   21.3964 H   0  0  0  0  0  0
  -23.3764  -35.9612   23.3277 H   0  0  0  0  0  0
  -24.3584  -36.8942   22.2054 H   0  0  0  0  0  0
  -23.7216  -37.6491   23.6670 H   0  0  0  0  0  0
  -26.0685  -31.5541   20.5840 H   0  0  0  0  0  0
  -26.8438  -30.8684   21.9815 H   0  0  0  0  0  0
  -28.1238  -29.0163   21.1805 H   0  0  0  0  0  0
  -26.0430  -25.8931   19.0700 H   0  0  0  0  0  0
  -23.9877  -27.2689   19.0421 H   0  0  0  0  0  0
  -23.7637  -30.5789   19.4022 H   0  0  0  0  0  0
  -22.7607  -29.2324   19.8587 H   0  0  0  0  0  0
  -25.1276  -36.1950   25.0825 H   0  0  0  0  0  0
  -20.9983  -28.3289   24.1422 H   0  0  0  0  0  0
  -20.5731  -26.2306   23.3620 H   0  0  0  0  0  0
  -21.6656  -26.7479   22.1195 H   0  0  0  0  0  0
  -19.6925  -25.6306   21.1262 H   0  0  0  0  0  0
  -19.6709  -27.3213   20.6765 H   0  0  0  0  0  0
  -17.4214  -26.6713   21.4015 H   0  0  0  0  0  0
  -18.0308  -26.0086   22.9016 H   0  0  0  0  0  0
  -19.7932  -30.7284   24.2286 H   0  0  0  0  0  0
  -17.5015  -31.6270   24.5180 H   0  0  0  0  0  0
  -15.5361  -30.3011   23.7635 H   0  0  0  0  0  0
  -15.8677  -28.0853   22.7040 H   0  0  0  0  0  0
  -24.5891  -30.7146   25.7807 H   0  0  0  0  0  0
  -24.9017  -32.2921   26.4951 H   0  0  0  0  0  0
  -25.8099  -30.8875   27.0210 H   0  0  0  0  0  0
  -26.2866  -29.6789   24.1198 H   0  0  0  0  0  0
  -27.4128  -29.7298   25.4579 H   0  0  0  0  0  0
  -27.8696  -30.4365   23.9251 H   0  0  0  0  0  0
  -27.2706  -33.3614   26.2081 H   0  0  0  0  0  0
  -28.3845  -32.6921   25.0247 H   0  0  0  0  0  0
  -28.0811  -31.8440   26.5330 H   0  0  0  0  0  0
  -28.2586  -38.0099   24.7539 H   0  0  0  0  0  0
  -28.1091  -36.2634   24.6226 H   0  0  0  0  0  0
  -27.2313  -37.1372   25.8862 H   0  0  0  0  0  0
  -20.9376  -29.8758   21.6881 H   0  0  0  0  0  0
  -26.0172  -38.2860   24.1475 H   0  0  0  0  0  0
  -29.9109  -17.7231   22.7774 H   0  0  0  0  0  0
  -30.6066  -23.4090   21.9022 H   0  0  0  0  0  0
  -31.0262  -23.1097   20.2258 H   0  0  0  0  0  0
  -30.9432  -21.7799   21.3636 H   0  0  0  0  0  0
  -27.3099  -17.3361   17.7828 H   0  0  0  0  0  0
  -27.8741  -15.8660   17.0092 H   0  0  0  0  0  0
  -28.6371  -17.3948   16.5997 H   0  0  0  0  0  0
  -29.0579  -24.0510   19.1291 H   0  0  0  0  0  0
  -27.4359  -23.6669   19.6077 H   0  0  0  0  0  0
  -29.2289  -25.2596   21.4745 H   0  0  0  0  0  0
  -27.5067  -25.1806   21.5196 H   0  0  0  0  0  0
  -28.4134  -22.3966   21.6489 H   0  0  0  0  0  0
  -28.9725  -15.2784   21.4968 H   0  0  0  0  0  0
  -28.5164  -21.4198   18.9508 H   0  0  0  0  0  0
  1 25  1  0  0  0
  1 30  2  0  0  0
  1 82  1  0  0  0
  2  3  1  0  0  0
  2 25  1  0  0  0
  2 87  1  0  0  0
  2 88  1  0  0  0
  3  4  1  0  0  0
  3 89  1  0  0  0
  3 90  1  0  0  0
  4  5  1  0  0  0
  4 91  1  0  0  0
  4 92  1  0  0  0
  5  6  1  0  0  0
  5 26  1  0  0  0
  5 93  1  0  0  0
  6 25  1  0  0  0
  6 94  1  0  0  0
  6 95  1  0  0  0
  7  8  2  0  0  0
  7 26  1  0  0  0
  7 29  1  0  0  0
  8  9  1  0  0  0
  8 22  1  0  0  0
  9 10  1  0  0  0
  9 27  2  0  0  0
 10 11  2  0  0  0
 10 15  1  0  0  0
 11 12  1  0  0  0
 11 96  1  0  0  0
 12 13  2  0  0  0
 12 97  1  0  0  0
 13 14  1  0  0  0
 13 31  1  0  0  0
 14 15  2  0  0  0
 14 98  1  0  0  0
 15 99  1  0  0  0
 16 17  2  0  0  0
 16 21  1  0  0  0
 16 31  1  0  0  0
 17 18  1  0  0  0
 17100  1  0  0  0
 18 19  2  0  0  0
 18101  1  0  0  0
 19 20  1  0  0  0
 19 24  1  0  0  0
 20 21  2  0  0  0
 20102  1  0  0  0
 21 23  1  0  0  0
 22 28  1  0  0  0
 22 32  2  0  0  0
 26 27  1  0  0  0
 28103  1  0  0  0
 28104  1  0  0  0
 29105  1  0  0  0
 29106  1  0  0  0
 33 34  1  0  0  0
 33 66  1  0  0  0
 33 70  2  0  0  0
 34 36  1  0  0  0
 34 59  1  0  0  0
 34107  1  0  0  0
 35 44  2  0  0  0
 35 45  1  0  0  0
 35 68  1  0  0  0
 36 56  1  0  0  0
 36108  1  0  0  0
 37 39  1  0  0  0
 37 47  1  0  0  0
 37 66  1  0  0  0
 37109  1  0  0  0
 38 43  2  0  0  0
 38 46  1  0  0  0
 38 47  1  0  0  0
 39 64  1  0  0  0
 39 67  2  0  0  0
 40 52  1  0  0  0
 40 53  2  0  0  0
 40 58  1  0  0  0
 41110  1  0  0  0
 41111  1  0  0  0
 41112  1  0  0  0
 41 48  1  0  0  0
 42 43  1  0  0  0
 42 66  1  0  0  0
 42113  1  0  0  0
 42114  1  0  0  0
 43 44  1  0  0  0
 44115  1  0  0  0
 45 46  2  0  0  0
 45116  1  0  0  0
 46117  1  0  0  0
 47118  1  0  0  0
 47119  1  0  0  0
 48 56  1  0  0  0
 48 65  1  0  0  0
 48120  1  0  0  0
 49 50  1  0  0  0
 49 53  1  0  0  0
 49 64  1  0  0  0
 49121  1  0  0  0
 50 51  1  0  0  0
 50122  1  0  0  0
 50123  1  0  0  0
 51 52  1  0  0  0
 51124  1  0  0  0
 51125  1  0  0  0
 52126  1  0  0  0
 52127  1  0  0  0
 53 54  1  0  0  0
 54 55  2  0  0  0
 54128  1  0  0  0
 55 57  1  0  0  0
 55129  1  0  0  0
 56 69  2  0  0  0
 57 58  2  0  0  0
 57130  1  0  0  0
 58131  1  0  0  0
 59 60  1  0  0  0
 59 61  1  0  0  0
 59 62  1  0  0  0
 60132  1  0  0  0
 60133  1  0  0  0
 60134  1  0  0  0
 61135  1  0  0  0
 61136  1  0  0  0
 61137  1  0  0  0
 62138  1  0  0  0
 62139  1  0  0  0
 62140  1  0  0  0
 63 65  1  0  0  0
 63141  1  0  0  0
 63142  1  0  0  0
 63143  1  0  0  0
 64144  1  0  0  0
 65145  1  0  0  0
 68 80  1  0  0  0
 71 72  2  0  0  0
 71 75  1  0  0  0
 71146  1  0  0  0
 72 74  1  0  0  0
 72 82  1  0  0  0
 73 75  2  0  0  0
 73 76  1  0  0  0
 73 83  1  0  0  0
 74 76  2  0  0  0
 74 84  1  0  0  0
 75 85  1  0  0  0
 76 86  1  0  0  0
 77147  1  0  0  0
 77148  1  0  0  0
 77149  1  0  0  0
 77 81  1  0  0  0
 78 84  1  0  0  0
 78150  1  0  0  0
 78151  1  0  0  0
 78152  1  0  0  0
 79 80  1  0  0  0
 79 81  1  0  0  0
 79153  1  0  0  0
 79154  1  0  0  0
 80155  1  0  0  0
 80156  1  0  0  0
 81 83  1  0  0  0
 81157  1  0  0  0
 82158  1  0  0  0
 83159  1  0  0  0
M  ISO  4   1 100  68 101  80 101  82 100
M  END
> <chiral flag>
0

> <version>
0

> <s_m_source_file>
/data/baiqing/PycharmProjects/Reinvent-master-3.2/result/LINK_invent/BTK/process_docking_weight1_custom_sum_contain_oxygen_bond_distance_aromatic_linkinvent_7_9_3/rearranged_h_0011.sdf

> <i_m_source_file_index>
85

> <r_mmod_Potential_Energy-OPLS-2005>
151.746078491211

> <r_mmod_Stretch_Energy-OPLS-2005>
79.2423934936523

> <r_mmod_Bend_Energy-OPLS-2005>
158.989242553711

> <r_mmod_Torsional_Energy-OPLS-2005>
264.732360839844

> <r_mmod_Improper_Torsional_Energy-OPLS-2005>
5.15562772750854

> <r_mmod_Van_der_Waal_Energy-OPLS-2005>
138.455001831055

> <r_mmod_Electrostatic_Energy-OPLS-2005>
-331.216766357422

> <r_mmod_Solvation_Energy-OPLS-2005>
-212.257736206055

> <b_mmod_Minimization_Converged-OPLS-2005>
0

> <r_mmod_RMS_Derivative-OPLS-2005>
2.89036774635315

$$$$
85
                    3D
 Structure written by MMmdl.
148156  0  0  1  0            999 V2000
  -30.5229  -14.9232   20.4181 C   0  0  0  0  0  0
  -30.4522  -12.5679   19.4857 C   0  0  0  0  0  0
  -29.5227  -12.5332   18.2487 C   0  0  0  0  0  0
  -28.0534  -12.3247   18.6659 C   0  0  0  0  0  0
  -27.6357  -13.2432   19.8441 C   0  0  2  0  0  0
  -28.6845  -13.2333   20.9779 C   0  0  0  0  0  0
  -25.2456  -13.8175   20.5705 C   0  0  0  0  0  0
  -24.1773  -13.0399   20.9199 C   0  0  0  0  0  0
  -24.6405  -11.6897   20.8735 C   0  0  0  0  0  0
  -23.9085  -10.4272   21.0392 C   0  0  0  0  0  0
  -24.3628   -9.4192   21.9179 C   0  0  0  0  0  0
  -23.6291   -8.2235   22.0754 C   0  0  0  0  0  0
  -22.4274   -8.0279   21.3544 C   0  0  0  0  0  0
  -21.9913   -9.0252   20.4647 C   0  0  0  0  0  0
  -22.7251  -10.2121   20.3049 C   0  0  0  0  0  0
  -21.6852   -6.0729   22.5276 C   0  0  0  0  0  0
  -21.4014   -6.5632   23.8209 C   0  0  0  0  0  0
  -21.3661   -5.6786   24.9172 C   0  0  0  0  0  0
  -21.6045   -4.3049   24.7224 C   0  0  0  0  0  0
  -21.8819   -3.8140   23.4346 C   0  0  0  0  0  0
  -21.9192   -4.6956   22.3400 C   0  0  0  0  0  0
  -22.7793  -13.5178   21.1865 C   0  0  0  0  0  0
  -22.1662   -4.2142   21.0978 F   0  0  0  0  0  0
  -21.5629   -3.4535   25.7738 F   0  0  0  0  0  0
  -29.9675  -13.6465   20.3882 N   0  0  0  0  0  0
  -26.2919  -12.9426   20.3274 N   0  0  0  0  0  0
  -25.9344  -11.6552   20.5738 N   0  0  0  0  0  0
  -22.0453  -12.8180   22.0439 N   0  0  0  0  0  0
  -25.3985  -15.1905   20.4184 N   0  0  0  0  0  0
  -31.7200  -15.0470   20.1363 O   0  0  0  0  0  0
  -21.6638   -6.8877   21.4241 O   0  0  0  0  0  0
  -22.3469  -14.5485   20.6719 O   0  0  0  0  0  0
  -24.6439  -31.8448   23.1893 C   0  0  0  0  0  0
  -25.9212  -32.4700   23.8284 C   0  0  1  0  0  0
  -27.2223  -27.1432   20.1398 C   0  0  0  0  0  0
  -25.5958  -33.8506   24.2198 N   0  0  0  0  0  0
  -23.4477  -30.4650   21.5350 C   0  0  2  0  0  0
  -24.8980  -28.8964   20.1096 C   0  0  0  0  0  0
  -22.7575  -29.4549   22.4860 C   0  0  0  0  0  0
  -18.0310  -28.1394   22.8479 C   0  0  0  0  0  0
  -24.1494  -36.7257   23.2643 C   0  0  0  0  0  0
  -26.0046  -30.7195   21.3893 C   0  0  0  0  0  0
  -26.0766  -29.3321   20.7284 C   0  0  0  0  0  0
  -27.2389  -28.4715   20.7288 C   0  0  0  0  0  0
  -26.0152  -26.8130   19.4806 C   0  0  0  0  0  0
  -24.8797  -27.6491   19.4716 C   0  0  0  0  0  0
  -23.6743  -29.7971   20.1537 C   0  0  0  0  0  0
  -25.4126  -36.3034   24.0315 C   0  0  1  0  0  0
  -20.5923  -28.3721   23.1235 C   0  0  2  0  0  0
  -20.6792  -26.9422   22.5404 C   0  0  0  0  0  0
  -19.5763  -26.6377   21.5215 C   0  0  0  0  0  0
  -18.1947  -26.7931   22.1629 C   0  0  0  0  0  0
  -19.1567  -28.8877   23.2848 C   0  0  0  0  0  0
  -18.9481  -30.1472   23.8873 C   0  0  0  0  0  0
  -17.6475  -30.6587   24.0559 C   0  0  0  0  0  0
  -25.9075  -34.9408   23.5066 C   0  0  0  0  0  0
  -16.5367  -29.9078   23.6333 C   0  0  0  0  0  0
  -16.7295  -28.6499   23.0353 C   0  0  0  0  0  0
  -26.4526  -31.6565   25.0726 C   0  0  0  0  0  0
  -25.3704  -31.3764   26.1418 C   0  0  0  0  0  0
  -27.0383  -30.2952   24.6315 C   0  0  0  0  0  0
  -27.6058  -32.4329   25.7509 C   0  0  0  0  0  0
  -27.5573  -37.1795   24.8471 C   0  0  0  0  0  0
  -21.4268  -29.3048   22.3605 N   0  0  0  0  0  0
  -26.4295  -37.3740   23.9396 N   0  0  0  0  0  0
  -24.7183  -31.0306   22.0927 N   0  0  0  0  0  0
  -23.4220  -28.8092   23.3006 O   0  0  0  0  0  0
  -28.2679  -26.1479   20.2098 O   0  0  0  0  0  0
  -26.5660  -34.8903   22.4644 O   0  0  0  0  0  0
  -23.5556  -32.1328   23.7105 O   0  0  0  0  0  0
  -30.2961  -20.0170   20.4256 C   0  0  0  0  0  0
  -30.5838  -18.5770   20.5039 C   0  0  0  0  0  0
  -28.0053  -19.5294   20.1717 C   0  0  0  0  0  0
  -28.9753  -20.5791   20.2571 C   0  0  0  0  0  0
  -29.5783  -17.5427   20.4311 C   0  0  0  0  0  0
  -28.2822  -18.1155   20.2590 C   0  0  0  0  0  0
  -28.9344  -23.3662   20.2880 C   0  0  0  0  0  0
  -27.9293  -24.6471   19.9728 C   0  0  0  0  0  0
  -28.4899  -22.0311   20.1185 N   0  0  0  0  0  0
  -29.6452  -16.0185   20.5765 N   0  0  0  0  0  0
  -30.0846  -23.5963   20.6703 O   0  0  0  0  0  0
  -27.2386  -17.2582   20.1703 F   0  0  0  0  0  0
  -31.4835  -12.7374   19.1725 H   0  0  0  0  0  0
  -30.4493  -11.6058   20.0004 H   0  0  0  0  0  0
  -29.8323  -11.7426   17.5639 H   0  0  0  0  0  0
  -29.6152  -13.4694   17.6962 H   0  0  0  0  0  0
  -27.9392  -11.2796   18.9559 H   0  0  0  0  0  0
  -27.3917  -12.4779   17.8127 H   0  0  0  0  0  0
  -27.6038  -14.2530   19.4341 H   0  0  0  0  0  0
  -28.7633  -12.2428   21.4286 H   0  0  0  0  0  0
  -28.3903  -13.9113   21.7806 H   0  0  0  0  0  0
  -25.2773   -9.5664   22.4755 H   0  0  0  0  0  0
  -23.9994   -7.4627   22.7479 H   0  0  0  0  0  0
  -21.0839   -8.8777   19.8956 H   0  0  0  0  0  0
  -22.3714  -10.9663   19.6160 H   0  0  0  0  0  0
  -21.2007   -7.6141   23.9710 H   0  0  0  0  0  0
  -21.1483   -6.0517   25.9074 H   0  0  0  0  0  0
  -22.0597   -2.7603   23.2849 H   0  0  0  0  0  0
  -22.4080  -11.9853   22.4836 H   0  0  0  0  0  0
  -21.1076  -13.1210   22.2656 H   0  0  0  0  0  0
  -24.6180  -15.8228   20.5520 H   0  0  0  0  0  0
  -26.2437  -15.6829   20.1485 H   0  0  0  0  0  0
  -26.7281  -32.5307   23.1018 H   0  0  0  0  0  0
  -25.0079  -33.9622   25.0327 H   0  0  0  0  0  0
  -22.7503  -31.2911   21.3817 H   0  0  0  0  0  0
  -23.3749  -35.9597   23.3317 H   0  0  0  0  0  0
  -24.3572  -36.8874   22.2054 H   0  0  0  0  0  0
  -23.7264  -37.6465   23.6670 H   0  0  0  0  0  0
  -26.1626  -31.4759   20.6192 H   0  0  0  0  0  0
  -26.8744  -30.7677   22.0330 H   0  0  0  0  0  0
  -28.1348  -28.7996   21.2373 H   0  0  0  0  0  0
  -25.9045  -25.8650   18.9778 H   0  0  0  0  0  0
  -23.9813  -27.3108   18.9740 H   0  0  0  0  0  0
  -23.8102  -30.5729   19.3992 H   0  0  0  0  0  0
  -22.7896  -29.2391   19.8428 H   0  0  0  0  0  0
  -25.1316  -36.1868   25.0809 H   0  0  0  0  0  0
  -21.0022  -28.3313   24.1353 H   0  0  0  0  0  0
  -20.5686  -26.2335   23.3625 H   0  0  0  0  0  0
  -21.6658  -26.7423   22.1202 H   0  0  0  0  0  0
  -19.6920  -25.6283   21.1257 H   0  0  0  0  0  0
  -19.6691  -27.3177   20.6736 H   0  0  0  0  0  0
  -17.4212  -26.6676   21.4036 H   0  0  0  0  0  0
  -18.0343  -26.0079   22.9032 H   0  0  0  0  0  0
  -19.7955  -30.7300   24.2230 H   0  0  0  0  0  0
  -17.5023  -31.6265   24.5165 H   0  0  0  0  0  0
  -15.5365  -30.2969   23.7664 H   0  0  0  0  0  0
  -15.8699  -28.0805   22.7076 H   0  0  0  0  0  0
  -24.5888  -30.7108   25.7740 H   0  0  0  0  0  0
  -24.8889  -32.2949   26.4781 H   0  0  0  0  0  0
  -25.7979  -30.8978   27.0237 H   0  0  0  0  0  0
  -26.3001  -29.6681   24.1303 H   0  0  0  0  0  0
  -27.3961  -29.7250   25.4899 H   0  0  0  0  0  0
  -27.8927  -30.4174   23.9656 H   0  0  0  0  0  0
  -27.2650  -33.3642   26.2044 H   0  0  0  0  0  0
  -28.3889  -32.6872   25.0355 H   0  0  0  0  0  0
  -28.0704  -31.8486   26.5461 H   0  0  0  0  0  0
  -28.2612  -38.0067   24.7470 H   0  0  0  0  0  0
  -28.1046  -36.2597   24.6360 H   0  0  0  0  0  0
  -27.2283  -37.1519   25.8873 H   0  0  0  0  0  0
  -20.9477  -29.8763   21.6786 H   0  0  0  0  0  0
  -26.0164  -38.2818   24.1361 H   0  0  0  0  0  0
  -31.1302  -20.7013   20.4938 H   0  0  0  0  0  0
  -31.6119  -18.2747   20.6419 H   0  0  0  0  0  0
  -26.9705  -19.8057   20.0355 H   0  0  0  0  0  0
  -27.0130  -24.4341   20.5243 H   0  0  0  0  0  0
  -27.6767  -24.5464   18.9172 H   0  0  0  0  0  0
  -27.5204  -22.0610   19.8323 H   0  0  0  0  0  0
  -28.7156  -15.6558   20.7243 H   0  0  0  0  0  0
  1 25  1  0  0  0
  1 30  2  0  0  0
  1 80  1  0  0  0
  2  3  1  0  0  0
  2 25  1  0  0  0
  2 83  1  0  0  0
  2 84  1  0  0  0
  3  4  1  0  0  0
  3 85  1  0  0  0
  3 86  1  0  0  0
  4  5  1  0  0  0
  4 87  1  0  0  0
  4 88  1  0  0  0
  5  6  1  0  0  0
  5 26  1  0  0  0
  5 89  1  0  0  0
  6 25  1  0  0  0
  6 90  1  0  0  0
  6 91  1  0  0  0
  7  8  2  0  0  0
  7 26  1  0  0  0
  7 29  1  0  0  0
  8  9  1  0  0  0
  8 22  1  0  0  0
  9 10  1  0  0  0
  9 27  2  0  0  0
 10 11  2  0  0  0
 10 15  1  0  0  0
 11 12  1  0  0  0
 11 92  1  0  0  0
 12 13  2  0  0  0
 12 93  1  0  0  0
 13 14  1  0  0  0
 13 31  1  0  0  0
 14 15  2  0  0  0
 14 94  1  0  0  0
 15 95  1  0  0  0
 16 17  2  0  0  0
 16 21  1  0  0  0
 16 31  1  0  0  0
 17 18  1  0  0  0
 17 96  1  0  0  0
 18 19  2  0  0  0
 18 97  1  0  0  0
 19 20  1  0  0  0
 19 24  1  0  0  0
 20 21  2  0  0  0
 20 98  1  0  0  0
 21 23  1  0  0  0
 22 28  1  0  0  0
 22 32  2  0  0  0
 26 27  1  0  0  0
 28 99  1  0  0  0
 28100  1  0  0  0
 29101  1  0  0  0
 29102  1  0  0  0
 33 34  1  0  0  0
 33 66  1  0  0  0
 33 70  2  0  0  0
 34 36  1  0  0  0
 34 59  1  0  0  0
 34103  1  0  0  0
 35 44  2  0  0  0
 35 45  1  0  0  0
 35 68  1  0  0  0
 36 56  1  0  0  0
 36104  1  0  0  0
 37 39  1  0  0  0
 37 47  1  0  0  0
 37 66  1  0  0  0
 37105  1  0  0  0
 38 43  2  0  0  0
 38 46  1  0  0  0
 38 47  1  0  0  0
 39 64  1  0  0  0
 39 67  2  0  0  0
 40 52  1  0  0  0
 40 53  2  0  0  0
 40 58  1  0  0  0
 41106  1  0  0  0
 41107  1  0  0  0
 41108  1  0  0  0
 41 48  1  0  0  0
 42 43  1  0  0  0
 42 66  1  0  0  0
 42109  1  0  0  0
 42110  1  0  0  0
 43 44  1  0  0  0
 44111  1  0  0  0
 45 46  2  0  0  0
 45112  1  0  0  0
 46113  1  0  0  0
 47114  1  0  0  0
 47115  1  0  0  0
 48 56  1  0  0  0
 48 65  1  0  0  0
 48116  1  0  0  0
 49 50  1  0  0  0
 49 53  1  0  0  0
 49 64  1  0  0  0
 49117  1  0  0  0
 50 51  1  0  0  0
 50118  1  0  0  0
 50119  1  0  0  0
 51 52  1  0  0  0
 51120  1  0  0  0
 51121  1  0  0  0
 52122  1  0  0  0
 52123  1  0  0  0
 53 54  1  0  0  0
 54 55  2  0  0  0
 54124  1  0  0  0
 55 57  1  0  0  0
 55125  1  0  0  0
 56 69  2  0  0  0
 57 58  2  0  0  0
 57126  1  0  0  0
 58127  1  0  0  0
 59 60  1  0  0  0
 59 61  1  0  0  0
 59 62  1  0  0  0
 60128  1  0  0  0
 60129  1  0  0  0
 60130  1  0  0  0
 61131  1  0  0  0
 61132  1  0  0  0
 61133  1  0  0  0
 62134  1  0  0  0
 62135  1  0  0  0
 62136  1  0  0  0
 63 65  1  0  0  0
 63137  1  0  0  0
 63138  1  0  0  0
 63139  1  0  0  0
 64140  1  0  0  0
 65141  1  0  0  0
 68 78  1  0  0  0
 71 72  2  0  0  0
 71 74  1  0  0  0
 71142  1  0  0  0
 72 75  1  0  0  0
 72143  1  0  0  0
 73 74  2  0  0  0
 73 76  1  0  0  0
 73144  1  0  0  0
 74 79  1  0  0  0
 75 76  2  0  0  0
 75 80  1  0  0  0
 76 82  1  0  0  0
 77 78  1  0  0  0
 77 79  1  0  0  0
 77 81  2  0  0  0
 78145  1  0  0  0
 78146  1  0  0  0
 79147  1  0  0  0
 80148  1  0  0  0
M  ISO  4   1 100  68 101  78 101  80 100
M  END
> <chiral flag>
0

> <version>
0

> <s_m_source_file>
/data/baiqing/PycharmProjects/Reinvent-master-3.2/result/LINK_invent/BTK/process_docking_weight1_custom_sum_contain_oxygen_bond_distance_aromatic_linkinvent_7_9_3/rearranged_h_0011.sdf

> <i_m_source_file_index>
86

> <r_mmod_Potential_Energy-OPLS-2005>
393.216552734375

> <r_mmod_Stretch_Energy-OPLS-2005>
217.871948242188

> <r_mmod_Bend_Energy-OPLS-2005>
284.265167236328

> <r_mmod_Torsional_Energy-OPLS-2005>
220.855941772461

> <r_mmod_Improper_Torsional_Energy-OPLS-2005>
4.66032266616821

> <r_mmod_Van_der_Waal_Energy-OPLS-2005>
131.992782592773

> <r_mmod_Electrostatic_Energy-OPLS-2005>
-408.452697753906

> <r_mmod_Solvation_Energy-OPLS-2005>
-240.841186523438

> <b_mmod_Minimization_Converged-OPLS-2005>
0

> <r_mmod_RMS_Derivative-OPLS-2005>
0.679981827735901

$$$$
86
                    3D
 Structure written by MMmdl.
148156  0  0  1  0            999 V2000
  -30.5204  -14.9199   20.4222 C   0  0  0  0  0  0
  -30.4515  -12.5657   19.4868 C   0  0  0  0  0  0
  -29.5236  -12.5307   18.2487 C   0  0  0  0  0  0
  -28.0538  -12.3214   18.6644 C   0  0  0  0  0  0
  -27.6358  -13.2383   19.8430 C   0  0  2  0  0  0
  -28.6827  -13.2292   20.9784 C   0  0  0  0  0  0
  -25.2489  -13.8181   20.5712 C   0  0  0  0  0  0
  -24.1800  -13.0421   20.9241 C   0  0  0  0  0  0
  -24.6404  -11.6904   20.8754 C   0  0  0  0  0  0
  -23.9080  -10.4284   21.0408 C   0  0  0  0  0  0
  -24.3626   -9.4198   21.9185 C   0  0  0  0  0  0
  -23.6297   -8.2235   22.0755 C   0  0  0  0  0  0
  -22.4278   -8.0277   21.3545 C   0  0  0  0  0  0
  -21.9916   -9.0254   20.4649 C   0  0  0  0  0  0
  -22.7250  -10.2130   20.3057 C   0  0  0  0  0  0
  -21.6851   -6.0737   22.5278 C   0  0  0  0  0  0
  -21.4014   -6.5641   23.8214 C   0  0  0  0  0  0
  -21.3660   -5.6791   24.9176 C   0  0  0  0  0  0
  -21.6043   -4.3055   24.7223 C   0  0  0  0  0  0
  -21.8820   -3.8148   23.4346 C   0  0  0  0  0  0
  -21.9193   -4.6965   22.3403 C   0  0  0  0  0  0
  -22.7820  -13.5206   21.1890 C   0  0  0  0  0  0
  -22.1662   -4.2150   21.0980 F   0  0  0  0  0  0
  -21.5629   -3.4539   25.7736 F   0  0  0  0  0  0
  -29.9649  -13.6441   20.3892 N   0  0  0  0  0  0
  -26.2915  -12.9403   20.3242 N   0  0  0  0  0  0
  -25.9332  -11.6539   20.5729 N   0  0  0  0  0  0
  -22.0461  -12.8197   22.0442 N   0  0  0  0  0  0
  -25.4114  -15.1902   20.4139 N   0  0  0  0  0  0
  -31.7178  -15.0422   20.1410 O   0  0  0  0  0  0
  -21.6639   -6.8879   21.4241 O   0  0  0  0  0  0
  -22.3500  -14.5507   20.6728 O   0  0  0  0  0  0
  -24.6431  -31.8451   23.1896 C   0  0  0  0  0  0
  -25.9206  -32.4699   23.8283 C   0  0  1  0  0  0
  -27.2188  -27.1416   20.1447 C   0  0  0  0  0  0
  -25.5957  -33.8507   24.2196 N   0  0  0  0  0  0
  -23.4468  -30.4657   21.5351 C   0  0  2  0  0  0
  -24.8974  -28.8966   20.1088 C   0  0  0  0  0  0
  -22.7569  -29.4555   22.4859 C   0  0  0  0  0  0
  -18.0306  -28.1397   22.8478 C   0  0  0  0  0  0
  -24.1494  -36.7255   23.2641 C   0  0  0  0  0  0
  -26.0038  -30.7192   21.3905 C   0  0  0  0  0  0
  -26.0752  -29.3319   20.7295 C   0  0  0  0  0  0
  -27.2360  -28.4701   20.7331 C   0  0  0  0  0  0
  -26.0152  -26.8138   19.4783 C   0  0  0  0  0  0
  -24.8803  -27.6505   19.4680 C   0  0  0  0  0  0
  -23.6736  -29.7977   20.1535 C   0  0  0  0  0  0
  -25.4126  -36.3031   24.0313 C   0  0  1  0  0  0
  -20.5922  -28.3723   23.1234 C   0  0  2  0  0  0
  -20.6790  -26.9425   22.5403 C   0  0  0  0  0  0
  -19.5764  -26.6380   21.5214 C   0  0  0  0  0  0
  -18.1946  -26.7932   22.1625 C   0  0  0  0  0  0
  -19.1563  -28.8878   23.2849 C   0  0  0  0  0  0
  -18.9477  -30.1475   23.8873 C   0  0  0  0  0  0
  -17.6473  -30.6592   24.0557 C   0  0  0  0  0  0
  -25.9079  -34.9407   23.5063 C   0  0  0  0  0  0
  -16.5366  -29.9084   23.6335 C   0  0  0  0  0  0
  -16.7290  -28.6504   23.0356 C   0  0  0  0  0  0
  -26.4524  -31.6567   25.0725 C   0  0  0  0  0  0
  -25.3704  -31.3766   26.1417 C   0  0  0  0  0  0
  -27.0384  -30.2955   24.6321 C   0  0  0  0  0  0
  -27.6058  -32.4330   25.7508 C   0  0  0  0  0  0
  -27.5578  -37.1785   24.8463 C   0  0  0  0  0  0
  -21.4261  -29.3050   22.3607 N   0  0  0  0  0  0
  -26.4288  -37.3744   23.9408 N   0  0  0  0  0  0
  -24.7176  -31.0309   22.0932 N   0  0  0  0  0  0
  -23.4213  -28.8097   23.3004 O   0  0  0  0  0  0
  -28.2607  -26.1444   20.2251 O   0  0  0  0  0  0
  -26.5661  -34.8902   22.4641 O   0  0  0  0  0  0
  -23.5549  -32.1327   23.7117 O   0  0  0  0  0  0
  -30.3742  -18.5716   21.0472 C   0  0  0  0  0  0
  -28.3104  -19.5434   19.4964 C   0  0  0  0  0  0
  -29.6173  -17.5396   20.3780 C   0  0  0  0  0  0
  -29.0270  -20.5814   20.1784 C   0  0  0  0  0  0
  -30.1020  -20.0113   20.9566 C   0  0  0  0  0  0
  -28.5751  -18.1237   19.5870 C   0  0  0  0  0  0
  -28.8990  -23.3619   20.3678 C   0  0  0  0  0  0
  -27.9302  -24.6454   19.9634 C   0  0  0  0  0  0
  -28.5429  -22.0341   20.0205 N   0  0  0  0  0  0
  -29.6499  -16.0201   20.5959 N   0  0  0  0  0  0
  -29.9434  -23.5919   20.9810 O   0  0  0  0  0  0
  -30.8881  -20.8451   21.6767 F   0  0  0  0  0  0
  -27.5405  -17.0677   18.6940 Cl  0  0  0  0  0  0
  -31.4837  -12.7359   19.1751 H   0  0  0  0  0  0
  -30.4487  -11.6032   20.0010 H   0  0  0  0  0  0
  -29.8358  -11.7410   17.5638 H   0  0  0  0  0  0
  -29.6165  -13.4680   17.6977 H   0  0  0  0  0  0
  -27.9394  -11.2759   18.9532 H   0  0  0  0  0  0
  -27.3927  -12.4748   17.8108 H   0  0  0  0  0  0
  -27.6078  -14.2465   19.4316 H   0  0  0  0  0  0
  -28.7619  -12.2388   21.4292 H   0  0  0  0  0  0
  -28.3870  -13.9065   21.7810 H   0  0  0  0  0  0
  -25.2772   -9.5671   22.4762 H   0  0  0  0  0  0
  -24.0003   -7.4626   22.7474 H   0  0  0  0  0  0
  -21.0845   -8.8777   19.8956 H   0  0  0  0  0  0
  -22.3711  -10.9672   19.6169 H   0  0  0  0  0  0
  -21.2004   -7.6149   23.9716 H   0  0  0  0  0  0
  -21.1483   -6.0523   25.9077 H   0  0  0  0  0  0
  -22.0598   -2.7610   23.2844 H   0  0  0  0  0  0
  -22.4081  -11.9869   22.4846 H   0  0  0  0  0  0
  -21.1075  -13.1219   22.2640 H   0  0  0  0  0  0
  -24.6243  -15.8231   20.5020 H   0  0  0  0  0  0
  -26.2129  -15.6260   19.9748 H   0  0  0  0  0  0
  -26.7274  -32.5306   23.1016 H   0  0  0  0  0  0
  -25.0077  -33.9628   25.0323 H   0  0  0  0  0  0
  -22.7488  -31.2912   21.3819 H   0  0  0  0  0  0
  -23.3761  -35.9584   23.3290 H   0  0  0  0  0  0
  -24.3577  -36.8901   22.2059 H   0  0  0  0  0  0
  -23.7248  -37.6446   23.6686 H   0  0  0  0  0  0
  -26.1626  -31.4762   20.6213 H   0  0  0  0  0  0
  -26.8728  -30.7664   22.0353 H   0  0  0  0  0  0
  -28.1301  -28.7959   21.2461 H   0  0  0  0  0  0
  -25.9071  -25.8657   18.9743 H   0  0  0  0  0  0
  -23.9823  -27.3132   18.9686 H   0  0  0  0  0  0
  -23.8092  -30.5740   19.3993 H   0  0  0  0  0  0
  -22.7886  -29.2398   19.8415 H   0  0  0  0  0  0
  -25.1319  -36.1857   25.0804 H   0  0  0  0  0  0
  -21.0013  -28.3311   24.1358 H   0  0  0  0  0  0
  -20.5687  -26.2336   23.3625 H   0  0  0  0  0  0
  -21.6655  -26.7433   22.1201 H   0  0  0  0  0  0
  -19.6925  -25.6285   21.1262 H   0  0  0  0  0  0
  -19.6700  -27.3175   20.6734 H   0  0  0  0  0  0
  -17.4215  -26.6675   21.4031 H   0  0  0  0  0  0
  -18.0348  -26.0084   22.9030 H   0  0  0  0  0  0
  -19.7953  -30.7299   24.2228 H   0  0  0  0  0  0
  -17.5025  -31.6270   24.5164 H   0  0  0  0  0  0
  -15.5363  -30.2977   23.7674 H   0  0  0  0  0  0
  -15.8690  -28.0812   22.7084 H   0  0  0  0  0  0
  -24.5887  -30.7113   25.7735 H   0  0  0  0  0  0
  -24.8892  -32.2953   26.4780 H   0  0  0  0  0  0
  -25.7980  -30.8975   27.0235 H   0  0  0  0  0  0
  -26.3006  -29.6679   24.1309 H   0  0  0  0  0  0
  -27.3962  -29.7257   25.4909 H   0  0  0  0  0  0
  -27.8933  -30.4175   23.9664 H   0  0  0  0  0  0
  -27.2650  -33.3641   26.2047 H   0  0  0  0  0  0
  -28.3887  -32.6875   25.0351 H   0  0  0  0  0  0
  -28.0707  -31.8482   26.5456 H   0  0  0  0  0  0
  -28.2587  -38.0087   24.7508 H   0  0  0  0  0  0
  -28.1081  -36.2619   24.6293 H   0  0  0  0  0  0
  -27.2295  -37.1432   25.8864 H   0  0  0  0  0  0
  -20.9470  -29.8755   21.6782 H   0  0  0  0  0  0
  -26.0154  -38.2813   24.1406 H   0  0  0  0  0  0
  -31.1722  -18.2607   21.7043 H   0  0  0  0  0  0
  -27.4796  -19.8367   18.8716 H   0  0  0  0  0  0
  -26.9800  -24.4371   20.4570 H   0  0  0  0  0  0
  -27.7409  -24.5441   18.8946 H   0  0  0  0  0  0
  -27.6810  -22.0689   19.4953 H   0  0  0  0  0  0
  -28.7152  -15.6589   20.7092 H   0  0  0  0  0  0
  1 25  1  0  0  0
  1 30  2  0  0  0
  1 80  1  0  0  0
  2  3  1  0  0  0
  2 25  1  0  0  0
  2 84  1  0  0  0
  2 85  1  0  0  0
  3  4  1  0  0  0
  3 86  1  0  0  0
  3 87  1  0  0  0
  4  5  1  0  0  0
  4 88  1  0  0  0
  4 89  1  0  0  0
  5  6  1  0  0  0
  5 26  1  0  0  0
  5 90  1  0  0  0
  6 25  1  0  0  0
  6 91  1  0  0  0
  6 92  1  0  0  0
  7  8  2  0  0  0
  7 26  1  0  0  0
  7 29  1  0  0  0
  8  9  1  0  0  0
  8 22  1  0  0  0
  9 10  1  0  0  0
  9 27  2  0  0  0
 10 11  2  0  0  0
 10 15  1  0  0  0
 11 12  1  0  0  0
 11 93  1  0  0  0
 12 13  2  0  0  0
 12 94  1  0  0  0
 13 14  1  0  0  0
 13 31  1  0  0  0
 14 15  2  0  0  0
 14 95  1  0  0  0
 15 96  1  0  0  0
 16 17  2  0  0  0
 16 21  1  0  0  0
 16 31  1  0  0  0
 17 18  1  0  0  0
 17 97  1  0  0  0
 18 19  2  0  0  0
 18 98  1  0  0  0
 19 20  1  0  0  0
 19 24  1  0  0  0
 20 21  2  0  0  0
 20 99  1  0  0  0
 21 23  1  0  0  0
 22 28  1  0  0  0
 22 32  2  0  0  0
 26 27  1  0  0  0
 28100  1  0  0  0
 28101  1  0  0  0
 29102  1  0  0  0
 29103  1  0  0  0
 33 34  1  0  0  0
 33 66  1  0  0  0
 33 70  2  0  0  0
 34 36  1  0  0  0
 34 59  1  0  0  0
 34104  1  0  0  0
 35 44  2  0  0  0
 35 45  1  0  0  0
 35 68  1  0  0  0
 36 56  1  0  0  0
 36105  1  0  0  0
 37 39  1  0  0  0
 37 47  1  0  0  0
 37 66  1  0  0  0
 37106  1  0  0  0
 38 43  2  0  0  0
 38 46  1  0  0  0
 38 47  1  0  0  0
 39 64  1  0  0  0
 39 67  2  0  0  0
 40 52  1  0  0  0
 40 53  2  0  0  0
 40 58  1  0  0  0
 41107  1  0  0  0
 41108  1  0  0  0
 41109  1  0  0  0
 41 48  1  0  0  0
 42 43  1  0  0  0
 42 66  1  0  0  0
 42110  1  0  0  0
 42111  1  0  0  0
 43 44  1  0  0  0
 44112  1  0  0  0
 45 46  2  0  0  0
 45113  1  0  0  0
 46114  1  0  0  0
 47115  1  0  0  0
 47116  1  0  0  0
 48 56  1  0  0  0
 48 65  1  0  0  0
 48117  1  0  0  0
 49 50  1  0  0  0
 49 53  1  0  0  0
 49 64  1  0  0  0
 49118  1  0  0  0
 50 51  1  0  0  0
 50119  1  0  0  0
 50120  1  0  0  0
 51 52  1  0  0  0
 51121  1  0  0  0
 51122  1  0  0  0
 52123  1  0  0  0
 52124  1  0  0  0
 53 54  1  0  0  0
 54 55  2  0  0  0
 54125  1  0  0  0
 55 57  1  0  0  0
 55126  1  0  0  0
 56 69  2  0  0  0
 57 58  2  0  0  0
 57127  1  0  0  0
 58128  1  0  0  0
 59 60  1  0  0  0
 59 61  1  0  0  0
 59 62  1  0  0  0
 60129  1  0  0  0
 60130  1  0  0  0
 60131  1  0  0  0
 61132  1  0  0  0
 61133  1  0  0  0
 61134  1  0  0  0
 62135  1  0  0  0
 62136  1  0  0  0
 62137  1  0  0  0
 63 65  1  0  0  0
 63138  1  0  0  0
 63139  1  0  0  0
 63140  1  0  0  0
 64141  1  0  0  0
 65142  1  0  0  0
 68 78  1  0  0  0
 71 73  2  0  0  0
 71 75  1  0  0  0
 71143  1  0  0  0
 72 74  1  0  0  0
 72 76  2  0  0  0
 72144  1  0  0  0
 73 76  1  0  0  0
 73 80  1  0  0  0
 74 75  2  0  0  0
 74 79  1  0  0  0
 75 82  1  0  0  0
 76 83  1  0  0  0
 77 78  1  0  0  0
 77 79  1  0  0  0
 77 81  2  0  0  0
 78145  1  0  0  0
 78146  1  0  0  0
 79147  1  0  0  0
 80148  1  0  0  0
M  ISO  4   1 100  68 101  78 101  80 100
M  END
> <chiral flag>
0

> <version>
0

> <s_m_source_file>
/data/baiqing/PycharmProjects/Reinvent-master-3.2/result/LINK_invent/BTK/process_docking_weight1_custom_sum_contain_oxygen_bond_distance_aromatic_linkinvent_7_9_3/rearranged_h_0011.sdf

> <i_m_source_file_index>
87

> <r_mmod_Potential_Energy-OPLS-2005>
384.859466552734

> <r_mmod_Stretch_Energy-OPLS-2005>
220.520233154297

> <r_mmod_Bend_Energy-OPLS-2005>
267.625915527344

> <r_mmod_Torsional_Energy-OPLS-2005>
240.501495361328

> <r_mmod_Improper_Torsional_Energy-OPLS-2005>
6.81895685195923

> <r_mmod_Van_der_Waal_Energy-OPLS-2005>
126.908294677734

> <r_mmod_Electrostatic_Energy-OPLS-2005>
-404.080993652344

> <r_mmod_Solvation_Energy-OPLS-2005>
-256.457611083984

> <b_mmod_Minimization_Converged-OPLS-2005>
0

> <r_mmod_RMS_Derivative-OPLS-2005>
0.821168065071106

$$$$
87
                    3D
 Structure written by MMmdl.
155163  0  0  1  0            999 V2000
  -30.5560  -15.0260   20.4238 C   0  0  0  0  0  0
  -30.4264  -12.6508   19.4987 C   0  0  0  0  0  0
  -29.5139  -12.5436   18.2563 C   0  0  0  0  0  0
  -28.0506  -12.3211   18.6796 C   0  0  0  0  0  0
  -27.6195  -13.2636   19.8346 C   0  0  2  0  0  0
  -28.6655  -13.3388   20.9669 C   0  0  0  0  0  0
  -25.2412  -13.8245   20.5757 C   0  0  0  0  0  0
  -24.1752  -13.0443   20.9255 C   0  0  0  0  0  0
  -24.6390  -11.6931   20.8784 C   0  0  0  0  0  0
  -23.9080  -10.4289   21.0419 C   0  0  0  0  0  0
  -24.3626   -9.4207   21.9190 C   0  0  0  0  0  0
  -23.6299   -8.2241   22.0759 C   0  0  0  0  0  0
  -22.4284   -8.0275   21.3532 C   0  0  0  0  0  0
  -21.9918   -9.0258   20.4640 C   0  0  0  0  0  0
  -22.7255  -10.2134   20.3062 C   0  0  0  0  0  0
  -21.6862   -6.0742   22.5282 C   0  0  0  0  0  0
  -21.4016   -6.5641   23.8217 C   0  0  0  0  0  0
  -21.3657   -5.6789   24.9173 C   0  0  0  0  0  0
  -21.6053   -4.3054   24.7221 C   0  0  0  0  0  0
  -21.8819   -3.8148   23.4338 C   0  0  0  0  0  0
  -21.9192   -4.6969   22.3398 C   0  0  0  0  0  0
  -22.7764  -13.5201   21.1885 C   0  0  0  0  0  0
  -22.1669   -4.2156   21.0978 F   0  0  0  0  0  0
  -21.5623   -3.4537   25.7731 F   0  0  0  0  0  0
  -29.9197  -13.7785   20.3437 N   0  0  0  0  0  0
  -26.2851  -12.9507   20.3280 N   0  0  0  0  0  0
  -25.9331  -11.6609   20.5763 N   0  0  0  0  0  0
  -22.0419  -12.8190   22.0444 N   0  0  0  0  0  0
  -25.4047  -15.1972   20.4189 N   0  0  0  0  0  0
  -31.7647  -15.0006   20.1671 O   0  0  0  0  0  0
  -21.6643   -6.8879   21.4238 O   0  0  0  0  0  0
  -22.3449  -14.5498   20.6720 O   0  0  0  0  0  0
  -24.6487  -31.8385   23.1831 C   0  0  0  0  0  0
  -25.9230  -32.4674   23.8244 C   0  0  1  0  0  0
  -27.2080  -27.0636   20.1558 C   0  0  0  0  0  0
  -25.5964  -33.8489   24.2170 N   0  0  0  0  0  0
  -23.4550  -30.4564   21.5289 C   0  0  2  0  0  0
  -24.9058  -28.8744   20.1037 C   0  0  0  0  0  0
  -22.7584  -29.4539   22.4843 C   0  0  0  0  0  0
  -18.0327  -28.1377   22.8460 C   0  0  0  0  0  0
  -24.1493  -36.7239   23.2643 C   0  0  0  0  0  0
  -26.0147  -30.6864   21.3975 C   0  0  0  0  0  0
  -26.0820  -29.2903   20.7388 C   0  0  0  0  0  0
  -27.2281  -28.3985   20.7548 C   0  0  0  0  0  0
  -26.0150  -26.7821   19.4525 C   0  0  0  0  0  0
  -24.8908  -27.6371   19.4441 C   0  0  0  0  0  0
  -23.6866  -29.7846   20.1482 C   0  0  0  0  0  0
  -25.4128  -36.3025   24.0313 C   0  0  1  0  0  0
  -20.5934  -28.3733   23.1185 C   0  0  2  0  0  0
  -20.6809  -26.9436   22.5309 C   0  0  0  0  0  0
  -19.5747  -26.6398   21.5170 C   0  0  0  0  0  0
  -18.1966  -26.7918   22.1644 C   0  0  0  0  0  0
  -19.1575  -28.8867   23.2829 C   0  0  0  0  0  0
  -18.9477  -30.1439   23.8888 C   0  0  0  0  0  0
  -17.6468  -30.6541   24.0560 C   0  0  0  0  0  0
  -25.9077  -34.9397   23.5056 C   0  0  0  0  0  0
  -16.5379  -29.9037   23.6310 C   0  0  0  0  0  0
  -16.7312  -28.6468   23.0324 C   0  0  0  0  0  0
  -26.4536  -31.6558   25.0712 C   0  0  0  0  0  0
  -25.3696  -31.3751   26.1386 C   0  0  0  0  0  0
  -27.0414  -30.2946   24.6349 C   0  0  0  0  0  0
  -27.6061  -32.4334   25.7504 C   0  0  0  0  0  0
  -27.5577  -37.1782   24.8472 C   0  0  0  0  0  0
  -21.4276  -29.3059   22.3552 N   0  0  0  0  0  0
  -26.4291  -37.3742   23.9405 N   0  0  0  0  0  0
  -24.7253  -31.0173   22.0911 N   0  0  0  0  0  0
  -23.4185  -28.8135   23.3083 O   0  0  0  0  0  0
  -28.2311  -26.0284   20.2692 O   0  0  0  0  0  0
  -26.5674  -34.8900   22.4642 O   0  0  0  0  0  0
  -23.5597  -32.1297   23.7003 O   0  0  0  0  0  0
  -31.5406  -17.4940   21.8084 C   0  0  0  0  0  0
  -30.8687  -20.1495   21.4320 C   0  0  0  0  0  0
  -30.4008  -17.7051   20.9748 C   0  0  0  0  0  0
  -30.0083  -19.2009   20.8161 C   0  0  0  0  0  0
  -32.3213  -18.4972   22.3911 C   0  0  0  0  0  0
  -31.9921  -19.8292   22.1908 C   0  0  0  0  0  0
  -28.0112  -19.0987   19.4948 C   0  0  0  0  0  0
  -28.6364  -23.0174   20.5326 C   0  0  0  0  0  0
  -28.8805  -21.5271   19.7040 C   0  0  0  0  0  0
  -28.0799  -24.5019   19.8426 C   0  0  0  0  0  0
  -29.8703  -16.3016   20.5478 N   0  0  0  0  0  0
  -28.9084  -20.0005   20.2103 N   0  0  0  0  0  0
  -33.3858  -18.1669   23.1611 F   0  0  0  0  0  0
  -32.7370  -20.8113   22.7496 F   0  0  0  0  0  0
  -31.4580  -12.8017   19.1809 H   0  0  0  0  0  0
  -30.4284  -11.7163   20.0611 H   0  0  0  0  0  0
  -29.8435  -11.7300   17.6078 H   0  0  0  0  0  0
  -29.5898  -13.4588   17.6661 H   0  0  0  0  0  0
  -27.9573  -11.2815   18.9966 H   0  0  0  0  0  0
  -27.3829  -12.4429   17.8256 H   0  0  0  0  0  0
  -27.5657  -14.2583   19.3905 H   0  0  0  0  0  0
  -28.7823  -12.3747   21.4651 H   0  0  0  0  0  0
  -28.3553  -14.0521   21.7322 H   0  0  0  0  0  0
  -25.2763   -9.5683   22.4776 H   0  0  0  0  0  0
  -24.0010   -7.4630   22.7479 H   0  0  0  0  0  0
  -21.0850   -8.8768   19.8943 H   0  0  0  0  0  0
  -22.3705  -10.9672   19.6169 H   0  0  0  0  0  0
  -21.2022   -7.6152   23.9718 H   0  0  0  0  0  0
  -21.1476   -6.0519   25.9072 H   0  0  0  0  0  0
  -22.0598   -2.7614   23.2834 H   0  0  0  0  0  0
  -22.4046  -11.9868   22.4854 H   0  0  0  0  0  0
  -21.1023  -13.1187   22.2629 H   0  0  0  0  0  0
  -24.6304  -15.8427   20.5316 H   0  0  0  0  0  0
  -26.2406  -15.6422   20.0676 H   0  0  0  0  0  0
  -26.7293  -32.5257   23.0956 H   0  0  0  0  0  0
  -25.0089  -33.9594   25.0306 H   0  0  0  0  0  0
  -22.7605  -31.2842   21.3711 H   0  0  0  0  0  0
  -23.3775  -35.9552   23.3294 H   0  0  0  0  0  0
  -24.3566  -36.8888   22.2062 H   0  0  0  0  0  0
  -23.7235  -37.6425   23.6691 H   0  0  0  0  0  0
  -26.1847  -31.4351   20.6214 H   0  0  0  0  0  0
  -26.8795  -30.7322   22.0485 H   0  0  0  0  0  0
  -28.1139  -28.7024   21.2953 H   0  0  0  0  0  0
  -25.9031  -25.8537   18.9147 H   0  0  0  0  0  0
  -23.9992  -27.3218   18.9187 H   0  0  0  0  0  0
  -23.8330  -30.5623   19.3971 H   0  0  0  0  0  0
  -22.7989  -29.2371   19.8292 H   0  0  0  0  0  0
  -25.1322  -36.1843   25.0810 H   0  0  0  0  0  0
  -21.0070  -28.3319   24.1287 H   0  0  0  0  0  0
  -21.6647  -26.7496   22.0998 H   0  0  0  0  0  0
  -20.5789  -26.2317   23.3498 H   0  0  0  0  0  0
  -19.6882  -25.6310   21.1193 H   0  0  0  0  0  0
  -19.6602  -27.3218   20.6709 H   0  0  0  0  0  0
  -17.4217  -26.6617   21.4087 H   0  0  0  0  0  0
  -18.0431  -26.0055   22.9055 H   0  0  0  0  0  0
  -19.7936  -30.7271   24.2266 H   0  0  0  0  0  0
  -17.4984  -31.6206   24.5154 H   0  0  0  0  0  0
  -15.5361  -30.2886   23.7639 H   0  0  0  0  0  0
  -15.8725  -28.0785   22.7026 H   0  0  0  0  0  0
  -24.5899  -30.7081   25.7693 H   0  0  0  0  0  0
  -24.8846  -32.2926   26.4740 H   0  0  0  0  0  0
  -25.7952  -30.8971   27.0219 H   0  0  0  0  0  0
  -26.3046  -29.6654   24.1351 H   0  0  0  0  0  0
  -27.3995  -29.7277   25.4955 H   0  0  0  0  0  0
  -27.8973  -30.4182   23.9708 H   0  0  0  0  0  0
  -27.2673  -33.3674   26.2001 H   0  0  0  0  0  0
  -28.3919  -32.6829   25.0358 H   0  0  0  0  0  0
  -28.0675  -31.8501   26.5486 H   0  0  0  0  0  0
  -28.2595  -38.0079   24.7514 H   0  0  0  0  0  0
  -28.1071  -36.2608   24.6306 H   0  0  0  0  0  0
  -27.2283  -37.1439   25.8871 H   0  0  0  0  0  0
  -20.9532  -29.8595   21.6559 H   0  0  0  0  0  0
  -26.0155  -38.2812   24.1402 H   0  0  0  0  0  0
  -31.8745  -16.5043   22.0719 H   0  0  0  0  0  0
  -30.6701  -21.2065   21.3739 H   0  0  0  0  0  0
  -27.1505  -19.6252   19.0802 H   0  0  0  0  0  0
  -27.6294  -18.3174   20.1533 H   0  0  0  0  0  0
  -28.5365  -18.6165   18.6674 H   0  0  0  0  0  0
  -29.5835  -23.2485   21.0169 H   0  0  0  0  0  0
  -27.9622  -22.8027   21.3615 H   0  0  0  0  0  0
  -29.8085  -21.6487   19.1424 H   0  0  0  0  0  0
  -28.1232  -21.5499   18.9203 H   0  0  0  0  0  0
  -27.0137  -24.3148   19.7450 H   0  0  0  0  0  0
  -28.4495  -24.4957   18.8173 H   0  0  0  0  0  0
  -28.8677  -16.2415   20.4611 H   0  0  0  0  0  0
  1 25  1  0  0  0
  1 30  2  0  0  0
  1 81  1  0  0  0
  2  3  1  0  0  0
  2 25  1  0  0  0
  2 85  1  0  0  0
  2 86  1  0  0  0
  3  4  1  0  0  0
  3 87  1  0  0  0
  3 88  1  0  0  0
  4  5  1  0  0  0
  4 89  1  0  0  0
  4 90  1  0  0  0
  5  6  1  0  0  0
  5 26  1  0  0  0
  5 91  1  0  0  0
  6 25  1  0  0  0
  6 92  1  0  0  0
  6 93  1  0  0  0
  7  8  2  0  0  0
  7 26  1  0  0  0
  7 29  1  0  0  0
  8  9  1  0  0  0
  8 22  1  0  0  0
  9 10  1  0  0  0
  9 27  2  0  0  0
 10 11  2  0  0  0
 10 15  1  0  0  0
 11 12  1  0  0  0
 11 94  1  0  0  0
 12 13  2  0  0  0
 12 95  1  0  0  0
 13 14  1  0  0  0
 13 31  1  0  0  0
 14 15  2  0  0  0
 14 96  1  0  0  0
 15 97  1  0  0  0
 16 17  2  0  0  0
 16 21  1  0  0  0
 16 31  1  0  0  0
 17 18  1  0  0  0
 17 98  1  0  0  0
 18 19  2  0  0  0
 18 99  1  0  0  0
 19 20  1  0  0  0
 19 24  1  0  0  0
 20 21  2  0  0  0
 20100  1  0  0  0
 21 23  1  0  0  0
 22 28  1  0  0  0
 22 32  2  0  0  0
 26 27  1  0  0  0
 28101  1  0  0  0
 28102  1  0  0  0
 29103  1  0  0  0
 29104  1  0  0  0
 33 34  1  0  0  0
 33 66  1  0  0  0
 33 70  2  0  0  0
 34 36  1  0  0  0
 34 59  1  0  0  0
 34105  1  0  0  0
 35 44  2  0  0  0
 35 45  1  0  0  0
 35 68  1  0  0  0
 36 56  1  0  0  0
 36106  1  0  0  0
 37 39  1  0  0  0
 37 47  1  0  0  0
 37 66  1  0  0  0
 37107  1  0  0  0
 38 43  2  0  0  0
 38 46  1  0  0  0
 38 47  1  0  0  0
 39 64  1  0  0  0
 39 67  2  0  0  0
 40 52  1  0  0  0
 40 53  2  0  0  0
 40 58  1  0  0  0
 41108  1  0  0  0
 41109  1  0  0  0
 41110  1  0  0  0
 41 48  1  0  0  0
 42 43  1  0  0  0
 42 66  1  0  0  0
 42111  1  0  0  0
 42112  1  0  0  0
 43 44  1  0  0  0
 44113  1  0  0  0
 45 46  2  0  0  0
 45114  1  0  0  0
 46115  1  0  0  0
 47116  1  0  0  0
 47117  1  0  0  0
 48 56  1  0  0  0
 48 65  1  0  0  0
 48118  1  0  0  0
 49 50  1  0  0  0
 49 53  1  0  0  0
 49 64  1  0  0  0
 49119  1  0  0  0
 50 51  1  0  0  0
 50120  1  0  0  0
 50121  1  0  0  0
 51 52  1  0  0  0
 51122  1  0  0  0
 51123  1  0  0  0
 52124  1  0  0  0
 52125  1  0  0  0
 53 54  1  0  0  0
 54 55  2  0  0  0
 54126  1  0  0  0
 55 57  1  0  0  0
 55127  1  0  0  0
 56 69  2  0  0  0
 57 58  2  0  0  0
 57128  1  0  0  0
 58129  1  0  0  0
 59 60  1  0  0  0
 59 61  1  0  0  0
 59 62  1  0  0  0
 60130  1  0  0  0
 60131  1  0  0  0
 60132  1  0  0  0
 61133  1  0  0  0
 61134  1  0  0  0
 61135  1  0  0  0
 62136  1  0  0  0
 62137  1  0  0  0
 62138  1  0  0  0
 63 65  1  0  0  0
 63139  1  0  0  0
 63140  1  0  0  0
 63141  1  0  0  0
 64142  1  0  0  0
 65143  1  0  0  0
 68 80  1  0  0  0
 71 73  2  0  0  0
 71 75  1  0  0  0
 71144  1  0  0  0
 72 74  2  0  0  0
 72 76  1  0  0  0
 72145  1  0  0  0
 73 74  1  0  0  0
 73 81  1  0  0  0
 74 82  1  0  0  0
 75 76  2  0  0  0
 75 83  1  0  0  0
 76 84  1  0  0  0
 77 82  1  0  0  0
 77146  1  0  0  0
 77147  1  0  0  0
 77148  1  0  0  0
 78 79  1  0  0  0
 78 80  1  0  0  0
 78149  1  0  0  0
 78150  1  0  0  0
 79 82  1  0  0  0
 79151  1  0  0  0
 79152  1  0  0  0
 80153  1  0  0  0
 80154  1  0  0  0
 81155  1  0  0  0
M  ISO  4   1 100  68 101  80 101  81 100
M  END
> <chiral flag>
0

> <version>
0

> <s_m_source_file>
/data/baiqing/PycharmProjects/Reinvent-master-3.2/result/LINK_invent/BTK/process_docking_weight1_custom_sum_contain_oxygen_bond_distance_aromatic_linkinvent_7_9_3/rearranged_h_0011.sdf

> <i_m_source_file_index>
88

> <r_mmod_Potential_Energy-OPLS-2005>
810.533996582031

> <r_mmod_Stretch_Energy-OPLS-2005>
381.166259765625

> <r_mmod_Bend_Energy-OPLS-2005>
404.239898681641

> <r_mmod_Torsional_Energy-OPLS-2005>
221.14387512207

> <r_mmod_Improper_Torsional_Energy-OPLS-2005>
7.48825168609619

> <r_mmod_Van_der_Waal_Energy-OPLS-2005>
152.341873168945

> <r_mmod_Electrostatic_Energy-OPLS-2005>
-386.739074707031

> <r_mmod_Solvation_Energy-OPLS-2005>
-226.201751708984

> <b_mmod_Minimization_Converged-OPLS-2005>
0

> <r_mmod_RMS_Derivative-OPLS-2005>
3.08133864402771

$$$$
88
                    3D
 Structure written by MMmdl.
157165  0  0  1  0            999 V2000
  -30.5203  -15.0373   20.4108 C   0  0  0  0  0  0
  -30.4409  -12.6465   19.5133 C   0  0  0  0  0  0
  -29.5275  -12.5352   18.2717 C   0  0  0  0  0  0
  -28.0739  -12.2764   18.7082 C   0  0  0  0  0  0
  -27.6237  -13.2461   19.8304 C   0  0  2  0  0  0
  -28.6603  -13.3478   20.9689 C   0  0  0  0  0  0
  -25.2476  -13.8210   20.5703 C   0  0  0  0  0  0
  -24.1783  -13.0445   20.9219 C   0  0  0  0  0  0
  -24.6396  -11.6927   20.8778 C   0  0  0  0  0  0
  -23.9072  -10.4305   21.0440 C   0  0  0  0  0  0
  -24.3618   -9.4216   21.9209 C   0  0  0  0  0  0
  -23.6284   -8.2259   22.0771 C   0  0  0  0  0  0
  -22.4271   -8.0305   21.3556 C   0  0  0  0  0  0
  -21.9917   -9.0278   20.4660 C   0  0  0  0  0  0
  -22.7253  -10.2152   20.3083 C   0  0  0  0  0  0
  -21.6849   -6.0766   22.5282 C   0  0  0  0  0  0
  -21.4006   -6.5661   23.8214 C   0  0  0  0  0  0
  -21.3653   -5.6814   24.9174 C   0  0  0  0  0  0
  -21.6031   -4.3071   24.7225 C   0  0  0  0  0  0
  -21.8806   -3.8165   23.4339 C   0  0  0  0  0  0
  -21.9178   -4.6992   22.3399 C   0  0  0  0  0  0
  -22.7817  -13.5250   21.1864 C   0  0  0  0  0  0
  -22.1650   -4.2176   21.0984 F   0  0  0  0  0  0
  -21.5616   -3.4554   25.7733 F   0  0  0  0  0  0
  -29.9258  -13.7701   20.3539 N   0  0  0  0  0  0
  -26.2868  -12.9423   20.3221 N   0  0  0  0  0  0
  -25.9322  -11.6559   20.5746 N   0  0  0  0  0  0
  -22.0456  -12.8265   22.0420 N   0  0  0  0  0  0
  -25.4190  -15.1941   20.4128 N   0  0  0  0  0  0
  -31.7399  -15.0674   20.2076 O   0  0  0  0  0  0
  -21.6635   -6.8912   21.4248 O   0  0  0  0  0  0
  -22.3532  -14.5572   20.6725 O   0  0  0  0  0  0
  -24.6517  -31.8402   23.1855 C   0  0  0  0  0  0
  -25.9252  -32.4685   23.8273 C   0  0  1  0  0  0
  -27.2094  -27.0627   20.1574 C   0  0  0  0  0  0
  -25.5965  -33.8488   24.2189 N   0  0  0  0  0  0
  -23.4585  -30.4598   21.5310 C   0  0  2  0  0  0
  -24.9076  -28.8761   20.1155 C   0  0  0  0  0  0
  -22.7609  -29.4554   22.4836 C   0  0  0  0  0  0
  -18.0353  -28.1370   22.8442 C   0  0  0  0  0  0
  -24.1487  -36.7250   23.2642 C   0  0  0  0  0  0
  -26.0208  -30.6901   21.3958 C   0  0  0  0  0  0
  -26.0897  -29.2924   20.7396 C   0  0  0  0  0  0
  -27.2416  -28.4038   20.7424 C   0  0  0  0  0  0
  -26.0015  -26.7770   19.4815 C   0  0  0  0  0  0
  -24.8802  -27.6339   19.4687 C   0  0  0  0  0  0
  -23.6911  -29.7880   20.1518 C   0  0  0  0  0  0
  -25.4119  -36.3039   24.0325 C   0  0  1  0  0  0
  -20.5941  -28.3762   23.1199 C   0  0  2  0  0  0
  -20.6882  -26.9467   22.5356 C   0  0  0  0  0  0
  -19.5841  -26.6361   21.5193 C   0  0  0  0  0  0
  -18.2039  -26.7892   22.1622 C   0  0  0  0  0  0
  -19.1581  -28.8883   23.2814 C   0  0  0  0  0  0
  -18.9454  -30.1464   23.8861 C   0  0  0  0  0  0
  -17.6439  -30.6551   24.0530 C   0  0  0  0  0  0
  -25.9075  -34.9408   23.5067 C   0  0  0  0  0  0
  -16.5360  -29.9019   23.6265 C   0  0  0  0  0  0
  -16.7324  -28.6434   23.0310 C   0  0  0  0  0  0
  -26.4547  -31.6567   25.0734 C   0  0  0  0  0  0
  -25.3712  -31.3776   26.1415 C   0  0  0  0  0  0
  -27.0419  -30.2962   24.6345 C   0  0  0  0  0  0
  -27.6085  -32.4314   25.7525 C   0  0  0  0  0  0
  -27.5578  -37.1782   24.8468 C   0  0  0  0  0  0
  -21.4293  -29.3134   22.3612 N   0  0  0  0  0  0
  -26.4287  -37.3749   23.9415 N   0  0  0  0  0  0
  -24.7307  -31.0190   22.0923 N   0  0  0  0  0  0
  -23.4216  -28.8065   23.2985 O   0  0  0  0  0  0
  -28.2259  -26.0128   20.2053 O   0  0  0  0  0  0
  -26.5661  -34.8912   22.4649 O   0  0  0  0  0  0
  -23.5608  -32.1313   23.7013 O   0  0  0  0  0  0
  -31.1992  -18.1410   21.2529 C   0  0  0  0  0  0
  -31.4855  -19.4854   21.5777 C   0  0  0  0  0  0
  -30.0072  -17.7701   20.6014 C   0  0  0  0  0  0
  -29.4073  -20.4185   20.5731 C   0  0  0  0  0  0
  -30.6244  -20.5720   21.2890 C   0  0  0  0  0  0
  -29.1455  -18.9565   20.2504 C   0  0  0  0  0  0
  -28.8625  -23.1265   20.2466 C   0  0  0  0  0  0
  -26.4520  -21.4383   18.9039 C   0  0  0  0  0  0
  -26.1824  -22.0439   21.3932 C   0  0  0  0  0  0
  -27.8289  -24.4726   20.3084 C   0  0  0  0  0  0
  -27.0574  -21.3651   20.3228 C   0  0  0  0  0  0
  -29.7327  -16.2451   20.4259 N   0  0  0  0  0  0
  -28.5054  -21.7061   20.3670 N   0  0  0  0  0  0
  -30.0373  -23.4219   20.0161 O   0  0  0  0  0  0
  -30.9774  -21.7731   21.8008 F   0  0  0  0  0  0
  -28.0195  -18.6481   19.5626 F   0  0  0  0  0  0
  -31.4756  -12.8077   19.2054 H   0  0  0  0  0  0
  -30.4410  -11.7120   20.0769 H   0  0  0  0  0  0
  -29.8758  -11.7420   17.6095 H   0  0  0  0  0  0
  -29.5778  -13.4606   17.6957 H   0  0  0  0  0  0
  -28.0260  -11.2504   19.0775 H   0  0  0  0  0  0
  -27.3966  -12.3245   17.8553 H   0  0  0  0  0  0
  -27.5665  -14.2268   19.3560 H   0  0  0  0  0  0
  -28.7681  -12.4007   21.4983 H   0  0  0  0  0  0
  -28.3405  -14.0836   21.7105 H   0  0  0  0  0  0
  -25.2754   -9.5689   22.4797 H   0  0  0  0  0  0
  -23.9972   -7.4667   22.7504 H   0  0  0  0  0  0
  -21.0840   -8.8811   19.8983 H   0  0  0  0  0  0
  -22.3703  -10.9705   19.6205 H   0  0  0  0  0  0
  -21.2010   -7.6174   23.9717 H   0  0  0  0  0  0
  -21.1481   -6.0557   25.9080 H   0  0  0  0  0  0
  -22.0586   -2.7630   23.2830 H   0  0  0  0  0  0
  -22.4026  -11.9904   22.4805 H   0  0  0  0  0  0
  -21.1101  -13.1363   22.2639 H   0  0  0  0  0  0
  -24.6557  -15.8511   20.5321 H   0  0  0  0  0  0
  -26.2659  -15.6313   20.0759 H   0  0  0  0  0  0
  -26.7317  -32.5278   23.1001 H   0  0  0  0  0  0
  -25.0100  -33.9583   25.0330 H   0  0  0  0  0  0
  -22.7649  -31.2877   21.3713 H   0  0  0  0  0  0
  -23.3765  -35.9565   23.3284 H   0  0  0  0  0  0
  -24.3583  -36.8896   22.2061 H   0  0  0  0  0  0
  -23.7203  -37.6431   23.6680 H   0  0  0  0  0  0
  -26.1803  -31.4357   20.6160 H   0  0  0  0  0  0
  -26.8908  -30.7508   22.0371 H   0  0  0  0  0  0
  -28.1371  -28.7190   21.2604 H   0  0  0  0  0  0
  -25.8814  -25.8455   18.9536 H   0  0  0  0  0  0
  -23.9820  -27.3149   18.9591 H   0  0  0  0  0  0
  -23.8400  -30.5632   19.3988 H   0  0  0  0  0  0
  -22.8038  -29.2383   19.8332 H   0  0  0  0  0  0
  -25.1292  -36.1885   25.0816 H   0  0  0  0  0  0
  -20.9998  -28.3349   24.1326 H   0  0  0  0  0  0
  -21.6736  -26.7514   22.1112 H   0  0  0  0  0  0
  -20.5853  -26.2386   23.3596 H   0  0  0  0  0  0
  -19.7038  -25.6250   21.1283 H   0  0  0  0  0  0
  -19.6749  -27.3112   20.6678 H   0  0  0  0  0  0
  -17.4298  -26.6536   21.4070 H   0  0  0  0  0  0
  -18.0506  -26.0081   22.9080 H   0  0  0  0  0  0
  -19.7915  -30.7297   24.2245 H   0  0  0  0  0  0
  -17.4956  -31.6217   24.5161 H   0  0  0  0  0  0
  -15.5341  -30.2896   23.7543 H   0  0  0  0  0  0
  -15.8743  -28.0720   22.7040 H   0  0  0  0  0  0
  -24.5895  -30.7121   25.7735 H   0  0  0  0  0  0
  -24.8892  -32.2969   26.4759 H   0  0  0  0  0  0
  -25.7967  -30.9005   27.0252 H   0  0  0  0  0  0
  -26.3060  -29.6686   24.1308 H   0  0  0  0  0  0
  -27.3989  -29.7256   25.4926 H   0  0  0  0  0  0
  -27.8987  -30.4203   23.9718 H   0  0  0  0  0  0
  -27.2703  -33.3630   26.2075 H   0  0  0  0  0  0
  -28.3934  -32.6842   25.0383 H   0  0  0  0  0  0
  -28.0736  -31.8457   26.5470 H   0  0  0  0  0  0
  -28.2592  -38.0083   24.7522 H   0  0  0  0  0  0
  -28.1072  -36.2611   24.6278 H   0  0  0  0  0  0
  -27.2306  -37.1419   25.8875 H   0  0  0  0  0  0
  -20.9506  -29.8915   21.6841 H   0  0  0  0  0  0
  -26.0163  -38.2829   24.1396 H   0  0  0  0  0  0
  -31.9052  -17.3848   21.5621 H   0  0  0  0  0  0
  -32.3978  -19.6933   22.1184 H   0  0  0  0  0  0
  -25.4733  -20.9565   18.8854 H   0  0  0  0  0  0
  -27.0737  -20.9161   18.1747 H   0  0  0  0  0  0
  -26.3106  -22.4575   18.5498 H   0  0  0  0  0  0
  -25.3787  -21.3741   21.7017 H   0  0  0  0  0  0
  -25.6968  -22.9451   21.0233 H   0  0  0  0  0  0
  -26.7502  -22.2868   22.2927 H   0  0  0  0  0  0
  -27.3312  -24.4198   21.2749 H   0  0  0  0  0  0
  -27.0729  -24.2646   19.5603 H   0  0  0  0  0  0
  -26.9679  -20.3260   20.6232 H   0  0  0  0  0  0
  -28.7487  -16.0405   20.3456 H   0  0  0  0  0  0
  1 25  1  0  0  0
  1 30  2  0  0  0
  1 82  1  0  0  0
  2  3  1  0  0  0
  2 25  1  0  0  0
  2 87  1  0  0  0
  2 88  1  0  0  0
  3  4  1  0  0  0
  3 89  1  0  0  0
  3 90  1  0  0  0
  4  5  1  0  0  0
  4 91  1  0  0  0
  4 92  1  0  0  0
  5  6  1  0  0  0
  5 26  1  0  0  0
  5 93  1  0  0  0
  6 25  1  0  0  0
  6 94  1  0  0  0
  6 95  1  0  0  0
  7  8  2  0  0  0
  7 26  1  0  0  0
  7 29  1  0  0  0
  8  9  1  0  0  0
  8 22  1  0  0  0
  9 10  1  0  0  0
  9 27  2  0  0  0
 10 11  2  0  0  0
 10 15  1  0  0  0
 11 12  1  0  0  0
 11 96  1  0  0  0
 12 13  2  0  0  0
 12 97  1  0  0  0
 13 14  1  0  0  0
 13 31  1  0  0  0
 14 15  2  0  0  0
 14 98  1  0  0  0
 15 99  1  0  0  0
 16 17  2  0  0  0
 16 21  1  0  0  0
 16 31  1  0  0  0
 17 18  1  0  0  0
 17100  1  0  0  0
 18 19  2  0  0  0
 18101  1  0  0  0
 19 20  1  0  0  0
 19 24  1  0  0  0
 20 21  2  0  0  0
 20102  1  0  0  0
 21 23  1  0  0  0
 22 28  1  0  0  0
 22 32  2  0  0  0
 26 27  1  0  0  0
 28103  1  0  0  0
 28104  1  0  0  0
 29105  1  0  0  0
 29106  1  0  0  0
 33 34  1  0  0  0
 33 66  1  0  0  0
 33 70  2  0  0  0
 34 36  1  0  0  0
 34 59  1  0  0  0
 34107  1  0  0  0
 35 44  2  0  0  0
 35 45  1  0  0  0
 35 68  1  0  0  0
 36 56  1  0  0  0
 36108  1  0  0  0
 37 39  1  0  0  0
 37 47  1  0  0  0
 37 66  1  0  0  0
 37109  1  0  0  0
 38 43  2  0  0  0
 38 46  1  0  0  0
 38 47  1  0  0  0
 39 64  1  0  0  0
 39 67  2  0  0  0
 40 52  1  0  0  0
 40 53  2  0  0  0
 40 58  1  0  0  0
 41110  1  0  0  0
 41111  1  0  0  0
 41112  1  0  0  0
 41 48  1  0  0  0
 42 43  1  0  0  0
 42 66  1  0  0  0
 42113  1  0  0  0
 42114  1  0  0  0
 43 44  1  0  0  0
 44115  1  0  0  0
 45 46  2  0  0  0
 45116  1  0  0  0
 46117  1  0  0  0
 47118  1  0  0  0
 47119  1  0  0  0
 48 56  1  0  0  0
 48 65  1  0  0  0
 48120  1  0  0  0
 49 50  1  0  0  0
 49 53  1  0  0  0
 49 64  1  0  0  0
 49121  1  0  0  0
 50 51  1  0  0  0
 50122  1  0  0  0
 50123  1  0  0  0
 51 52  1  0  0  0
 51124  1  0  0  0
 51125  1  0  0  0
 52126  1  0  0  0
 52127  1  0  0  0
 53 54  1  0  0  0
 54 55  2  0  0  0
 54128  1  0  0  0
 55 57  1  0  0  0
 55129  1  0  0  0
 56 69  2  0  0  0
 57 58  2  0  0  0
 57130  1  0  0  0
 58131  1  0  0  0
 59 60  1  0  0  0
 59 61  1  0  0  0
 59 62  1  0  0  0
 60132  1  0  0  0
 60133  1  0  0  0
 60134  1  0  0  0
 61135  1  0  0  0
 61136  1  0  0  0
 61137  1  0  0  0
 62138  1  0  0  0
 62139  1  0  0  0
 62140  1  0  0  0
 63 65  1  0  0  0
 63141  1  0  0  0
 63142  1  0  0  0
 63143  1  0  0  0
 64144  1  0  0  0
 65145  1  0  0  0
 68 80  1  0  0  0
 71 72  2  0  0  0
 71 73  1  0  0  0
 71146  1  0  0  0
 72 75  1  0  0  0
 72147  1  0  0  0
 73 76  2  0  0  0
 73 82  1  0  0  0
 74 75  2  0  0  0
 74 76  1  0  0  0
 74 83  1  0  0  0
 75 85  1  0  0  0
 76 86  1  0  0  0
 77 80  1  0  0  0
 77 83  1  0  0  0
 77 84  2  0  0  0
 78148  1  0  0  0
 78149  1  0  0  0
 78150  1  0  0  0
 78 81  1  0  0  0
 79 81  1  0  0  0
 79151  1  0  0  0
 79152  1  0  0  0
 79153  1  0  0  0
 80154  1  0  0  0
 80155  1  0  0  0
 81 83  1  0  0  0
 81156  1  0  0  0
 82157  1  0  0  0
M  ISO  4   1 100  68 101  80 101  82 100
M  END
> <chiral flag>
0

> <version>
0

> <s_m_source_file>
/data/baiqing/PycharmProjects/Reinvent-master-3.2/result/LINK_invent/BTK/process_docking_weight1_custom_sum_contain_oxygen_bond_distance_aromatic_linkinvent_7_9_3/rearranged_h_0011.sdf

> <i_m_source_file_index>
89

> <r_mmod_Potential_Energy-OPLS-2005>
744.365356445312

> <r_mmod_Stretch_Energy-OPLS-2005>
363.990081787109

> <r_mmod_Bend_Energy-OPLS-2005>
285.831451416016

> <r_mmod_Torsional_Energy-OPLS-2005>
268.507537841797

> <r_mmod_Improper_Torsional_Energy-OPLS-2005>
7.10195112228394

> <r_mmod_Van_der_Waal_Energy-OPLS-2005>
146.464660644531

> <r_mmod_Electrostatic_Energy-OPLS-2005>
-371.319610595703

> <r_mmod_Solvation_Energy-OPLS-2005>
-223.643981933594

> <b_mmod_Minimization_Converged-OPLS-2005>
0

> <r_mmod_RMS_Derivative-OPLS-2005>
2.80996775627136

$$$$
89
                    3D
 Structure written by MMmdl.
157165  0  0  1  0            999 V2000
  -30.5966  -14.7252   20.4546 C   0  0  0  0  0  0
  -30.4394  -12.4306   19.4901 C   0  0  0  0  0  0
  -29.5208  -12.4714   18.2475 C   0  0  0  0  0  0
  -28.0377  -12.3390   18.6481 C   0  0  0  0  0  0
  -27.6485  -13.2306   19.8585 C   0  0  2  0  0  0
  -28.6883  -13.1387   20.9974 C   0  0  0  0  0  0
  -25.2498  -13.8192   20.5623 C   0  0  0  0  0  0
  -24.1789  -13.0440   20.9172 C   0  0  0  0  0  0
  -24.6396  -11.6922   20.8758 C   0  0  0  0  0  0
  -23.9089  -10.4291   21.0424 C   0  0  0  0  0  0
  -24.3629   -9.4193   21.9198 C   0  0  0  0  0  0
  -23.6288   -8.2234   22.0762 C   0  0  0  0  0  0
  -22.4272   -8.0280   21.3551 C   0  0  0  0  0  0
  -21.9915   -9.0268   20.4662 C   0  0  0  0  0  0
  -22.7266  -10.2134   20.3072 C   0  0  0  0  0  0
  -21.6845   -6.0726   22.5275 C   0  0  0  0  0  0
  -21.4016   -6.5633   23.8207 C   0  0  0  0  0  0
  -21.3656   -5.6790   24.9177 C   0  0  0  0  0  0
  -21.6043   -4.3051   24.7227 C   0  0  0  0  0  0
  -21.8821   -3.8141   23.4351 C   0  0  0  0  0  0
  -21.9185   -4.6953   22.3400 C   0  0  0  0  0  0
  -22.7813  -13.5224   21.1848 C   0  0  0  0  0  0
  -22.1652   -4.2145   21.0978 F   0  0  0  0  0  0
  -21.5630   -3.4537   25.7738 F   0  0  0  0  0  0
  -29.9964  -13.4878   20.4276 N   0  0  0  0  0  0
  -26.2963  -12.9416   20.3306 N   0  0  0  0  0  0
  -25.9330  -11.6562   20.5781 N   0  0  0  0  0  0
  -22.0471  -12.8219   22.0419 N   0  0  0  0  0  0
  -25.4135  -15.1905   20.3901 N   0  0  0  0  0  0
  -31.7668  -14.8524   20.0826 O   0  0  0  0  0  0
  -21.6645   -6.8870   21.4234 O   0  0  0  0  0  0
  -22.3492  -14.5533   20.6688 O   0  0  0  0  0  0
  -24.6295  -31.8573   23.2022 C   0  0  0  0  0  0
  -25.9140  -32.4759   23.8346 C   0  0  1  0  0  0
  -27.2116  -27.2781   20.1254 C   0  0  0  0  0  0
  -25.5954  -33.8565   24.2261 N   0  0  0  0  0  0
  -23.4239  -30.4829   21.5439 C   0  0  2  0  0  0
  -24.8714  -28.9419   20.1060 C   0  0  0  0  0  0
  -22.7501  -29.4591   22.4899 C   0  0  0  0  0  0
  -18.0292  -28.1393   22.8475 C   0  0  0  0  0  0
  -24.1496  -36.7290   23.2628 C   0  0  0  0  0  0
  -25.9701  -30.7778   21.3812 C   0  0  0  0  0  0
  -26.0423  -29.4033   20.7206 C   0  0  0  0  0  0
  -27.2154  -28.5836   20.7218 C   0  0  0  0  0  0
  -26.0183  -26.8932   19.4688 C   0  0  0  0  0  0
  -24.8641  -27.6953   19.4685 C   0  0  0  0  0  0
  -23.6428  -29.8268   20.1563 C   0  0  0  0  0  0
  -25.4115  -36.3057   24.0310 C   0  0  1  0  0  0
  -20.5898  -28.3693   23.1281 C   0  0  2  0  0  0
  -20.6788  -26.9414   22.5413 C   0  0  0  0  0  0
  -19.5759  -26.6385   21.5221 C   0  0  0  0  0  0
  -18.1936  -26.7932   22.1620 C   0  0  0  0  0  0
  -19.1542  -28.8862   23.2872 C   0  0  0  0  0  0
  -18.9462  -30.1462   23.8889 C   0  0  0  0  0  0
  -17.6460  -30.6584   24.0573 C   0  0  0  0  0  0
  -25.9061  -34.9434   23.5079 C   0  0  0  0  0  0
  -16.5354  -29.9077   23.6339 C   0  0  0  0  0  0
  -16.7275  -28.6505   23.0337 C   0  0  0  0  0  0
  -26.4510  -31.6579   25.0733 C   0  0  0  0  0  0
  -25.3737  -31.3761   26.1458 C   0  0  0  0  0  0
  -27.0359  -30.2983   24.6236 C   0  0  0  0  0  0
  -27.6051  -32.4317   25.7528 C   0  0  0  0  0  0
  -27.5578  -37.1787   24.8435 C   0  0  0  0  0  0
  -21.4208  -29.3030   22.3659 N   0  0  0  0  0  0
  -26.4267  -37.3770   23.9416 N   0  0  0  0  0  0
  -24.6931  -31.0566   22.0986 N   0  0  0  0  0  0
  -23.4227  -28.8114   23.2968 O   0  0  0  0  0  0
  -28.2949  -26.3723   20.2044 O   0  0  0  0  0  0
  -26.5618  -34.8900   22.4641 O   0  0  0  0  0  0
  -23.5449  -32.1384   23.7333 O   0  0  0  0  0  0
  -29.3524  -19.6582   18.6959 C   0  0  0  0  0  0
  -29.4110  -18.4362   18.0026 C   0  0  0  0  0  0
  -29.6412  -18.4310   20.7704 C   0  0  0  0  0  0
  -29.4438  -19.7177   20.1027 C   0  0  0  0  0  0
  -29.5732  -17.2076   18.6692 C   0  0  0  0  0  0
  -29.7342  -17.1517   20.0795 C   0  0  0  0  0  0
  -29.7121  -21.0249   22.1593 C   0  0  0  0  0  0
  -28.9903  -23.7321   20.5037 C   0  0  0  0  0  0
  -28.5501  -22.1999   20.2104 C   0  0  0  0  0  0
  -28.0101  -24.9116   20.0076 C   0  0  0  0  0  0
  -29.5039  -16.0555   17.8921 N   0  0  0  0  0  0
  -29.8122  -15.8268   20.7469 N   0  0  0  0  0  0
  -29.3727  -21.0290   20.7377 N   0  0  0  0  0  0
  -31.4829  -12.5522   19.1936 H   0  0  0  0  0  0
  -30.3842  -11.4571   19.9779 H   0  0  0  0  0  0
  -29.7884  -11.6643   17.5628 H   0  0  0  0  0  0
  -29.6773  -13.3914   17.6885 H   0  0  0  0  0  0
  -27.8610  -11.2919   18.8935 H   0  0  0  0  0  0
  -27.3987  -12.5651   17.7945 H   0  0  0  0  0  0
  -27.6501  -14.2583   19.4928 H   0  0  0  0  0  0
  -28.7129  -12.1324   21.4170 H   0  0  0  0  0  0
  -28.4254  -13.8040   21.8210 H   0  0  0  0  0  0
  -25.2772   -9.5658   22.4774 H   0  0  0  0  0  0
  -23.9995   -7.4614   22.7470 H   0  0  0  0  0  0
  -21.0847   -8.8809   19.8951 H   0  0  0  0  0  0
  -22.3747  -10.9677   19.6180 H   0  0  0  0  0  0
  -21.2020   -7.6136   23.9713 H   0  0  0  0  0  0
  -21.1472   -6.0519   25.9081 H   0  0  0  0  0  0
  -22.0603   -2.7601   23.2858 H   0  0  0  0  0  0
  -22.4110  -11.9908   22.4821 H   0  0  0  0  0  0
  -21.1102  -13.1253   22.2663 H   0  0  0  0  0  0
  -24.6156  -15.8174   20.3994 H   0  0  0  0  0  0
  -26.2485  -15.6214   20.0115 H   0  0  0  0  0  0
  -26.7207  -32.5409   23.1089 H   0  0  0  0  0  0
  -25.0140  -33.9717   25.0427 H   0  0  0  0  0  0
  -22.7159  -31.3031   21.4033 H   0  0  0  0  0  0
  -23.3751  -35.9621   23.3234 H   0  0  0  0  0  0
  -24.3602  -36.8980   22.2054 H   0  0  0  0  0  0
  -23.7251  -37.6470   23.6705 H   0  0  0  0  0  0
  -26.1086  -31.5421   20.6151 H   0  0  0  0  0  0
  -26.8478  -30.8241   22.0152 H   0  0  0  0  0  0
  -28.1072  -28.9283   21.2266 H   0  0  0  0  0  0
  -25.9380  -25.9461   18.9587 H   0  0  0  0  0  0
  -23.9703  -27.3411   18.9742 H   0  0  0  0  0  0
  -23.7712  -30.6080   19.4062 H   0  0  0  0  0  0
  -22.7613  -29.2635   19.8450 H   0  0  0  0  0  0
  -25.1287  -36.1885   25.0794 H   0  0  0  0  0  0
  -20.9982  -28.3280   24.1407 H   0  0  0  0  0  0
  -20.5725  -26.2291   23.3610 H   0  0  0  0  0  0
  -21.6654  -26.7461   22.1186 H   0  0  0  0  0  0
  -19.6923  -25.6302   21.1239 H   0  0  0  0  0  0
  -19.6697  -27.3206   20.6761 H   0  0  0  0  0  0
  -17.4212  -26.6678   21.4019 H   0  0  0  0  0  0
  -18.0320  -26.0084   22.9022 H   0  0  0  0  0  0
  -19.7944  -30.7286   24.2246 H   0  0  0  0  0  0
  -17.5013  -31.6260   24.5184 H   0  0  0  0  0  0
  -15.5355  -30.2968   23.7679 H   0  0  0  0  0  0
  -15.8674  -28.0830   22.7037 H   0  0  0  0  0  0
  -24.5858  -30.7172   25.7789 H   0  0  0  0  0  0
  -24.9009  -32.2965   26.4891 H   0  0  0  0  0  0
  -25.8043  -30.8911   27.0228 H   0  0  0  0  0  0
  -26.2959  -29.6721   24.1237 H   0  0  0  0  0  0
  -27.4000  -29.7249   25.4773 H   0  0  0  0  0  0
  -27.8850  -30.4223   23.9510 H   0  0  0  0  0  0
  -27.2632  -33.3599   26.2115 H   0  0  0  0  0  0
  -28.3882  -32.6904   25.0391 H   0  0  0  0  0  0
  -28.0697  -31.8443   26.5459 H   0  0  0  0  0  0
  -28.2517  -38.0157   24.7566 H   0  0  0  0  0  0
  -28.1150  -36.2692   24.6141 H   0  0  0  0  0  0
  -27.2319  -37.1288   25.8838 H   0  0  0  0  0  0
  -20.9388  -29.8770   21.6882 H   0  0  0  0  0  0
  -26.0124  -38.2817   24.1485 H   0  0  0  0  0  0
  -29.2408  -20.5505   18.1025 H   0  0  0  0  0  0
  -29.3035  -18.4563   16.9267 H   0  0  0  0  0  0
  -29.7135  -18.4038   21.8463 H   0  0  0  0  0  0
  -28.9528  -20.5037   22.7440 H   0  0  0  0  0  0
  -29.8102  -22.0317   22.5625 H   0  0  0  0  0  0
  -30.6696  -20.5294   22.3254 H   0  0  0  0  0  0
  -29.9738  -23.9029   20.0683 H   0  0  0  0  0  0
  -29.1145  -23.8639   21.5767 H   0  0  0  0  0  0
  -28.4245  -22.1157   19.1329 H   0  0  0  0  0  0
  -27.5422  -22.0671   20.6072 H   0  0  0  0  0  0
  -27.0512  -24.6980   20.4831 H   0  0  0  0  0  0
  -27.8526  -24.7670   18.9383 H   0  0  0  0  0  0
  -29.6291  -16.1459   16.8892 H   0  0  0  0  0  0
  -29.8770  -15.1929   18.2621 H   0  0  0  0  0  0
  -28.9730  -15.5837   21.2508 H   0  0  0  0  0  0
  1 25  1  0  0  0
  1 30  2  0  0  0
  1 82  1  0  0  0
  2  3  1  0  0  0
  2 25  1  0  0  0
  2 84  1  0  0  0
  2 85  1  0  0  0
  3  4  1  0  0  0
  3 86  1  0  0  0
  3 87  1  0  0  0
  4  5  1  0  0  0
  4 88  1  0  0  0
  4 89  1  0  0  0
  5  6  1  0  0  0
  5 26  1  0  0  0
  5 90  1  0  0  0
  6 25  1  0  0  0
  6 91  1  0  0  0
  6 92  1  0  0  0
  7  8  2  0  0  0
  7 26  1  0  0  0
  7 29  1  0  0  0
  8  9  1  0  0  0
  8 22  1  0  0  0
  9 10  1  0  0  0
  9 27  2  0  0  0
 10 11  2  0  0  0
 10 15  1  0  0  0
 11 12  1  0  0  0
 11 93  1  0  0  0
 12 13  2  0  0  0
 12 94  1  0  0  0
 13 14  1  0  0  0
 13 31  1  0  0  0
 14 15  2  0  0  0
 14 95  1  0  0  0
 15 96  1  0  0  0
 16 17  2  0  0  0
 16 21  1  0  0  0
 16 31  1  0  0  0
 17 18  1  0  0  0
 17 97  1  0  0  0
 18 19  2  0  0  0
 18 98  1  0  0  0
 19 20  1  0  0  0
 19 24  1  0  0  0
 20 21  2  0  0  0
 20 99  1  0  0  0
 21 23  1  0  0  0
 22 28  1  0  0  0
 22 32  2  0  0  0
 26 27  1  0  0  0
 28100  1  0  0  0
 28101  1  0  0  0
 29102  1  0  0  0
 29103  1  0  0  0
 33 34  1  0  0  0
 33 66  1  0  0  0
 33 70  2  0  0  0
 34 36  1  0  0  0
 34 59  1  0  0  0
 34104  1  0  0  0
 35 44  2  0  0  0
 35 45  1  0  0  0
 35 68  1  0  0  0
 36 56  1  0  0  0
 36105  1  0  0  0
 37 39  1  0  0  0
 37 47  1  0  0  0
 37 66  1  0  0  0
 37106  1  0  0  0
 38 43  2  0  0  0
 38 46  1  0  0  0
 38 47  1  0  0  0
 39 64  1  0  0  0
 39 67  2  0  0  0
 40 52  1  0  0  0
 40 53  2  0  0  0
 40 58  1  0  0  0
 41107  1  0  0  0
 41108  1  0  0  0
 41109  1  0  0  0
 41 48  1  0  0  0
 42 43  1  0  0  0
 42 66  1  0  0  0
 42110  1  0  0  0
 42111  1  0  0  0
 43 44  1  0  0  0
 44112  1  0  0  0
 45 46  2  0  0  0
 45113  1  0  0  0
 46114  1  0  0  0
 47115  1  0  0  0
 47116  1  0  0  0
 48 56  1  0  0  0
 48 65  1  0  0  0
 48117  1  0  0  0
 49 50  1  0  0  0
 49 53  1  0  0  0
 49 64  1  0  0  0
 49118  1  0  0  0
 50 51  1  0  0  0
 50119  1  0  0  0
 50120  1  0  0  0
 51 52  1  0  0  0
 51121  1  0  0  0
 51122  1  0  0  0
 52123  1  0  0  0
 52124  1  0  0  0
 53 54  1  0  0  0
 54 55  2  0  0  0
 54125  1  0  0  0
 55 57  1  0  0  0
 55126  1  0  0  0
 56 69  2  0  0  0
 57 58  2  0  0  0
 57127  1  0  0  0
 58128  1  0  0  0
 59 60  1  0  0  0
 59 61  1  0  0  0
 59 62  1  0  0  0
 60129  1  0  0  0
 60130  1  0  0  0
 60131  1  0  0  0
 61132  1  0  0  0
 61133  1  0  0  0
 61134  1  0  0  0
 62135  1  0  0  0
 62136  1  0  0  0
 62137  1  0  0  0
 63 65  1  0  0  0
 63138  1  0  0  0
 63139  1  0  0  0
 63140  1  0  0  0
 64141  1  0  0  0
 65142  1  0  0  0
 68 80  1  0  0  0
 71 72  2  0  0  0
 71 74  1  0  0  0
 71143  1  0  0  0
 72 75  1  0  0  0
 72144  1  0  0  0
 73 74  2  0  0  0
 73 76  1  0  0  0
 73145  1  0  0  0
 74 83  1  0  0  0
 75 76  2  0  0  0
 75 81  1  0  0  0
 76 82  1  0  0  0
 77 83  1  0  0  0
 77146  1  0  0  0
 77147  1  0  0  0
 77148  1  0  0  0
 78 79  1  0  0  0
 78 80  1  0  0  0
 78149  1  0  0  0
 78150  1  0  0  0
 79 83  1  0  0  0
 79151  1  0  0  0
 79152  1  0  0  0
 80153  1  0  0  0
 80154  1  0  0  0
 81155  1  0  0  0
 81156  1  0  0  0
 82157  1  0  0  0
M  ISO  4   1 100  68 101  80 101  82 100
M  END
> <chiral flag>
0

> <version>
0

> <s_m_source_file>
/data/baiqing/PycharmProjects/Reinvent-master-3.2/result/LINK_invent/BTK/process_docking_weight1_custom_sum_contain_oxygen_bond_distance_aromatic_linkinvent_7_9_3/rearranged_h_0011.sdf

> <i_m_source_file_index>
90

> <r_mmod_Potential_Energy-OPLS-2005>
56.1405296325684

> <r_mmod_Stretch_Energy-OPLS-2005>
119.00821685791

> <r_mmod_Bend_Energy-OPLS-2005>
164.146057128906

> <r_mmod_Torsional_Energy-OPLS-2005>
240.157989501953

> <r_mmod_Improper_Torsional_Energy-OPLS-2005>
10.599401473999

> <r_mmod_Van_der_Waal_Energy-OPLS-2005>
153.749816894531

> <r_mmod_Electrostatic_Energy-OPLS-2005>
-479.318054199219

> <r_mmod_Solvation_Energy-OPLS-2005>
-231.727325439453

> <b_mmod_Minimization_Converged-OPLS-2005>
0

> <r_mmod_RMS_Derivative-OPLS-2005>
2.34245109558105

$$$$
90
                    3D
 Structure written by MMmdl.
148156  0  0  1  0            999 V2000
  -30.5122  -14.9218   20.4210 C   0  0  0  0  0  0
  -30.4531  -12.5665   19.4870 C   0  0  0  0  0  0
  -29.5248  -12.5329   18.2489 C   0  0  0  0  0  0
  -28.0554  -12.3215   18.6638 C   0  0  0  0  0  0
  -27.6372  -13.2379   19.8425 C   0  0  2  0  0  0
  -28.6832  -13.2237   20.9788 C   0  0  0  0  0  0
  -25.2494  -13.8187   20.5681 C   0  0  0  0  0  0
  -24.1803  -13.0433   20.9229 C   0  0  0  0  0  0
  -24.6403  -11.6915   20.8752 C   0  0  0  0  0  0
  -23.9077  -10.4290   21.0406 C   0  0  0  0  0  0
  -24.3623   -9.4205   21.9184 C   0  0  0  0  0  0
  -23.6292   -8.2244   22.0754 C   0  0  0  0  0  0
  -22.4273   -8.0285   21.3544 C   0  0  0  0  0  0
  -21.9912   -9.0261   20.4649 C   0  0  0  0  0  0
  -22.7246  -10.2135   20.3058 C   0  0  0  0  0  0
  -21.6854   -6.0731   22.5275 C   0  0  0  0  0  0
  -21.4015   -6.5633   23.8208 C   0  0  0  0  0  0
  -21.3662   -5.6786   24.9171 C   0  0  0  0  0  0
  -21.6044   -4.3049   24.7222 C   0  0  0  0  0  0
  -21.8820   -3.8140   23.4345 C   0  0  0  0  0  0
  -21.9192   -4.6957   22.3399 C   0  0  0  0  0  0
  -22.7822  -13.5216   21.1875 C   0  0  0  0  0  0
  -22.1662   -4.2142   21.0977 F   0  0  0  0  0  0
  -21.5629   -3.4536   25.7739 F   0  0  0  0  0  0
  -29.9663  -13.6413   20.3934 N   0  0  0  0  0  0
  -26.2920  -12.9402   20.3233 N   0  0  0  0  0  0
  -25.9333  -11.6544   20.5726 N   0  0  0  0  0  0
  -22.0461  -12.8217   22.0433 N   0  0  0  0  0  0
  -25.4154  -15.1905   20.4032 N   0  0  0  0  0  0
  -31.7048  -15.0554   20.1240 O   0  0  0  0  0  0
  -21.6639   -6.8880   21.4240 O   0  0  0  0  0  0
  -22.3514  -14.5518   20.6710 O   0  0  0  0  0  0
  -24.6443  -31.8448   23.1896 C   0  0  0  0  0  0
  -25.9216  -32.4698   23.8287 C   0  0  1  0  0  0
  -27.2194  -27.1412   20.1396 C   0  0  0  0  0  0
  -25.5963  -33.8505   24.2200 N   0  0  0  0  0  0
  -23.4478  -30.4658   21.5355 C   0  0  2  0  0  0
  -24.8972  -28.8971   20.1102 C   0  0  0  0  0  0
  -22.7577  -29.4550   22.4860 C   0  0  0  0  0  0
  -18.0311  -28.1393   22.8478 C   0  0  0  0  0  0
  -24.1495  -36.7256   23.2642 C   0  0  0  0  0  0
  -26.0052  -30.7192   21.3896 C   0  0  0  0  0  0
  -26.0767  -29.3319   20.7282 C   0  0  0  0  0  0
  -27.2386  -28.4703   20.7274 C   0  0  0  0  0  0
  -26.0107  -26.8123   19.4826 C   0  0  0  0  0  0
  -24.8768  -27.6494   19.4737 C   0  0  0  0  0  0
  -23.6743  -29.7989   20.1540 C   0  0  0  0  0  0
  -25.4127  -36.3034   24.0315 C   0  0  1  0  0  0
  -20.5925  -28.3720   23.1235 C   0  0  2  0  0  0
  -20.6794  -26.9423   22.5404 C   0  0  0  0  0  0
  -19.5763  -26.6377   21.5215 C   0  0  0  0  0  0
  -18.1947  -26.7930   22.1628 C   0  0  0  0  0  0
  -19.1569  -28.8877   23.2847 C   0  0  0  0  0  0
  -18.9480  -30.1472   23.8872 C   0  0  0  0  0  0
  -17.6474  -30.6587   24.0560 C   0  0  0  0  0  0
  -25.9076  -34.9406   23.5066 C   0  0  0  0  0  0
  -16.5368  -29.9079   23.6333 C   0  0  0  0  0  0
  -16.7296  -28.6499   23.0353 C   0  0  0  0  0  0
  -26.4529  -31.6564   25.0728 C   0  0  0  0  0  0
  -25.3706  -31.3765   26.1420 C   0  0  0  0  0  0
  -27.0385  -30.2951   24.6320 C   0  0  0  0  0  0
  -27.6061  -32.4328   25.7511 C   0  0  0  0  0  0
  -27.5573  -37.1796   24.8471 C   0  0  0  0  0  0
  -21.4268  -29.3048   22.3606 N   0  0  0  0  0  0
  -26.4295  -37.3739   23.9395 N   0  0  0  0  0  0
  -24.7189  -31.0306   22.0930 N   0  0  0  0  0  0
  -23.4222  -28.8090   23.3003 O   0  0  0  0  0  0
  -28.2628  -26.1435   20.2061 O   0  0  0  0  0  0
  -26.5660  -34.8903   22.4643 O   0  0  0  0  0  0
  -23.5560  -32.1329   23.7109 O   0  0  0  0  0  0
  -30.5556  -18.5556   20.3651 C   0  0  0  0  0  0
  -30.2820  -19.9982   20.2907 C   0  0  0  0  0  0
  -28.2396  -18.1427   20.4896 C   0  0  0  0  0  0
  -29.5376  -17.5370   20.4734 C   0  0  0  0  0  0
  -28.9593  -20.5786   20.3041 C   0  0  0  0  0  0
  -27.9644  -19.5572   20.3992 C   0  0  0  0  0  0
  -28.9304  -23.3609   20.2667 C   0  0  0  0  0  0
  -27.9099  -24.6404   20.0006 C   0  0  0  0  0  0
  -28.4680  -22.0258   20.1786 N   0  0  0  0  0  0
  -29.6243  -16.0086   20.6072 N   0  0  0  0  0  0
  -30.1122  -23.5927   20.5350 O   0  0  0  0  0  0
  -26.6671  -19.9507   20.4038 F   0  0  0  0  0  0
  -31.4844  -12.7383   19.1752 H   0  0  0  0  0  0
  -30.4520  -11.6030   19.9989 H   0  0  0  0  0  0
  -29.8366  -11.7451   17.5617 H   0  0  0  0  0  0
  -29.6166  -13.4710   17.6997 H   0  0  0  0  0  0
  -27.9406  -11.2757   18.9515 H   0  0  0  0  0  0
  -27.3953  -12.4769   17.8097 H   0  0  0  0  0  0
  -27.6101  -14.2476   19.4324 H   0  0  0  0  0  0
  -28.7617  -12.2309   21.4245 H   0  0  0  0  0  0
  -28.3859  -13.8962   21.7849 H   0  0  0  0  0  0
  -25.2767   -9.5674   22.4762 H   0  0  0  0  0  0
  -23.9995   -7.4633   22.7476 H   0  0  0  0  0  0
  -21.0839   -8.8784   19.8959 H   0  0  0  0  0  0
  -22.3705  -10.9676   19.6171 H   0  0  0  0  0  0
  -21.2010   -7.6141   23.9709 H   0  0  0  0  0  0
  -21.1483   -6.0517   25.9072 H   0  0  0  0  0  0
  -22.0596   -2.7603   23.2848 H   0  0  0  0  0  0
  -22.4073  -11.9888   22.4838 H   0  0  0  0  0  0
  -21.1080  -13.1251   22.2629 H   0  0  0  0  0  0
  -24.6299  -15.8279   20.4806 H   0  0  0  0  0  0
  -26.2201  -15.6099   19.9582 H   0  0  0  0  0  0
  -26.7284  -32.5304   23.1019 H   0  0  0  0  0  0
  -25.0087  -33.9620   25.0332 H   0  0  0  0  0  0
  -22.7507  -31.2922   21.3828 H   0  0  0  0  0  0
  -23.3749  -35.9597   23.3319 H   0  0  0  0  0  0
  -24.3573  -36.8871   22.2053 H   0  0  0  0  0  0
  -23.7267  -37.6465   23.6669 H   0  0  0  0  0  0
  -26.1638  -31.4760   20.6202 H   0  0  0  0  0  0
  -26.8746  -30.7664   22.0337 H   0  0  0  0  0  0
  -28.1353  -28.7977   21.2346 H   0  0  0  0  0  0
  -25.8960  -25.8642   18.9812 H   0  0  0  0  0  0
  -23.9771  -27.3112   18.9782 H   0  0  0  0  0  0
  -23.8123  -30.5751   19.4004 H   0  0  0  0  0  0
  -22.7889  -29.2427   19.8418 H   0  0  0  0  0  0
  -25.1316  -36.1868   25.0809 H   0  0  0  0  0  0
  -21.0023  -28.3313   24.1353 H   0  0  0  0  0  0
  -20.5685  -26.2336   23.3623 H   0  0  0  0  0  0
  -21.6660  -26.7422   22.1202 H   0  0  0  0  0  0
  -19.6920  -25.6282   21.1257 H   0  0  0  0  0  0
  -19.6691  -27.3176   20.6736 H   0  0  0  0  0  0
  -17.4212  -26.6677   21.4036 H   0  0  0  0  0  0
  -18.0343  -26.0079   22.9031 H   0  0  0  0  0  0
  -19.7955  -30.7300   24.2228 H   0  0  0  0  0  0
  -17.5024  -31.6263   24.5165 H   0  0  0  0  0  0
  -15.5366  -30.2968   23.7664 H   0  0  0  0  0  0
  -15.8700  -28.0805   22.7076 H   0  0  0  0  0  0
  -24.5890  -30.7107   25.7742 H   0  0  0  0  0  0
  -24.8890  -32.2951   26.4780 H   0  0  0  0  0  0
  -25.7980  -30.8981   27.0239 H   0  0  0  0  0  0
  -26.3004  -29.6679   24.1307 H   0  0  0  0  0  0
  -27.3959  -29.7249   25.4905 H   0  0  0  0  0  0
  -27.8931  -30.4168   23.9663 H   0  0  0  0  0  0
  -27.2655  -33.3642   26.2046 H   0  0  0  0  0  0
  -28.3893  -32.6869   25.0356 H   0  0  0  0  0  0
  -28.0707  -31.8484   26.5461 H   0  0  0  0  0  0
  -28.2614  -38.0066   24.7468 H   0  0  0  0  0  0
  -28.1045  -36.2596   24.6362 H   0  0  0  0  0  0
  -27.2283  -37.1523   25.8873 H   0  0  0  0  0  0
  -20.9479  -29.8766   21.6786 H   0  0  0  0  0  0
  -26.0164  -38.2816   24.1359 H   0  0  0  0  0  0
  -31.5893  -18.2394   20.3456 H   0  0  0  0  0  0
  -31.1257  -20.6684   20.2073 H   0  0  0  0  0  0
  -27.3790  -17.4966   20.5727 H   0  0  0  0  0  0
  -27.0217  -24.4352   20.5988 H   0  0  0  0  0  0
  -27.6067  -24.5279   18.9598 H   0  0  0  0  0  0
  -27.4699  -22.0293   20.0105 H   0  0  0  0  0  0
  -28.7206  -15.6158   20.8204 H   0  0  0  0  0  0
  1 25  1  0  0  0
  1 30  2  0  0  0
  1 80  1  0  0  0
  2  3  1  0  0  0
  2 25  1  0  0  0
  2 83  1  0  0  0
  2 84  1  0  0  0
  3  4  1  0  0  0
  3 85  1  0  0  0
  3 86  1  0  0  0
  4  5  1  0  0  0
  4 87  1  0  0  0
  4 88  1  0  0  0
  5  6  1  0  0  0
  5 26  1  0  0  0
  5 89  1  0  0  0
  6 25  1  0  0  0
  6 90  1  0  0  0
  6 91  1  0  0  0
  7  8  2  0  0  0
  7 26  1  0  0  0
  7 29  1  0  0  0
  8  9  1  0  0  0
  8 22  1  0  0  0
  9 10  1  0  0  0
  9 27  2  0  0  0
 10 11  2  0  0  0
 10 15  1  0  0  0
 11 12  1  0  0  0
 11 92  1  0  0  0
 12 13  2  0  0  0
 12 93  1  0  0  0
 13 14  1  0  0  0
 13 31  1  0  0  0
 14 15  2  0  0  0
 14 94  1  0  0  0
 15 95  1  0  0  0
 16 17  2  0  0  0
 16 21  1  0  0  0
 16 31  1  0  0  0
 17 18  1  0  0  0
 17 96  1  0  0  0
 18 19  2  0  0  0
 18 97  1  0  0  0
 19 20  1  0  0  0
 19 24  1  0  0  0
 20 21  2  0  0  0
 20 98  1  0  0  0
 21 23  1  0  0  0
 22 28  1  0  0  0
 22 32  2  0  0  0
 26 27  1  0  0  0
 28 99  1  0  0  0
 28100  1  0  0  0
 29101  1  0  0  0
 29102  1  0  0  0
 33 34  1  0  0  0
 33 66  1  0  0  0
 33 70  2  0  0  0
 34 36  1  0  0  0
 34 59  1  0  0  0
 34103  1  0  0  0
 35 44  2  0  0  0
 35 45  1  0  0  0
 35 68  1  0  0  0
 36 56  1  0  0  0
 36104  1  0  0  0
 37 39  1  0  0  0
 37 47  1  0  0  0
 37 66  1  0  0  0
 37105  1  0  0  0
 38 43  2  0  0  0
 38 46  1  0  0  0
 38 47  1  0  0  0
 39 64  1  0  0  0
 39 67  2  0  0  0
 40 52  1  0  0  0
 40 53  2  0  0  0
 40 58  1  0  0  0
 41106  1  0  0  0
 41107  1  0  0  0
 41108  1  0  0  0
 41 48  1  0  0  0
 42 43  1  0  0  0
 42 66  1  0  0  0
 42109  1  0  0  0
 42110  1  0  0  0
 43 44  1  0  0  0
 44111  1  0  0  0
 45 46  2  0  0  0
 45112  1  0  0  0
 46113  1  0  0  0
 47114  1  0  0  0
 47115  1  0  0  0
 48 56  1  0  0  0
 48 65  1  0  0  0
 48116  1  0  0  0
 49 50  1  0  0  0
 49 53  1  0  0  0
 49 64  1  0  0  0
 49117  1  0  0  0
 50 51  1  0  0  0
 50118  1  0  0  0
 50119  1  0  0  0
 51 52  1  0  0  0
 51120  1  0  0  0
 51121  1  0  0  0
 52122  1  0  0  0
 52123  1  0  0  0
 53 54  1  0  0  0
 54 55  2  0  0  0
 54124  1  0  0  0
 55 57  1  0  0  0
 55125  1  0  0  0
 56 69  2  0  0  0
 57 58  2  0  0  0
 57126  1  0  0  0
 58127  1  0  0  0
 59 60  1  0  0  0
 59 61  1  0  0  0
 59 62  1  0  0  0
 60128  1  0  0  0
 60129  1  0  0  0
 60130  1  0  0  0
 61131  1  0  0  0
 61132  1  0  0  0
 61133  1  0  0  0
 62134  1  0  0  0
 62135  1  0  0  0
 62136  1  0  0  0
 63 65  1  0  0  0
 63137  1  0  0  0
 63138  1  0  0  0
 63139  1  0  0  0
 64140  1  0  0  0
 65141  1  0  0  0
 68 78  1  0  0  0
 71 72  2  0  0  0
 71 74  1  0  0  0
 71142  1  0  0  0
 72 75  1  0  0  0
 72143  1  0  0  0
 73 74  2  0  0  0
 73 76  1  0  0  0
 73144  1  0  0  0
 74 80  1  0  0  0
 75 76  2  0  0  0
 75 79  1  0  0  0
 76 82  1  0  0  0
 77 78  1  0  0  0
 77 79  1  0  0  0
 77 81  2  0  0  0
 78145  1  0  0  0
 78146  1  0  0  0
 79147  1  0  0  0
 80148  1  0  0  0
M  ISO  4   1 100  68 101  78 101  80 100
M  END
> <chiral flag>
0

> <version>
0

> <s_m_source_file>
/data/baiqing/PycharmProjects/Reinvent-master-3.2/result/LINK_invent/BTK/process_docking_weight1_custom_sum_contain_oxygen_bond_distance_aromatic_linkinvent_7_9_3/rearranged_h_0011.sdf

> <i_m_source_file_index>
91

> <r_mmod_Potential_Energy-OPLS-2005>
408.086791992188

> <r_mmod_Stretch_Energy-OPLS-2005>
218.79460144043

> <r_mmod_Bend_Energy-OPLS-2005>
281.798767089844

> <r_mmod_Torsional_Energy-OPLS-2005>
220.497772216797

> <r_mmod_Improper_Torsional_Energy-OPLS-2005>
5.07187652587891

> <r_mmod_Van_der_Waal_Energy-OPLS-2005>
130.193206787109

> <r_mmod_Electrostatic_Energy-OPLS-2005>
-389.395721435547

> <r_mmod_Solvation_Energy-OPLS-2005>
-242.372695922852

> <b_mmod_Minimization_Converged-OPLS-2005>
0

> <r_mmod_RMS_Derivative-OPLS-2005>
0.813941478729248

$$$$
91
                    3D
 Structure written by MMmdl.
152160  0  0  1  0            999 V2000
  -30.5241  -14.9140   20.4248 C   0  0  0  0  0  0
  -30.4496  -12.5628   19.4915 C   0  0  0  0  0  0
  -29.5227  -12.5333   18.2527 C   0  0  0  0  0  0
  -28.0560  -12.3214   18.6719 C   0  0  0  0  0  0
  -27.6396  -13.2411   19.8490 C   0  0  2  0  0  0
  -28.6832  -13.2337   20.9874 C   0  0  0  0  0  0
  -25.2509  -13.8204   20.5718 C   0  0  0  0  0  0
  -24.1804  -13.0440   20.9192 C   0  0  0  0  0  0
  -24.6419  -11.6924   20.8756 C   0  0  0  0  0  0
  -23.9099  -10.4292   21.0419 C   0  0  0  0  0  0
  -24.3644   -9.4207   21.9195 C   0  0  0  0  0  0
  -23.6311   -8.2248   22.0767 C   0  0  0  0  0  0
  -22.4285   -8.0296   21.3551 C   0  0  0  0  0  0
  -21.9934   -9.0269   20.4650 C   0  0  0  0  0  0
  -22.7274  -10.2145   20.3063 C   0  0  0  0  0  0
  -21.6855   -6.0751   22.5276 C   0  0  0  0  0  0
  -21.4016   -6.5654   23.8211 C   0  0  0  0  0  0
  -21.3653   -5.6803   24.9166 C   0  0  0  0  0  0
  -21.6049   -4.3067   24.7215 C   0  0  0  0  0  0
  -21.8819   -3.8162   23.4332 C   0  0  0  0  0  0
  -21.9192   -4.6982   22.3394 C   0  0  0  0  0  0
  -22.7820  -13.5225   21.1845 C   0  0  0  0  0  0
  -22.1661   -4.2174   21.0967 F   0  0  0  0  0  0
  -21.5625   -3.4549   25.7723 F   0  0  0  0  0  0
  -29.9668  -13.6399   20.3991 N   0  0  0  0  0  0
  -26.2944  -12.9430   20.3294 N   0  0  0  0  0  0
  -25.9355  -11.6565   20.5763 N   0  0  0  0  0  0
  -22.0473  -12.8204   22.0406 N   0  0  0  0  0  0
  -25.4188  -15.1937   20.4193 N   0  0  0  0  0  0
  -31.7125  -15.0319   20.1071 O   0  0  0  0  0  0
  -21.6640   -6.8900   21.4244 O   0  0  0  0  0  0
  -22.3507  -14.5526   20.6698 O   0  0  0  0  0  0
  -24.6410  -31.8434   23.1899 C   0  0  0  0  0  0
  -25.9190  -32.4692   23.8273 C   0  0  1  0  0  0
  -27.2235  -27.1559   20.1377 C   0  0  0  0  0  0
  -25.5950  -33.8501   24.2198 N   0  0  0  0  0  0
  -23.4431  -30.4661   21.5326 C   0  0  2  0  0  0
  -24.8925  -28.8947   20.1080 C   0  0  0  0  0  0
  -22.7568  -29.4546   22.4842 C   0  0  0  0  0  0
  -18.0303  -28.1390   22.8441 C   0  0  0  0  0  0
  -24.1493  -36.7256   23.2649 C   0  0  0  0  0  0
  -25.9968  -30.7269   21.3834 C   0  0  0  0  0  0
  -26.0679  -29.3397   20.7232 C   0  0  0  0  0  0
  -27.2286  -28.4837   20.7265 C   0  0  0  0  0  0
  -26.0165  -26.8038   19.4929 C   0  0  0  0  0  0
  -24.8778  -27.6379   19.4845 C   0  0  0  0  0  0
  -23.6701  -29.7971   20.1507 C   0  0  0  0  0  0
  -25.4115  -36.3037   24.0337 C   0  0  1  0  0  0
  -20.5912  -28.3706   23.1228 C   0  0  2  0  0  0
  -20.6779  -26.9408   22.5404 C   0  0  0  0  0  0
  -19.5764  -26.6367   21.5200 C   0  0  0  0  0  0
  -18.1942  -26.7921   22.1598 C   0  0  0  0  0  0
  -19.1561  -28.8860   23.2822 C   0  0  0  0  0  0
  -18.9487  -30.1448   23.8855 C   0  0  0  0  0  0
  -17.6493  -30.6575   24.0548 C   0  0  0  0  0  0
  -25.9074  -34.9412   23.5078 C   0  0  0  0  0  0
  -16.5376  -29.9071   23.6335 C   0  0  0  0  0  0
  -16.7294  -28.6505   23.0324 C   0  0  0  0  0  0
  -26.4525  -31.6549   25.0703 C   0  0  0  0  0  0
  -25.3723  -31.3745   26.1416 C   0  0  0  0  0  0
  -27.0406  -30.2956   24.6267 C   0  0  0  0  0  0
  -27.6042  -32.4319   25.7482 C   0  0  0  0  0  0
  -27.5575  -37.1770   24.8464 C   0  0  0  0  0  0
  -21.4263  -29.3048   22.3617 N   0  0  0  0  0  0
  -26.4266  -37.3756   23.9437 N   0  0  0  0  0  0
  -24.7134  -31.0326   22.0915 N   0  0  0  0  0  0
  -23.4229  -28.8117   23.2993 O   0  0  0  0  0  0
  -28.3041  -26.2109   20.2404 O   0  0  0  0  0  0
  -26.5653  -34.8913   22.4653 O   0  0  0  0  0  0
  -23.5534  -32.1276   23.7151 O   0  0  0  0  0  0
  -30.6158  -19.7982   19.7829 C   0  0  0  0  0  0
  -30.7261  -18.3596   19.9412 C   0  0  0  0  0  0
  -28.4713  -19.8011   20.7349 C   0  0  0  0  0  0
  -29.4918  -20.6363   20.1646 C   0  0  0  0  0  0
  -29.6947  -17.5436   20.4909 C   0  0  0  0  0  0
  -28.5644  -18.3508   20.8766 C   0  0  0  0  0  0
  -30.7553  -22.6115   19.4647 C   0  0  0  0  0  0
  -28.5881  -23.2981   20.4998 C   0  0  0  0  0  0
  -28.3524  -24.7628   19.6801 C   0  0  0  0  0  0
  -29.6754  -16.0219   20.6532 N   0  0  0  0  0  0
  -29.4558  -22.1237   19.9374 N   0  0  0  0  0  0
  -27.5001  -17.6990   21.4040 F   0  0  0  0  0  0
  -31.4820  -12.7272   19.1778 H   0  0  0  0  0  0
  -30.4427  -11.5993   20.0035 H   0  0  0  0  0  0
  -29.8331  -11.7462   17.5643 H   0  0  0  0  0  0
  -29.6136  -13.4725   17.7048 H   0  0  0  0  0  0
  -27.9457  -11.2778   18.9673 H   0  0  0  0  0  0
  -27.3909  -12.4692   17.8207 H   0  0  0  0  0  0
  -27.6135  -14.2503   19.4376 H   0  0  0  0  0  0
  -28.7592  -12.2489   21.4506 H   0  0  0  0  0  0
  -28.3880  -13.9219   21.7811 H   0  0  0  0  0  0
  -25.2794   -9.5677   22.4765 H   0  0  0  0  0  0
  -24.0017   -7.4643   22.7494 H   0  0  0  0  0  0
  -21.0866   -8.8806   19.8952 H   0  0  0  0  0  0
  -22.3752  -10.9692   19.6175 H   0  0  0  0  0  0
  -21.2013   -7.6162   23.9723 H   0  0  0  0  0  0
  -21.1474   -6.0526   25.9070 H   0  0  0  0  0  0
  -22.0604   -2.7630   23.2818 H   0  0  0  0  0  0
  -22.4100  -11.9858   22.4759 H   0  0  0  0  0  0
  -21.1101  -13.1239   22.2635 H   0  0  0  0  0  0
  -24.6603  -15.8487   20.5679 H   0  0  0  0  0  0
  -26.2797  -15.6509   20.1507 H   0  0  0  0  0  0
  -26.7253  -32.5304   23.0996 H   0  0  0  0  0  0
  -25.0092  -33.9610   25.0344 H   0  0  0  0  0  0
  -22.7433  -31.2913   21.3798 H   0  0  0  0  0  0
  -23.3767  -35.9569   23.3270 H   0  0  0  0  0  0
  -24.3593  -36.8919   22.2074 H   0  0  0  0  0  0
  -23.7234  -37.6443   23.6695 H   0  0  0  0  0  0
  -26.1493  -31.4857   20.6145 H   0  0  0  0  0  0
  -26.8688  -30.7764   22.0242 H   0  0  0  0  0  0
  -28.1218  -28.8202   21.2351 H   0  0  0  0  0  0
  -25.8984  -25.8420   19.0229 H   0  0  0  0  0  0
  -23.9760  -27.2853   19.0034 H   0  0  0  0  0  0
  -23.8116  -30.5730   19.3972 H   0  0  0  0  0  0
  -22.7844  -29.2439   19.8351 H   0  0  0  0  0  0
  -25.1294  -36.1855   25.0826 H   0  0  0  0  0  0
  -20.9972  -28.3284   24.1360 H   0  0  0  0  0  0
  -20.5644  -26.2328   23.3626 H   0  0  0  0  0  0
  -21.6648  -26.7397   22.1223 H   0  0  0  0  0  0
  -19.6935  -25.6281   21.1228 H   0  0  0  0  0  0
  -19.6705  -27.3163   20.6722 H   0  0  0  0  0  0
  -17.4217  -26.6652   21.4003 H   0  0  0  0  0  0
  -18.0328  -26.0074   22.9004 H   0  0  0  0  0  0
  -19.7981  -30.7246   24.2205 H   0  0  0  0  0  0
  -17.5069  -31.6251   24.5158 H   0  0  0  0  0  0
  -15.5378  -30.2961   23.7693 H   0  0  0  0  0  0
  -15.8695  -28.0825   22.7034 H   0  0  0  0  0  0
  -24.5914  -30.7070   25.7761 H   0  0  0  0  0  0
  -24.8898  -32.2932   26.4760 H   0  0  0  0  0  0
  -25.8011  -30.8990   27.0245 H   0  0  0  0  0  0
  -26.3033  -29.6659   24.1277 H   0  0  0  0  0  0
  -27.4067  -29.7281   25.4835 H   0  0  0  0  0  0
  -27.8907  -30.4235   23.9560 H   0  0  0  0  0  0
  -27.2638  -33.3661   26.1966 H   0  0  0  0  0  0
  -28.3886  -32.6804   25.0319 H   0  0  0  0  0  0
  -28.0664  -31.8506   26.5477 H   0  0  0  0  0  0
  -28.2547  -38.0110   24.7542 H   0  0  0  0  0  0
  -28.1118  -36.2638   24.6221 H   0  0  0  0  0  0
  -27.2311  -37.1329   25.8872 H   0  0  0  0  0  0
  -20.9470  -29.8823   21.6854 H   0  0  0  0  0  0
  -26.0140  -38.2821   24.1454 H   0  0  0  0  0  0
  -31.4802  -20.2467   19.3186 H   0  0  0  0  0  0
  -31.6352  -17.8786   19.6103 H   0  0  0  0  0  0
  -27.5568  -20.2699   21.0671 H   0  0  0  0  0  0
  -30.9828  -22.2250   18.4702 H   0  0  0  0  0  0
  -31.5522  -22.3130   20.1473 H   0  0  0  0  0  0
  -30.8206  -23.6948   19.4033 H   0  0  0  0  0  0
  -27.6016  -22.8949   20.7344 H   0  0  0  0  0  0
  -29.0175  -23.5435   21.4710 H   0  0  0  0  0  0
  -27.5102  -24.5937   19.0169 H   0  0  0  0  0  0
  -29.1656  -24.8529   18.9647 H   0  0  0  0  0  0
  -28.7695  -15.7009   20.9602 H   0  0  0  0  0  0
  1 25  1  0  0  0
  1 30  2  0  0  0
  1 80  1  0  0  0
  2  3  1  0  0  0
  2 25  1  0  0  0
  2 83  1  0  0  0
  2 84  1  0  0  0
  3  4  1  0  0  0
  3 85  1  0  0  0
  3 86  1  0  0  0
  4  5  1  0  0  0
  4 87  1  0  0  0
  4 88  1  0  0  0
  5  6  1  0  0  0
  5 26  1  0  0  0
  5 89  1  0  0  0
  6 25  1  0  0  0
  6 90  1  0  0  0
  6 91  1  0  0  0
  7  8  2  0  0  0
  7 26  1  0  0  0
  7 29  1  0  0  0
  8  9  1  0  0  0
  8 22  1  0  0  0
  9 10  1  0  0  0
  9 27  2  0  0  0
 10 11  2  0  0  0
 10 15  1  0  0  0
 11 12  1  0  0  0
 11 92  1  0  0  0
 12 13  2  0  0  0
 12 93  1  0  0  0
 13 14  1  0  0  0
 13 31  1  0  0  0
 14 15  2  0  0  0
 14 94  1  0  0  0
 15 95  1  0  0  0
 16 17  2  0  0  0
 16 21  1  0  0  0
 16 31  1  0  0  0
 17 18  1  0  0  0
 17 96  1  0  0  0
 18 19  2  0  0  0
 18 97  1  0  0  0
 19 20  1  0  0  0
 19 24  1  0  0  0
 20 21  2  0  0  0
 20 98  1  0  0  0
 21 23  1  0  0  0
 22 28  1  0  0  0
 22 32  2  0  0  0
 26 27  1  0  0  0
 28 99  1  0  0  0
 28100  1  0  0  0
 29101  1  0  0  0
 29102  1  0  0  0
 33 34  1  0  0  0
 33 66  1  0  0  0
 33 70  2  0  0  0
 34 36  1  0  0  0
 34 59  1  0  0  0
 34103  1  0  0  0
 35 44  2  0  0  0
 35 45  1  0  0  0
 35 68  1  0  0  0
 36 56  1  0  0  0
 36104  1  0  0  0
 37 39  1  0  0  0
 37 47  1  0  0  0
 37 66  1  0  0  0
 37105  1  0  0  0
 38 43  2  0  0  0
 38 46  1  0  0  0
 38 47  1  0  0  0
 39 64  1  0  0  0
 39 67  2  0  0  0
 40 52  1  0  0  0
 40 53  2  0  0  0
 40 58  1  0  0  0
 41106  1  0  0  0
 41107  1  0  0  0
 41108  1  0  0  0
 41 48  1  0  0  0
 42 43  1  0  0  0
 42 66  1  0  0  0
 42109  1  0  0  0
 42110  1  0  0  0
 43 44  1  0  0  0
 44111  1  0  0  0
 45 46  2  0  0  0
 45112  1  0  0  0
 46113  1  0  0  0
 47114  1  0  0  0
 47115  1  0  0  0
 48 56  1  0  0  0
 48 65  1  0  0  0
 48116  1  0  0  0
 49 50  1  0  0  0
 49 53  1  0  0  0
 49 64  1  0  0  0
 49117  1  0  0  0
 50 51  1  0  0  0
 50118  1  0  0  0
 50119  1  0  0  0
 51 52  1  0  0  0
 51120  1  0  0  0
 51121  1  0  0  0
 52122  1  0  0  0
 52123  1  0  0  0
 53 54  1  0  0  0
 54 55  2  0  0  0
 54124  1  0  0  0
 55 57  1  0  0  0
 55125  1  0  0  0
 56 69  2  0  0  0
 57 58  2  0  0  0
 57126  1  0  0  0
 58127  1  0  0  0
 59 60  1  0  0  0
 59 61  1  0  0  0
 59 62  1  0  0  0
 60128  1  0  0  0
 60129  1  0  0  0
 60130  1  0  0  0
 61131  1  0  0  0
 61132  1  0  0  0
 61133  1  0  0  0
 62134  1  0  0  0
 62135  1  0  0  0
 62136  1  0  0  0
 63 65  1  0  0  0
 63137  1  0  0  0
 63138  1  0  0  0
 63139  1  0  0  0
 64140  1  0  0  0
 65141  1  0  0  0
 68 79  1  0  0  0
 71 72  2  0  0  0
 71 74  1  0  0  0
 71142  1  0  0  0
 72 75  1  0  0  0
 72143  1  0  0  0
 73 74  2  0  0  0
 73 76  1  0  0  0
 73144  1  0  0  0
 74 81  1  0  0  0
 75 76  2  0  0  0
 75 80  1  0  0  0
 76 82  1  0  0  0
 77 81  1  0  0  0
 77145  1  0  0  0
 77146  1  0  0  0
 77147  1  0  0  0
 78 79  1  0  0  0
 78 81  1  0  0  0
 78148  1  0  0  0
 78149  1  0  0  0
 79150  1  0  0  0
 79151  1  0  0  0
 80152  1  0  0  0
M  ISO  4   1 100  68 101  79 101  80 100
M  END
> <chiral flag>
0

> <version>
0

> <s_m_source_file>
/data/baiqing/PycharmProjects/Reinvent-master-3.2/result/LINK_invent/BTK/process_docking_weight1_custom_sum_contain_oxygen_bond_distance_aromatic_linkinvent_7_9_3/rearranged_h_0011.sdf

> <i_m_source_file_index>
92

> <r_mmod_Potential_Energy-OPLS-2005>
422.703674316406

> <r_mmod_Stretch_Energy-OPLS-2005>
226.532485961914

> <r_mmod_Bend_Energy-OPLS-2005>
287.821533203125

> <r_mmod_Torsional_Energy-OPLS-2005>
202.968505859375

> <r_mmod_Improper_Torsional_Energy-OPLS-2005>
4.99595546722412

> <r_mmod_Van_der_Waal_Energy-OPLS-2005>
146.032180786133

> <r_mmod_Electrostatic_Energy-OPLS-2005>
-393.502685546875

> <r_mmod_Solvation_Energy-OPLS-2005>
-222.135986328125

> <b_mmod_Minimization_Converged-OPLS-2005>
0

> <r_mmod_RMS_Derivative-OPLS-2005>
2.36566257476807

$$$$
92
                    3D
 Structure written by MMmdl.
151159  0  0  1  0            999 V2000
  -30.5309  -15.0327   20.4116 C   0  0  0  0  0  0
  -30.4427  -12.6454   19.5148 C   0  0  0  0  0  0
  -29.5305  -12.5381   18.2706 C   0  0  0  0  0  0
  -28.0684  -12.3005   18.6925 C   0  0  0  0  0  0
  -27.6260  -13.2544   19.8323 C   0  0  2  0  0  0
  -28.6645  -13.3351   20.9717 C   0  0  0  0  0  0
  -25.2450  -13.8226   20.5713 C   0  0  0  0  0  0
  -24.1771  -13.0445   20.9238 C   0  0  0  0  0  0
  -24.6394  -11.6931   20.8753 C   0  0  0  0  0  0
  -23.9079  -10.4300   21.0409 C   0  0  0  0  0  0
  -24.3630   -9.4207   21.9185 C   0  0  0  0  0  0
  -23.6300   -8.2242   22.0756 C   0  0  0  0  0  0
  -22.4282   -8.0282   21.3543 C   0  0  0  0  0  0
  -21.9917   -9.0262   20.4650 C   0  0  0  0  0  0
  -22.7251  -10.2141   20.3058 C   0  0  0  0  0  0
  -21.6850   -6.0738   22.5276 C   0  0  0  0  0  0
  -21.4018   -6.5641   23.8211 C   0  0  0  0  0  0
  -21.3658   -5.6788   24.9169 C   0  0  0  0  0  0
  -21.6039   -4.3050   24.7219 C   0  0  0  0  0  0
  -21.8816   -3.8147   23.4339 C   0  0  0  0  0  0
  -21.9191   -4.6967   22.3395 C   0  0  0  0  0  0
  -22.7781  -13.5217   21.1879 C   0  0  0  0  0  0
  -22.1655   -4.2150   21.0973 F   0  0  0  0  0  0
  -21.5630   -3.4533   25.7732 F   0  0  0  0  0  0
  -29.9325  -13.7651   20.3658 N   0  0  0  0  0  0
  -26.2875  -12.9469   20.3223 N   0  0  0  0  0  0
  -25.9331  -11.6595   20.5732 N   0  0  0  0  0  0
  -22.0416  -12.8223   22.0433 N   0  0  0  0  0  0
  -25.4114  -15.1953   20.4138 N   0  0  0  0  0  0
  -31.7426  -15.0528   20.1638 O   0  0  0  0  0  0
  -21.6637   -6.8887   21.4241 O   0  0  0  0  0  0
  -22.3461  -14.5514   20.6708 O   0  0  0  0  0  0
  -24.6491  -31.8381   23.1816 C   0  0  0  0  0  0
  -25.9229  -32.4666   23.8233 C   0  0  1  0  0  0
  -27.2222  -27.0786   20.1632 C   0  0  0  0  0  0
  -25.5943  -33.8474   24.2140 N   0  0  0  0  0  0
  -23.4564  -30.4540   21.5301 C   0  0  2  0  0  0
  -24.9072  -28.8686   20.1122 C   0  0  0  0  0  0
  -22.7603  -29.4509   22.4853 C   0  0  0  0  0  0
  -18.0308  -28.1401   22.8468 C   0  0  0  0  0  0
  -24.1500  -36.7262   23.2644 C   0  0  0  0  0  0
  -26.0160  -30.6946   21.3881 C   0  0  0  0  0  0
  -26.0877  -29.2994   20.7314 C   0  0  0  0  0  0
  -27.2444  -28.4229   20.7343 C   0  0  0  0  0  0
  -26.0117  -26.7608   19.5082 C   0  0  0  0  0  0
  -24.8859  -27.6143   19.4839 C   0  0  0  0  0  0
  -23.6864  -29.7780   20.1520 C   0  0  0  0  0  0
  -25.4131  -36.3024   24.0309 C   0  0  1  0  0  0
  -20.5922  -28.3731   23.1226 C   0  0  2  0  0  0
  -20.6797  -26.9429   22.5410 C   0  0  0  0  0  0
  -19.5772  -26.6382   21.5218 C   0  0  0  0  0  0
  -18.1948  -26.7939   22.1617 C   0  0  0  0  0  0
  -19.1563  -28.8885   23.2837 C   0  0  0  0  0  0
  -18.9478  -30.1480   23.8866 C   0  0  0  0  0  0
  -17.6473  -30.6594   24.0558 C   0  0  0  0  0  0
  -25.9078  -34.9394   23.5042 C   0  0  0  0  0  0
  -16.5364  -29.9090   23.6331 C   0  0  0  0  0  0
  -16.7293  -28.6509   23.0352 C   0  0  0  0  0  0
  -26.4510  -31.6563   25.0710 C   0  0  0  0  0  0
  -25.3666  -31.3789   26.1392 C   0  0  0  0  0  0
  -27.0374  -30.2947   24.6339 C   0  0  0  0  0  0
  -27.6029  -32.4340   25.7498 C   0  0  0  0  0  0
  -27.5580  -37.1788   24.8454 C   0  0  0  0  0  0
  -21.4283  -29.3048   22.3604 N   0  0  0  0  0  0
  -26.4292  -37.3740   23.9396 N   0  0  0  0  0  0
  -24.7278  -31.0182   22.0882 N   0  0  0  0  0  0
  -23.4212  -28.8066   23.3040 O   0  0  0  0  0  0
  -28.2649  -26.0636   20.2313 O   0  0  0  0  0  0
  -26.5683  -34.8903   22.4636 O   0  0  0  0  0  0
  -23.5594  -32.1277   23.7000 O   0  0  0  0  0  0
  -31.4239  -18.1849   20.5371 C   0  0  0  0  0  0
  -30.9014  -20.6204   20.4521 C   0  0  0  0  0  0
  -29.1395  -18.9603   20.4001 C   0  0  0  0  0  0
  -31.8250  -19.5458   20.5286 C   0  0  0  0  0  0
  -30.0705  -17.7793   20.4744 C   0  0  0  0  0  0
  -29.5068  -20.4207   20.3806 C   0  0  0  0  0  0
  -33.3070  -19.8689   20.5982 C   0  0  0  0  0  0
  -27.9846  -24.5067   20.1208 C   0  0  0  0  0  0
  -29.0143  -23.1398   20.3271 C   0  0  0  0  0  0
  -29.7594  -16.2487   20.5152 N   0  0  0  0  0  0
  -28.6232  -21.6104   20.2904 O   0  0  0  0  0  0
  -31.4753  -12.8085   19.2017 H   0  0  0  0  0  0
  -30.4505  -11.7092   20.0752 H   0  0  0  0  0  0
  -29.8727  -11.7324   17.6196 H   0  0  0  0  0  0
  -29.5991  -13.4566   17.6862 H   0  0  0  0  0  0
  -27.9923  -11.2672   19.0339 H   0  0  0  0  0  0
  -27.4015  -12.3890   17.8338 H   0  0  0  0  0  0
  -27.5755  -14.2429   19.3743 H   0  0  0  0  0  0
  -28.7708  -12.3775   21.4830 H   0  0  0  0  0  0
  -28.3471  -14.0555   21.7269 H   0  0  0  0  0  0
  -25.2772   -9.5686   22.4763 H   0  0  0  0  0  0
  -23.9998   -7.4639   22.7481 H   0  0  0  0  0  0
  -21.0841   -8.8796   19.8963 H   0  0  0  0  0  0
  -22.3711  -10.9684   19.6169 H   0  0  0  0  0  0
  -21.2020   -7.6152   23.9714 H   0  0  0  0  0  0
  -21.1479   -6.0518   25.9073 H   0  0  0  0  0  0
  -22.0601   -2.7613   23.2829 H   0  0  0  0  0  0
  -22.4032  -11.9913   22.4867 H   0  0  0  0  0  0
  -21.1028  -13.1257   22.2615 H   0  0  0  0  0  0
  -24.6431  -15.8470   20.5348 H   0  0  0  0  0  0
  -26.2458  -15.6341   20.0478 H   0  0  0  0  0  0
  -26.7307  -32.5252   23.0970 H   0  0  0  0  0  0
  -25.0034  -33.9564   25.0250 H   0  0  0  0  0  0
  -22.7613  -31.2812   21.3712 H   0  0  0  0  0  0
  -23.3758  -35.9597   23.3286 H   0  0  0  0  0  0
  -24.3592  -36.8920   22.2062 H   0  0  0  0  0  0
  -23.7259  -37.6454   23.6701 H   0  0  0  0  0  0
  -26.1760  -31.4440   20.6116 H   0  0  0  0  0  0
  -26.8841  -30.7488   22.0336 H   0  0  0  0  0  0
  -28.1426  -28.7503   21.2387 H   0  0  0  0  0  0
  -25.9006  -25.8009   19.0283 H   0  0  0  0  0  0
  -23.9855  -27.2752   18.9900 H   0  0  0  0  0  0
  -23.8271  -30.5494   19.3942 H   0  0  0  0  0  0
  -22.7995  -29.2230   19.8416 H   0  0  0  0  0  0
  -25.1327  -36.1848   25.0803 H   0  0  0  0  0  0
  -20.9995  -28.3331   24.1355 H   0  0  0  0  0  0
  -20.5698  -26.2340   23.3636 H   0  0  0  0  0  0
  -21.6666  -26.7443   22.1206 H   0  0  0  0  0  0
  -19.6936  -25.6283   21.1273 H   0  0  0  0  0  0
  -19.6714  -27.3171   20.6731 H   0  0  0  0  0  0
  -17.4221  -26.6672   21.4020 H   0  0  0  0  0  0
  -18.0345  -26.0095   22.9027 H   0  0  0  0  0  0
  -19.7955  -30.7306   24.2220 H   0  0  0  0  0  0
  -17.5027  -31.6268   24.5175 H   0  0  0  0  0  0
  -15.5361  -30.2984   23.7681 H   0  0  0  0  0  0
  -15.8692  -28.0827   22.7082 H   0  0  0  0  0  0
  -24.5836  -30.7152   25.7706 H   0  0  0  0  0  0
  -24.8861  -32.2986   26.4741 H   0  0  0  0  0  0
  -25.7916  -30.8999   27.0222 H   0  0  0  0  0  0
  -26.2999  -29.6665   24.1332 H   0  0  0  0  0  0
  -27.3937  -29.7269   25.4943 H   0  0  0  0  0  0
  -27.8931  -30.4160   23.9694 H   0  0  0  0  0  0
  -27.2609  -33.3654   26.2025 H   0  0  0  0  0  0
  -28.3863  -32.6883   25.0346 H   0  0  0  0  0  0
  -28.0676  -31.8504   26.5455 H   0  0  0  0  0  0
  -28.2589  -38.0093   24.7506 H   0  0  0  0  0  0
  -28.1087  -36.2622   24.6280 H   0  0  0  0  0  0
  -27.2298  -37.1438   25.8857 H   0  0  0  0  0  0
  -20.9514  -29.8740   21.6752 H   0  0  0  0  0  0
  -26.0157  -38.2812   24.1388 H   0  0  0  0  0  0
  -32.1993  -17.4360   20.6036 H   0  0  0  0  0  0
  -31.2907  -21.6284   20.4441 H   0  0  0  0  0  0
  -28.0839  -18.7378   20.3525 H   0  0  0  0  0  0
  -33.8753  -19.0460   21.0346 H   0  0  0  0  0  0
  -33.4862  -20.7527   21.2108 H   0  0  0  0  0  0
  -33.7008  -20.0610   19.5997 H   0  0  0  0  0  0
  -27.1510  -24.3383   20.8026 H   0  0  0  0  0  0
  -27.5637  -24.3697   19.1252 H   0  0  0  0  0  0
  -29.5087  -23.2797   21.2887 H   0  0  0  0  0  0
  -29.8084  -23.2522   19.5894 H   0  0  0  0  0  0
  -28.7773  -16.0461   20.6279 H   0  0  0  0  0  0
  1 25  1  0  0  0
  1 30  2  0  0  0
  1 80  1  0  0  0
  2  3  1  0  0  0
  2 25  1  0  0  0
  2 82  1  0  0  0
  2 83  1  0  0  0
  3  4  1  0  0  0
  3 84  1  0  0  0
  3 85  1  0  0  0
  4  5  1  0  0  0
  4 86  1  0  0  0
  4 87  1  0  0  0
  5  6  1  0  0  0
  5 26  1  0  0  0
  5 88  1  0  0  0
  6 25  1  0  0  0
  6 89  1  0  0  0
  6 90  1  0  0  0
  7  8  2  0  0  0
  7 26  1  0  0  0
  7 29  1  0  0  0
  8  9  1  0  0  0
  8 22  1  0  0  0
  9 10  1  0  0  0
  9 27  2  0  0  0
 10 11  2  0  0  0
 10 15  1  0  0  0
 11 12  1  0  0  0
 11 91  1  0  0  0
 12 13  2  0  0  0
 12 92  1  0  0  0
 13 14  1  0  0  0
 13 31  1  0  0  0
 14 15  2  0  0  0
 14 93  1  0  0  0
 15 94  1  0  0  0
 16 17  2  0  0  0
 16 21  1  0  0  0
 16 31  1  0  0  0
 17 18  1  0  0  0
 17 95  1  0  0  0
 18 19  2  0  0  0
 18 96  1  0  0  0
 19 20  1  0  0  0
 19 24  1  0  0  0
 20 21  2  0  0  0
 20 97  1  0  0  0
 21 23  1  0  0  0
 22 28  1  0  0  0
 22 32  2  0  0  0
 26 27  1  0  0  0
 28 98  1  0  0  0
 28 99  1  0  0  0
 29100  1  0  0  0
 29101  1  0  0  0
 33 34  1  0  0  0
 33 66  1  0  0  0
 33 70  2  0  0  0
 34 36  1  0  0  0
 34 59  1  0  0  0
 34102  1  0  0  0
 35 44  2  0  0  0
 35 45  1  0  0  0
 35 68  1  0  0  0
 36 56  1  0  0  0
 36103  1  0  0  0
 37 39  1  0  0  0
 37 47  1  0  0  0
 37 66  1  0  0  0
 37104  1  0  0  0
 38 43  2  0  0  0
 38 46  1  0  0  0
 38 47  1  0  0  0
 39 64  1  0  0  0
 39 67  2  0  0  0
 40 52  1  0  0  0
 40 53  2  0  0  0
 40 58  1  0  0  0
 41105  1  0  0  0
 41106  1  0  0  0
 41107  1  0  0  0
 41 48  1  0  0  0
 42 43  1  0  0  0
 42 66  1  0  0  0
 42108  1  0  0  0
 42109  1  0  0  0
 43 44  1  0  0  0
 44110  1  0  0  0
 45 46  2  0  0  0
 45111  1  0  0  0
 46112  1  0  0  0
 47113  1  0  0  0
 47114  1  0  0  0
 48 56  1  0  0  0
 48 65  1  0  0  0
 48115  1  0  0  0
 49 50  1  0  0  0
 49 53  1  0  0  0
 49 64  1  0  0  0
 49116  1  0  0  0
 50 51  1  0  0  0
 50117  1  0  0  0
 50118  1  0  0  0
 51 52  1  0  0  0
 51119  1  0  0  0
 51120  1  0  0  0
 52121  1  0  0  0
 52122  1  0  0  0
 53 54  1  0  0  0
 54 55  2  0  0  0
 54123  1  0  0  0
 55 57  1  0  0  0
 55124  1  0  0  0
 56 69  2  0  0  0
 57 58  2  0  0  0
 57125  1  0  0  0
 58126  1  0  0  0
 59 60  1  0  0  0
 59 61  1  0  0  0
 59 62  1  0  0  0
 60127  1  0  0  0
 60128  1  0  0  0
 60129  1  0  0  0
 61130  1  0  0  0
 61131  1  0  0  0
 61132  1  0  0  0
 62133  1  0  0  0
 62134  1  0  0  0
 62135  1  0  0  0
 63 65  1  0  0  0
 63136  1  0  0  0
 63137  1  0  0  0
 63138  1  0  0  0
 64139  1  0  0  0
 65140  1  0  0  0
 68 78  1  0  0  0
 71 74  2  0  0  0
 71 75  1  0  0  0
 71141  1  0  0  0
 72 74  1  0  0  0
 72 76  2  0  0  0
 72142  1  0  0  0
 73 75  2  0  0  0
 73 76  1  0  0  0
 73143  1  0  0  0
 74 77  1  0  0  0
 75 80  1  0  0  0
 76 81  1  0  0  0
 77144  1  0  0  0
 77145  1  0  0  0
 77146  1  0  0  0
 78 79  1  0  0  0
 78147  1  0  0  0
 78148  1  0  0  0
 79 81  1  0  0  0
 79149  1  0  0  0
 79150  1  0  0  0
 80151  1  0  0  0
M  ISO  4   1 100  68 101  78 101  80 100
M  END
> <chiral flag>
0

> <version>
0

> <s_m_source_file>
/data/baiqing/PycharmProjects/Reinvent-master-3.2/result/LINK_invent/BTK/process_docking_weight1_custom_sum_contain_oxygen_bond_distance_aromatic_linkinvent_7_9_3/rearranged_h_0011.sdf

> <i_m_source_file_index>
93

> <r_mmod_Potential_Energy-OPLS-2005>
654.051330566406

> <r_mmod_Stretch_Energy-OPLS-2005>
330.652557373047

> <r_mmod_Bend_Energy-OPLS-2005>
283.027740478516

> <r_mmod_Torsional_Energy-OPLS-2005>
209.337692260742

> <r_mmod_Improper_Torsional_Energy-OPLS-2005>
4.59224319458008

> <r_mmod_Van_der_Waal_Energy-OPLS-2005>
132.448348999023

> <r_mmod_Electrostatic_Energy-OPLS-2005>
-343.72021484375

> <r_mmod_Solvation_Energy-OPLS-2005>
-213.389251708984

> <b_mmod_Minimization_Converged-OPLS-2005>
0

> <r_mmod_RMS_Derivative-OPLS-2005>
1.55685591697693

$$$$
93
                    3D
 Structure written by MMmdl.
159167  0  0  1  0            999 V2000
  -30.5219  -14.9032   20.4483 C   0  0  0  0  0  0
  -30.4550  -12.5577   19.4935 C   0  0  0  0  0  0
  -29.5255  -12.5327   18.2555 C   0  0  0  0  0  0
  -28.0562  -12.3216   18.6703 C   0  0  0  0  0  0
  -27.6407  -13.2366   19.8510 C   0  0  2  0  0  0
  -28.6850  -13.2075   20.9893 C   0  0  0  0  0  0
  -25.2463  -13.8169   20.5610 C   0  0  0  0  0  0
  -24.1791  -13.0418   20.9209 C   0  0  0  0  0  0
  -24.6408  -11.6904   20.8772 C   0  0  0  0  0  0
  -23.9085  -10.4281   21.0423 C   0  0  0  0  0  0
  -24.3628   -9.4191   21.9197 C   0  0  0  0  0  0
  -23.6292   -8.2235   22.0765 C   0  0  0  0  0  0
  -22.4275   -8.0282   21.3551 C   0  0  0  0  0  0
  -21.9919   -9.0259   20.4655 C   0  0  0  0  0  0
  -22.7259  -10.2130   20.3065 C   0  0  0  0  0  0
  -21.6847   -6.0735   22.5277 C   0  0  0  0  0  0
  -21.4013   -6.5640   23.8211 C   0  0  0  0  0  0
  -21.3658   -5.6793   24.9175 C   0  0  0  0  0  0
  -21.6041   -4.3056   24.7225 C   0  0  0  0  0  0
  -21.8820   -3.8147   23.4347 C   0  0  0  0  0  0
  -21.9191   -4.6963   22.3402 C   0  0  0  0  0  0
  -22.7808  -13.5199   21.1864 C   0  0  0  0  0  0
  -22.1659   -4.2150   21.0977 F   0  0  0  0  0  0
  -21.5628   -3.4539   25.7738 F   0  0  0  0  0  0
  -29.9728  -13.6248   20.4127 N   0  0  0  0  0  0
  -26.2928  -12.9402   20.3267 N   0  0  0  0  0  0
  -25.9345  -11.6544   20.5782 N   0  0  0  0  0  0
  -22.0456  -12.8203   22.0430 N   0  0  0  0  0  0
  -25.4039  -15.1874   20.3833 N   0  0  0  0  0  0
  -31.6974  -15.0459   20.0932 O   0  0  0  0  0  0
  -21.6638   -6.8879   21.4240 O   0  0  0  0  0  0
  -22.3490  -14.5500   20.6701 O   0  0  0  0  0  0
  -24.6423  -31.8455   23.1898 C   0  0  0  0  0  0
  -25.9199  -32.4704   23.8282 C   0  0  1  0  0  0
  -27.2243  -27.1549   20.1465 C   0  0  0  0  0  0
  -25.5948  -33.8508   24.2201 N   0  0  0  0  0  0
  -23.4457  -30.4651   21.5353 C   0  0  2  0  0  0
  -24.8954  -28.8942   20.1131 C   0  0  0  0  0  0
  -22.7559  -29.4553   22.4864 C   0  0  0  0  0  0
  -18.0303  -28.1395   22.8472 C   0  0  0  0  0  0
  -24.1489  -36.7258   23.2642 C   0  0  0  0  0  0
  -26.0003  -30.7255   21.3850 C   0  0  0  0  0  0
  -26.0734  -29.3378   20.7276 C   0  0  0  0  0  0
  -27.2392  -28.4855   20.7257 C   0  0  0  0  0  0
  -26.0161  -26.8088   19.4981 C   0  0  0  0  0  0
  -24.8786  -27.6415   19.4840 C   0  0  0  0  0  0
  -23.6720  -29.7948   20.1549 C   0  0  0  0  0  0
  -25.4118  -36.3034   24.0320 C   0  0  1  0  0  0
  -20.5914  -28.3720   23.1227 C   0  0  2  0  0  0
  -20.6784  -26.9426   22.5395 C   0  0  0  0  0  0
  -19.5759  -26.6383   21.5203 C   0  0  0  0  0  0
  -18.1942  -26.7932   22.1619 C   0  0  0  0  0  0
  -19.1561  -28.8874   23.2839 C   0  0  0  0  0  0
  -18.9485  -30.1473   23.8865 C   0  0  0  0  0  0
  -17.6482  -30.6592   24.0559 C   0  0  0  0  0  0
  -25.9069  -34.9411   23.5068 C   0  0  0  0  0  0
  -16.5371  -29.9087   23.6334 C   0  0  0  0  0  0
  -16.7289  -28.6508   23.0347 C   0  0  0  0  0  0
  -26.4527  -31.6567   25.0717 C   0  0  0  0  0  0
  -25.3715  -31.3751   26.1415 C   0  0  0  0  0  0
  -27.0391  -30.2964   24.6286 C   0  0  0  0  0  0
  -27.6060  -32.4330   25.7501 C   0  0  0  0  0  0
  -27.5572  -37.1782   24.8466 C   0  0  0  0  0  0
  -21.4252  -29.3052   22.3606 N   0  0  0  0  0  0
  -26.4282  -37.3746   23.9412 N   0  0  0  0  0  0
  -24.7161  -31.0326   22.0924 N   0  0  0  0  0  0
  -23.4202  -28.8100   23.3013 O   0  0  0  0  0  0
  -28.2903  -26.1872   20.1995 O   0  0  0  0  0  0
  -26.5653  -34.8907   22.4648 O   0  0  0  0  0  0
  -23.5543  -32.1331   23.7123 O   0  0  0  0  0  0
  -30.3484  -18.4520   19.9262 C   0  0  0  0  0  0
  -30.0741  -19.8893   19.8615 C   0  0  0  0  0  0
  -28.5223  -18.1752   21.4140 C   0  0  0  0  0  0
  -29.5740  -17.5090   20.6922 C   0  0  0  0  0  0
  -28.9867  -20.5392   20.5448 C   0  0  0  0  0  0
  -28.2512  -19.6019   21.3420 C   0  0  0  0  0  0
  -27.6467  -17.3169   22.3204 C   0  0  0  0  0  0
  -30.0667  -23.6339   21.4320 C   0  0  0  0  0  0
  -27.5790  -20.6119   23.3374 C   0  0  0  0  0  0
  -27.9945  -24.6641   20.2054 C   0  0  0  0  0  0
  -29.0639  -23.3683   20.3037 C   0  0  2  0  0  0
  -29.6668  -15.9800   20.7696 N   0  0  0  0  0  0
  -28.4903  -21.9389   20.4758 N   0  0  0  0  0  0
  -27.1975  -20.1079   22.0633 O   0  0  0  0  0  0
  -31.4863  -12.7294   19.1808 H   0  0  0  0  0  0
  -30.4544  -11.5902   19.9983 H   0  0  0  0  0  0
  -29.8366  -11.7476   17.5651 H   0  0  0  0  0  0
  -29.6176  -13.4734   17.7102 H   0  0  0  0  0  0
  -27.9433  -11.2760   18.9597 H   0  0  0  0  0  0
  -27.3934  -12.4743   17.8176 H   0  0  0  0  0  0
  -27.6217  -14.2500   19.4493 H   0  0  0  0  0  0
  -28.7595  -12.2088   21.4223 H   0  0  0  0  0  0
  -28.3869  -13.8676   21.8049 H   0  0  0  0  0  0
  -25.2773   -9.5660   22.4775 H   0  0  0  0  0  0
  -23.9993   -7.4625   22.7487 H   0  0  0  0  0  0
  -21.0849   -8.8784   19.8961 H   0  0  0  0  0  0
  -22.3723  -10.9673   19.6176 H   0  0  0  0  0  0
  -21.2006   -7.6149   23.9714 H   0  0  0  0  0  0
  -21.1477   -6.0526   25.9078 H   0  0  0  0  0  0
  -22.0600   -2.7610   23.2847 H   0  0  0  0  0  0
  -22.4072  -11.9867   22.4823 H   0  0  0  0  0  0
  -21.1078  -13.1238   22.2639 H   0  0  0  0  0  0
  -24.6191  -15.8238   20.4665 H   0  0  0  0  0  0
  -26.2181  -15.6186   19.9664 H   0  0  0  0  0  0
  -26.7267  -32.5314   23.1014 H   0  0  0  0  0  0
  -25.0059  -33.9630   25.0321 H   0  0  0  0  0  0
  -22.7482  -31.2903   21.3810 H   0  0  0  0  0  0
  -23.3753  -35.9586   23.3293 H   0  0  0  0  0  0
  -24.3575  -36.8903   22.2059 H   0  0  0  0  0  0
  -23.7248  -37.6452   23.6687 H   0  0  0  0  0  0
  -26.1519  -31.4805   20.6120 H   0  0  0  0  0  0
  -26.8722  -30.7770   22.0252 H   0  0  0  0  0  0
  -28.1387  -28.8233   21.2218 H   0  0  0  0  0  0
  -25.9115  -25.8577   19.0008 H   0  0  0  0  0  0
  -23.9797  -27.2963   18.9919 H   0  0  0  0  0  0
  -23.8087  -30.5696   19.3996 H   0  0  0  0  0  0
  -22.7872  -29.2365   19.8438 H   0  0  0  0  0  0
  -25.1305  -36.1861   25.0811 H   0  0  0  0  0  0
  -21.0008  -28.3316   24.1348 H   0  0  0  0  0  0
  -20.5675  -26.2339   23.3618 H   0  0  0  0  0  0
  -21.6651  -26.7424   22.1201 H   0  0  0  0  0  0
  -19.6921  -25.6289   21.1249 H   0  0  0  0  0  0
  -19.6698  -27.3173   20.6718 H   0  0  0  0  0  0
  -17.4206  -26.6665   21.4030 H   0  0  0  0  0  0
  -18.0354  -26.0086   22.9031 H   0  0  0  0  0  0
  -19.7964  -30.7288   24.2228 H   0  0  0  0  0  0
  -17.5041  -31.6272   24.5164 H   0  0  0  0  0  0
  -15.5372  -30.2979   23.7682 H   0  0  0  0  0  0
  -15.8689  -28.0825   22.7067 H   0  0  0  0  0  0
  -24.5905  -30.7086   25.7739 H   0  0  0  0  0  0
  -24.8888  -32.2927   26.4783 H   0  0  0  0  0  0
  -25.8001  -30.8970   27.0230 H   0  0  0  0  0  0
  -26.3005  -29.6685   24.1289 H   0  0  0  0  0  0
  -27.4005  -29.7265   25.4856 H   0  0  0  0  0  0
  -27.8911  -30.4204   23.9598 H   0  0  0  0  0  0
  -27.2661  -33.3657   26.2014 H   0  0  0  0  0  0
  -28.3904  -32.6849   25.0352 H   0  0  0  0  0  0
  -28.0686  -31.8495   26.5473 H   0  0  0  0  0  0
  -28.2578  -38.0088   24.7509 H   0  0  0  0  0  0
  -28.1081  -36.2618   24.6294 H   0  0  0  0  0  0
  -27.2290  -37.1425   25.8869 H   0  0  0  0  0  0
  -20.9462  -29.8779   21.6796 H   0  0  0  0  0  0
  -26.0149  -38.2811   24.1423 H   0  0  0  0  0  0
  -31.1683  -18.0720   19.3341 H   0  0  0  0  0  0
  -30.7031  -20.4917   19.2226 H   0  0  0  0  0  0
  -27.2398  -16.4697   21.7748 H   0  0  0  0  0  0
  -26.7983  -17.8540   22.7411 H   0  0  0  0  0  0
  -28.2381  -16.9333   23.1519 H   0  0  0  0  0  0
  -30.5653  -24.5931   21.2867 H   0  0  0  0  0  0
  -30.8411  -22.8667   21.4699 H   0  0  0  0  0  0
  -29.5739  -23.6652   22.4041 H   0  0  0  0  0  0
  -26.6893  -20.8938   23.9003 H   0  0  0  0  0  0
  -28.2092  -21.4974   23.2452 H   0  0  0  0  0  0
  -28.1202  -19.8638   23.9189 H   0  0  0  0  0  0
  -27.2805  -24.5282   21.0183 H   0  0  0  0  0  0
  -27.4341  -24.4581   19.2954 H   0  0  0  0  0  0
  -29.6292  -23.3579   19.3702 H   0  0  0  0  0  0
  -28.8142  -15.5896   21.1383 H   0  0  0  0  0  0
  -27.5609  -21.9761   20.8877 H   0  0  0  0  0  0
  1 25  1  0  0  0
  1 30  2  0  0  0
  1 82  1  0  0  0
  2  3  1  0  0  0
  2 25  1  0  0  0
  2 85  1  0  0  0
  2 86  1  0  0  0
  3  4  1  0  0  0
  3 87  1  0  0  0
  3 88  1  0  0  0
  4  5  1  0  0  0
  4 89  1  0  0  0
  4 90  1  0  0  0
  5  6  1  0  0  0
  5 26  1  0  0  0
  5 91  1  0  0  0
  6 25  1  0  0  0
  6 92  1  0  0  0
  6 93  1  0  0  0
  7  8  2  0  0  0
  7 26  1  0  0  0
  7 29  1  0  0  0
  8  9  1  0  0  0
  8 22  1  0  0  0
  9 10  1  0  0  0
  9 27  2  0  0  0
 10 11  2  0  0  0
 10 15  1  0  0  0
 11 12  1  0  0  0
 11 94  1  0  0  0
 12 13  2  0  0  0
 12 95  1  0  0  0
 13 14  1  0  0  0
 13 31  1  0  0  0
 14 15  2  0  0  0
 14 96  1  0  0  0
 15 97  1  0  0  0
 16 17  2  0  0  0
 16 21  1  0  0  0
 16 31  1  0  0  0
 17 18  1  0  0  0
 17 98  1  0  0  0
 18 19  2  0  0  0
 18 99  1  0  0  0
 19 20  1  0  0  0
 19 24  1  0  0  0
 20 21  2  0  0  0
 20100  1  0  0  0
 21 23  1  0  0  0
 22 28  1  0  0  0
 22 32  2  0  0  0
 26 27  1  0  0  0
 28101  1  0  0  0
 28102  1  0  0  0
 29103  1  0  0  0
 29104  1  0  0  0
 33 34  1  0  0  0
 33 66  1  0  0  0
 33 70  2  0  0  0
 34 36  1  0  0  0
 34 59  1  0  0  0
 34105  1  0  0  0
 35 44  2  0  0  0
 35 45  1  0  0  0
 35 68  1  0  0  0
 36 56  1  0  0  0
 36106  1  0  0  0
 37 39  1  0  0  0
 37 47  1  0  0  0
 37 66  1  0  0  0
 37107  1  0  0  0
 38 43  2  0  0  0
 38 46  1  0  0  0
 38 47  1  0  0  0
 39 64  1  0  0  0
 39 67  2  0  0  0
 40 52  1  0  0  0
 40 53  2  0  0  0
 40 58  1  0  0  0
 41108  1  0  0  0
 41109  1  0  0  0
 41110  1  0  0  0
 41 48  1  0  0  0
 42 43  1  0  0  0
 42 66  1  0  0  0
 42111  1  0  0  0
 42112  1  0  0  0
 43 44  1  0  0  0
 44113  1  0  0  0
 45 46  2  0  0  0
 45114  1  0  0  0
 46115  1  0  0  0
 47116  1  0  0  0
 47117  1  0  0  0
 48 56  1  0  0  0
 48 65  1  0  0  0
 48118  1  0  0  0
 49 50  1  0  0  0
 49 53  1  0  0  0
 49 64  1  0  0  0
 49119  1  0  0  0
 50 51  1  0  0  0
 50120  1  0  0  0
 50121  1  0  0  0
 51 52  1  0  0  0
 51122  1  0  0  0
 51123  1  0  0  0
 52124  1  0  0  0
 52125  1  0  0  0
 53 54  1  0  0  0
 54 55  2  0  0  0
 54126  1  0  0  0
 55 57  1  0  0  0
 55127  1  0  0  0
 56 69  2  0  0  0
 57 58  2  0  0  0
 57128  1  0  0  0
 58129  1  0  0  0
 59 60  1  0  0  0
 59 61  1  0  0  0
 59 62  1  0  0  0
 60130  1  0  0  0
 60131  1  0  0  0
 60132  1  0  0  0
 61133  1  0  0  0
 61134  1  0  0  0
 61135  1  0  0  0
 62136  1  0  0  0
 62137  1  0  0  0
 62138  1  0  0  0
 63 65  1  0  0  0
 63139  1  0  0  0
 63140  1  0  0  0
 63141  1  0  0  0
 64142  1  0  0  0
 65143  1  0  0  0
 68 80  1  0  0  0
 71 72  2  0  0  0
 71 74  1  0  0  0
 71144  1  0  0  0
 72 75  1  0  0  0
 72145  1  0  0  0
 73 74  2  0  0  0
 73 76  1  0  0  0
 73 77  1  0  0  0
 74 82  1  0  0  0
 75 76  2  0  0  0
 75 83  1  0  0  0
 76 84  1  0  0  0
 77146  1  0  0  0
 77147  1  0  0  0
 77148  1  0  0  0
 78149  1  0  0  0
 78150  1  0  0  0
 78151  1  0  0  0
 78 81  1  0  0  0
 79 84  1  0  0  0
 79152  1  0  0  0
 79153  1  0  0  0
 79154  1  0  0  0
 80 81  1  0  0  0
 80155  1  0  0  0
 80156  1  0  0  0
 81 83  1  0  0  0
 81157  1  0  0  0
 82158  1  0  0  0
 83159  1  0  0  0
M  ISO  4   1 100  68 101  80 101  82 100
M  END
> <chiral flag>
0

> <version>
0

> <s_m_source_file>
/data/baiqing/PycharmProjects/Reinvent-master-3.2/result/LINK_invent/BTK/process_docking_weight1_custom_sum_contain_oxygen_bond_distance_aromatic_linkinvent_7_9_3/rearranged_h_0011.sdf

> <i_m_source_file_index>
94

> <r_mmod_Potential_Energy-OPLS-2005>
413.816741943359

> <r_mmod_Stretch_Energy-OPLS-2005>
210.68017578125

> <r_mmod_Bend_Energy-OPLS-2005>
285.898498535156

> <r_mmod_Torsional_Energy-OPLS-2005>
248.686096191406

> <r_mmod_Improper_Torsional_Energy-OPLS-2005>
4.7507438659668

> <r_mmod_Van_der_Waal_Energy-OPLS-2005>
133.351348876953

> <r_mmod_Electrostatic_Energy-OPLS-2005>
-424.590850830078

> <r_mmod_Solvation_Energy-OPLS-2005>
-212.271682739258

> <b_mmod_Minimization_Converged-OPLS-2005>
0

> <r_mmod_RMS_Derivative-OPLS-2005>
0.819689512252808

$$$$
94
                    3D
 Structure written by MMmdl.
165173  0  0  1  0            999 V2000
  -30.5948  -14.7577   20.4638 C   0  0  0  0  0  0
  -30.4449  -12.4686   19.4582 C   0  0  0  0  0  0
  -29.5131  -12.4953   18.2262 C   0  0  0  0  0  0
  -28.0397  -12.3110   18.6475 C   0  0  0  0  0  0
  -27.6370  -13.2228   19.8368 C   0  0  2  0  0  0
  -28.6855  -13.1680   20.9670 C   0  0  0  0  0  0
  -25.2507  -13.8167   20.5695 C   0  0  0  0  0  0
  -24.1788  -13.0425   20.9187 C   0  0  0  0  0  0
  -24.6359  -11.6903   20.8731 C   0  0  0  0  0  0
  -23.9040  -10.4293   21.0412 C   0  0  0  0  0  0
  -24.3599   -9.4209   21.9185 C   0  0  0  0  0  0
  -23.6262   -8.2251   22.0766 C   0  0  0  0  0  0
  -22.4236   -8.0297   21.3566 C   0  0  0  0  0  0
  -21.9869   -9.0264   20.4659 C   0  0  0  0  0  0
  -22.7212  -10.2131   20.3062 C   0  0  0  0  0  0
  -21.6847   -6.0725   22.5269 C   0  0  0  0  0  0
  -21.4017   -6.5638   23.8208 C   0  0  0  0  0  0
  -21.3669   -5.6781   24.9160 C   0  0  0  0  0  0
  -21.6042   -4.3038   24.7213 C   0  0  0  0  0  0
  -21.8823   -3.8140   23.4326 C   0  0  0  0  0  0
  -21.9190   -4.6960   22.3385 C   0  0  0  0  0  0
  -22.7812  -13.5230   21.1841 C   0  0  0  0  0  0
  -22.1657   -4.2149   21.0964 F   0  0  0  0  0  0
  -21.5627   -3.4528   25.7722 F   0  0  0  0  0  0
  -29.9809  -13.5293   20.3751 N   0  0  0  0  0  0
  -26.2901  -12.9350   20.3196 N   0  0  0  0  0  0
  -25.9269  -11.6490   20.5675 N   0  0  0  0  0  0
  -22.0428  -12.8273   22.0413 N   0  0  0  0  0  0
  -25.4185  -15.1902   20.4223 N   0  0  0  0  0  0
  -31.8042  -14.8636   20.2509 O   0  0  0  0  0  0
  -21.6630   -6.8876   21.4234 O   0  0  0  0  0  0
  -22.3505  -14.5538   20.6678 O   0  0  0  0  0  0
  -24.6320  -31.8540   23.1951 C   0  0  0  0  0  0
  -25.9141  -32.4739   23.8303 C   0  0  1  0  0  0
  -27.2310  -27.2634   20.1416 C   0  0  0  0  0  0
  -25.5932  -33.8540   24.2234 N   0  0  0  0  0  0
  -23.4292  -30.4752   21.5369 C   0  0  2  0  0  0
  -24.8806  -28.9161   20.1129 C   0  0  0  0  0  0
  -22.7505  -29.4606   22.4883 C   0  0  0  0  0  0
  -18.0305  -28.1385   22.8486 C   0  0  0  0  0  0
  -24.1489  -36.7285   23.2627 C   0  0  0  0  0  0
  -25.9746  -30.7696   21.3731 C   0  0  0  0  0  0
  -26.0513  -29.3905   20.7199 C   0  0  0  0  0  0
  -27.2323  -28.5796   20.7167 C   0  0  0  0  0  0
  -26.0405  -26.8550   19.5043 C   0  0  0  0  0  0
  -24.8813  -27.6571   19.4925 C   0  0  0  0  0  0
  -23.6496  -29.8034   20.1555 C   0  0  0  0  0  0
  -25.4105  -36.3055   24.0319 C   0  0  1  0  0  0
  -20.5908  -28.3706   23.1255 C   0  0  2  0  0  0
  -20.6791  -26.9416   22.5400 C   0  0  0  0  0  0
  -19.5758  -26.6379   21.5214 C   0  0  0  0  0  0
  -18.1945  -26.7926   22.1632 C   0  0  0  0  0  0
  -19.1554  -28.8863   23.2872 C   0  0  0  0  0  0
  -18.9476  -30.1464   23.8892 C   0  0  0  0  0  0
  -17.6470  -30.6580   24.0564 C   0  0  0  0  0  0
  -25.9058  -34.9429   23.5083 C   0  0  0  0  0  0
  -16.5366  -29.9076   23.6320 C   0  0  0  0  0  0
  -16.7290  -28.6493   23.0344 C   0  0  0  0  0  0
  -26.4500  -31.6566   25.0696 C   0  0  0  0  0  0
  -25.3723  -31.3754   26.1425 C   0  0  0  0  0  0
  -27.0324  -30.2966   24.6191 C   0  0  0  0  0  0
  -27.6048  -32.4306   25.7475 C   0  0  0  0  0  0
  -27.5589  -37.1765   24.8440 C   0  0  0  0  0  0
  -21.4209  -29.3053   22.3634 N   0  0  0  0  0  0
  -26.4267  -37.3770   23.9432 N   0  0  0  0  0  0
  -24.6969  -31.0515   22.0910 N   0  0  0  0  0  0
  -23.4208  -28.8151   23.2980 O   0  0  0  0  0  0
  -28.3278  -26.3722   20.1540 O   0  0  0  0  0  0
  -26.5636  -34.8914   22.4657 O   0  0  0  0  0  0
  -23.5467  -32.1361   23.7251 O   0  0  0  0  0  0
  -29.6032  -18.4602   20.1309 C   0  0  0  0  0  0
  -29.8687  -19.9144   22.0589 C   0  0  0  0  0  0
  -30.1915  -17.4815   22.2759 C   0  0  0  0  0  0
  -29.5873  -19.8099   20.6835 C   0  0  0  0  0  0
  -29.9213  -17.2701   20.9046 C   0  0  0  0  0  0
  -30.1349  -18.7767   22.8614 C   0  0  0  0  0  0
  -28.8430  -23.7394   19.9551 C   0  0  0  0  0  0
  -27.7536  -19.1335   24.5726 C   0  0  0  0  0  0
  -31.8709  -18.7337   26.1461 C   0  0  0  0  0  0
  -29.3124  -21.1428   19.8472 C   0  0  0  0  0  0
  -28.1213  -24.9751   20.6877 C   0  0  0  0  0  0
  -29.1571  -19.6705   24.9193 C   0  0  0  0  0  0
  -31.0962  -18.0264   25.0214 C   0  0  0  0  0  0
  -29.7646  -15.8706   20.4333 N   0  0  0  0  0  0
  -28.8450  -22.4537   20.4906 N   0  0  0  0  0  0
  -30.2563  -18.9525   24.2562 N   0  0  0  0  0  0
  -29.3882  -23.9498   18.8690 O   0  0  0  0  0  0
  -31.4832  -12.6154   19.1546 H   0  0  0  0  0  0
  -30.4093  -11.4979   19.9518 H   0  0  0  0  0  0
  -29.8000  -11.7173   17.5159 H   0  0  0  0  0  0
  -29.6258  -13.4414   17.6959 H   0  0  0  0  0  0
  -27.9014  -11.2648   18.9250 H   0  0  0  0  0  0
  -27.3809  -12.4861   17.7965 H   0  0  0  0  0  0
  -27.6232  -14.2372   19.4392 H   0  0  0  0  0  0
  -28.7260  -12.1734   21.4099 H   0  0  0  0  0  0
  -28.4201  -13.8519   21.7757 H   0  0  0  0  0  0
  -25.2749   -9.5679   22.4730 H   0  0  0  0  0  0
  -23.9982   -7.4635   22.7458 H   0  0  0  0  0  0
  -21.0809   -8.8787   19.8943 H   0  0  0  0  0  0
  -22.3689  -10.9669   19.6168 H   0  0  0  0  0  0
  -21.2023   -7.6142   23.9714 H   0  0  0  0  0  0
  -21.1480   -6.0501   25.9070 H   0  0  0  0  0  0
  -22.0590   -2.7593   23.2824 H   0  0  0  0  0  0
  -22.4031  -11.9983   22.4896 H   0  0  0  0  0  0
  -21.1049  -13.1344   22.2561 H   0  0  0  0  0  0
  -24.6502  -15.8386   20.5615 H   0  0  0  0  0  0
  -26.2694  -15.6504   20.1297 H   0  0  0  0  0  0
  -26.7208  -32.5395   23.1044 H   0  0  0  0  0  0
  -25.0056  -33.9664   25.0363 H   0  0  0  0  0  0
  -22.7262  -31.2975   21.3873 H   0  0  0  0  0  0
  -23.3756  -35.9607   23.3218 H   0  0  0  0  0  0
  -24.3612  -36.8984   22.2059 H   0  0  0  0  0  0
  -23.7226  -37.6455   23.6705 H   0  0  0  0  0  0
  -26.1133  -31.5265   20.5997 H   0  0  0  0  0  0
  -26.8510  -30.8219   22.0075 H   0  0  0  0  0  0
  -28.1306  -28.9438   21.1961 H   0  0  0  0  0  0
  -25.9992  -25.8906   19.0187 H   0  0  0  0  0  0
  -23.9885  -27.2890   19.0066 H   0  0  0  0  0  0
  -23.7720  -30.5761   19.3949 H   0  0  0  0  0  0
  -22.7681  -29.2343   19.8547 H   0  0  0  0  0  0
  -25.1273  -36.1875   25.0805 H   0  0  0  0  0  0
  -21.0023  -28.3291   24.1365 H   0  0  0  0  0  0
  -20.5692  -26.2315   23.3610 H   0  0  0  0  0  0
  -21.6657  -26.7435   22.1195 H   0  0  0  0  0  0
  -19.6916  -25.6286   21.1246 H   0  0  0  0  0  0
  -19.6676  -27.3184   20.6736 H   0  0  0  0  0  0
  -17.4205  -26.6670   21.4045 H   0  0  0  0  0  0
  -18.0351  -26.0076   22.9036 H   0  0  0  0  0  0
  -19.7952  -30.7293   24.2245 H   0  0  0  0  0  0
  -17.5020  -31.6262   24.5167 H   0  0  0  0  0  0
  -15.5364  -30.2975   23.7637 H   0  0  0  0  0  0
  -15.8696  -28.0807   22.7049 H   0  0  0  0  0  0
  -24.5867  -30.7131   25.7774 H   0  0  0  0  0  0
  -24.8952  -32.2944   26.4833 H   0  0  0  0  0  0
  -25.8029  -30.8938   27.0211 H   0  0  0  0  0  0
  -26.2897  -29.6722   24.1208 H   0  0  0  0  0  0
  -27.3977  -29.7223   25.4714 H   0  0  0  0  0  0
  -27.8795  -30.4202   23.9442 H   0  0  0  0  0  0
  -27.2645  -33.3615   26.2021 H   0  0  0  0  0  0
  -28.3876  -32.6848   25.0318 H   0  0  0  0  0  0
  -28.0693  -31.8451   26.5418 H   0  0  0  0  0  0
  -28.2514  -38.0151   24.7609 H   0  0  0  0  0  0
  -28.1178  -36.2691   24.6096 H   0  0  0  0  0  0
  -27.2343  -37.1212   25.8846 H   0  0  0  0  0  0
  -20.9390  -29.8780   21.6845 H   0  0  0  0  0  0
  -26.0130  -38.2820   24.1506 H   0  0  0  0  0  0
  -29.3515  -18.3356   19.0873 H   0  0  0  0  0  0
  -29.8616  -20.8954   22.5122 H   0  0  0  0  0  0
  -30.3499  -16.6165   22.9035 H   0  0  0  0  0  0
  -26.9916  -19.7111   25.0988 H   0  0  0  0  0  0
  -27.6293  -18.0895   24.8636 H   0  0  0  0  0  0
  -27.5297  -19.2203   23.5078 H   0  0  0  0  0  0
  -32.4266  -18.0072   26.7410 H   0  0  0  0  0  0
  -31.2214  -19.2707   26.8362 H   0  0  0  0  0  0
  -32.5896  -19.4488   25.7446 H   0  0  0  0  0  0
  -28.5920  -20.8951   19.0674 H   0  0  0  0  0  0
  -30.2418  -21.3615   19.3197 H   0  0  0  0  0  0
  -28.4808  -24.9850   21.7165 H   0  0  0  0  0  0
  -27.0609  -24.7349   20.7618 H   0  0  0  0  0  0
  -29.2732  -19.6094   26.0019 H   0  0  0  0  0  0
  -29.2236  -20.7332   24.6813 H   0  0  0  0  0  0
  -30.4770  -17.2281   25.4315 H   0  0  0  0  0  0
  -31.8317  -17.5513   24.3691 H   0  0  0  0  0  0
  -28.8137  -15.6256   20.2081 H   0  0  0  0  0  0
  -28.3958  -22.3535   21.3902 H   0  0  0  0  0  0
  1 25  1  0  0  0
  1 30  2  0  0  0
  1 84  1  0  0  0
  2  3  1  0  0  0
  2 25  1  0  0  0
  2 88  1  0  0  0
  2 89  1  0  0  0
  3  4  1  0  0  0
  3 90  1  0  0  0
  3 91  1  0  0  0
  4  5  1  0  0  0
  4 92  1  0  0  0
  4 93  1  0  0  0
  5  6  1  0  0  0
  5 26  1  0  0  0
  5 94  1  0  0  0
  6 25  1  0  0  0
  6 95  1  0  0  0
  6 96  1  0  0  0
  7  8  2  0  0  0
  7 26  1  0  0  0
  7 29  1  0  0  0
  8  9  1  0  0  0
  8 22  1  0  0  0
  9 10  1  0  0  0
  9 27  2  0  0  0
 10 11  2  0  0  0
 10 15  1  0  0  0
 11 12  1  0  0  0
 11 97  1  0  0  0
 12 13  2  0  0  0
 12 98  1  0  0  0
 13 14  1  0  0  0
 13 31  1  0  0  0
 14 15  2  0  0  0
 14 99  1  0  0  0
 15100  1  0  0  0
 16 17  2  0  0  0
 16 21  1  0  0  0
 16 31  1  0  0  0
 17 18  1  0  0  0
 17101  1  0  0  0
 18 19  2  0  0  0
 18102  1  0  0  0
 19 20  1  0  0  0
 19 24  1  0  0  0
 20 21  2  0  0  0
 20103  1  0  0  0
 21 23  1  0  0  0
 22 28  1  0  0  0
 22 32  2  0  0  0
 26 27  1  0  0  0
 28104  1  0  0  0
 28105  1  0  0  0
 29106  1  0  0  0
 29107  1  0  0  0
 33 34  1  0  0  0
 33 66  1  0  0  0
 33 70  2  0  0  0
 34 36  1  0  0  0
 34 59  1  0  0  0
 34108  1  0  0  0
 35 44  2  0  0  0
 35 45  1  0  0  0
 35 68  1  0  0  0
 36 56  1  0  0  0
 36109  1  0  0  0
 37 39  1  0  0  0
 37 47  1  0  0  0
 37 66  1  0  0  0
 37110  1  0  0  0
 38 43  2  0  0  0
 38 46  1  0  0  0
 38 47  1  0  0  0
 39 64  1  0  0  0
 39 67  2  0  0  0
 40 52  1  0  0  0
 40 53  2  0  0  0
 40 58  1  0  0  0
 41111  1  0  0  0
 41112  1  0  0  0
 41113  1  0  0  0
 41 48  1  0  0  0
 42 43  1  0  0  0
 42 66  1  0  0  0
 42114  1  0  0  0
 42115  1  0  0  0
 43 44  1  0  0  0
 44116  1  0  0  0
 45 46  2  0  0  0
 45117  1  0  0  0
 46118  1  0  0  0
 47119  1  0  0  0
 47120  1  0  0  0
 48 56  1  0  0  0
 48 65  1  0  0  0
 48121  1  0  0  0
 49 50  1  0  0  0
 49 53  1  0  0  0
 49 64  1  0  0  0
 49122  1  0  0  0
 50 51  1  0  0  0
 50123  1  0  0  0
 50124  1  0  0  0
 51 52  1  0  0  0
 51125  1  0  0  0
 51126  1  0  0  0
 52127  1  0  0  0
 52128  1  0  0  0
 53 54  1  0  0  0
 54 55  2  0  0  0
 54129  1  0  0  0
 55 57  1  0  0  0
 55130  1  0  0  0
 56 69  2  0  0  0
 57 58  2  0  0  0
 57131  1  0  0  0
 58132  1  0  0  0
 59 60  1  0  0  0
 59 61  1  0  0  0
 59 62  1  0  0  0
 60133  1  0  0  0
 60134  1  0  0  0
 60135  1  0  0  0
 61136  1  0  0  0
 61137  1  0  0  0
 61138  1  0  0  0
 62139  1  0  0  0
 62140  1  0  0  0
 62141  1  0  0  0
 63 65  1  0  0  0
 63142  1  0  0  0
 63143  1  0  0  0
 63144  1  0  0  0
 64145  1  0  0  0
 65146  1  0  0  0
 68 81  1  0  0  0
 71 74  2  0  0  0
 71 75  1  0  0  0
 71147  1  0  0  0
 72 74  1  0  0  0
 72 76  2  0  0  0
 72148  1  0  0  0
 73 75  2  0  0  0
 73 76  1  0  0  0
 73149  1  0  0  0
 74 80  1  0  0  0
 75 84  1  0  0  0
 76 86  1  0  0  0
 77 81  1  0  0  0
 77 85  1  0  0  0
 77 87  2  0  0  0
 78 82  1  0  0  0
 78150  1  0  0  0
 78151  1  0  0  0
 78152  1  0  0  0
 79 83  1  0  0  0
 79153  1  0  0  0
 79154  1  0  0  0
 79155  1  0  0  0
 80 85  1  0  0  0
 80156  1  0  0  0
 80157  1  0  0  0
 81158  1  0  0  0
 81159  1  0  0  0
 82 86  1  0  0  0
 82160  1  0  0  0
 82161  1  0  0  0
 83 86  1  0  0  0
 83162  1  0  0  0
 83163  1  0  0  0
 84164  1  0  0  0
 85165  1  0  0  0
M  ISO  4   1 100  68 101  81 101  84 100
M  END
> <chiral flag>
0

> <version>
0

> <s_m_source_file>
/data/baiqing/PycharmProjects/Reinvent-master-3.2/result/LINK_invent/BTK/process_docking_weight1_custom_sum_contain_oxygen_bond_distance_aromatic_linkinvent_7_9_3/rearranged_h_0011.sdf

> <i_m_source_file_index>
95

> <r_mmod_Potential_Energy-OPLS-2005>
134.952484130859

> <r_mmod_Stretch_Energy-OPLS-2005>
124.885749816895

> <r_mmod_Bend_Energy-OPLS-2005>
165.236862182617

> <r_mmod_Torsional_Energy-OPLS-2005>
274.010528564453

> <r_mmod_Improper_Torsional_Energy-OPLS-2005>
12.6237831115723

> <r_mmod_Van_der_Waal_Energy-OPLS-2005>
136.383560180664

> <r_mmod_Electrostatic_Energy-OPLS-2005>
-410.322692871094

> <r_mmod_Solvation_Energy-OPLS-2005>
-259.272216796875

> <b_mmod_Minimization_Converged-OPLS-2005>
0

> <r_mmod_RMS_Derivative-OPLS-2005>
3.28216791152954

$$$$
95
                    3D
 Structure written by MMmdl.
148156  0  0  1  0            999 V2000
  -30.5131  -14.9198   20.4189 C   0  0  0  0  0  0
  -30.4526  -12.5646   19.4858 C   0  0  0  0  0  0
  -29.5242  -12.5333   18.2476 C   0  0  0  0  0  0
  -28.0544  -12.3231   18.6621 C   0  0  0  0  0  0
  -27.6375  -13.2384   19.8422 C   0  0  2  0  0  0
  -28.6834  -13.2231   20.9785 C   0  0  0  0  0  0
  -25.2496  -13.8190   20.5681 C   0  0  0  0  0  0
  -24.1802  -13.0435   20.9227 C   0  0  0  0  0  0
  -24.6406  -11.6915   20.8749 C   0  0  0  0  0  0
  -23.9079  -10.4293   21.0403 C   0  0  0  0  0  0
  -24.3624   -9.4207   21.9183 C   0  0  0  0  0  0
  -23.6290   -8.2247   22.0754 C   0  0  0  0  0  0
  -22.4273   -8.0286   21.3546 C   0  0  0  0  0  0
  -21.9910   -9.0262   20.4650 C   0  0  0  0  0  0
  -22.7245  -10.2137   20.3057 C   0  0  0  0  0  0
  -21.6855   -6.0729   22.5274 C   0  0  0  0  0  0
  -21.4017   -6.5632   23.8207 C   0  0  0  0  0  0
  -21.3661   -5.6785   24.9169 C   0  0  0  0  0  0
  -21.6044   -4.3047   24.7222 C   0  0  0  0  0  0
  -21.8818   -3.8139   23.4344 C   0  0  0  0  0  0
  -21.9194   -4.6957   22.3396 C   0  0  0  0  0  0
  -22.7824  -13.5216   21.1872 C   0  0  0  0  0  0
  -22.1662   -4.2142   21.0977 F   0  0  0  0  0  0
  -21.5629   -3.4536   25.7736 F   0  0  0  0  0  0
  -29.9670  -13.6392   20.3927 N   0  0  0  0  0  0
  -26.2922  -12.9406   20.3231 N   0  0  0  0  0  0
  -25.9336  -11.6546   20.5722 N   0  0  0  0  0  0
  -22.0462  -12.8221   22.0433 N   0  0  0  0  0  0
  -25.4155  -15.1908   20.4036 N   0  0  0  0  0  0
  -31.7052  -15.0537   20.1196 O   0  0  0  0  0  0
  -21.6640   -6.8880   21.4239 O   0  0  0  0  0  0
  -22.3515  -14.5518   20.6704 O   0  0  0  0  0  0
  -24.6445  -31.8448   23.1892 C   0  0  0  0  0  0
  -25.9219  -32.4698   23.8288 C   0  0  1  0  0  0
  -27.2191  -27.1409   20.1382 C   0  0  0  0  0  0
  -25.5966  -33.8504   24.2202 N   0  0  0  0  0  0
  -23.4483  -30.4659   21.5353 C   0  0  2  0  0  0
  -24.8971  -28.8972   20.1104 C   0  0  0  0  0  0
  -22.7581  -29.4551   22.4858 C   0  0  0  0  0  0
  -18.0314  -28.1393   22.8478 C   0  0  0  0  0  0
  -24.1495  -36.7255   23.2643 C   0  0  0  0  0  0
  -26.0058  -30.7191   21.3894 C   0  0  0  0  0  0
  -26.0769  -29.3319   20.7277 C   0  0  0  0  0  0
  -27.2389  -28.4701   20.7260 C   0  0  0  0  0  0
  -26.0095  -26.8117   19.4829 C   0  0  0  0  0  0
  -24.8759  -27.6491   19.4748 C   0  0  0  0  0  0
  -23.6747  -29.7988   20.1538 C   0  0  0  0  0  0
  -25.4127  -36.3032   24.0315 C   0  0  1  0  0  0
  -20.5928  -28.3721   23.1232 C   0  0  2  0  0  0
  -20.6795  -26.9423   22.5403 C   0  0  0  0  0  0
  -19.5764  -26.6376   21.5215 C   0  0  0  0  0  0
  -18.1949  -26.7928   22.1628 C   0  0  0  0  0  0
  -19.1571  -28.8876   23.2846 C   0  0  0  0  0  0
  -18.9481  -30.1472   23.8872 C   0  0  0  0  0  0
  -17.6475  -30.6585   24.0558 C   0  0  0  0  0  0
  -25.9076  -34.9407   23.5065 C   0  0  0  0  0  0
  -16.5369  -29.9077   23.6333 C   0  0  0  0  0  0
  -16.7298  -28.6498   23.0352 C   0  0  0  0  0  0
  -26.4529  -31.6563   25.0731 C   0  0  0  0  0  0
  -25.3706  -31.3769   26.1423 C   0  0  0  0  0  0
  -27.0380  -30.2947   24.6326 C   0  0  0  0  0  0
  -27.6064  -32.4326   25.7512 C   0  0  0  0  0  0
  -27.5571  -37.1798   24.8472 C   0  0  0  0  0  0
  -21.4272  -29.3047   22.3604 N   0  0  0  0  0  0
  -26.4300  -37.3736   23.9392 N   0  0  0  0  0  0
  -24.7194  -31.0305   22.0928 N   0  0  0  0  0  0
  -23.4225  -28.8091   23.3003 O   0  0  0  0  0  0
  -28.2631  -26.1432   20.2027 O   0  0  0  0  0  0
  -26.5659  -34.8901   22.4644 O   0  0  0  0  0  0
  -23.5563  -32.1331   23.7104 O   0  0  0  0  0  0
  -30.5467  -18.5530   20.3175 C   0  0  0  0  0  0
  -30.2667  -19.9941   20.2436 C   0  0  0  0  0  0
  -28.2396  -18.1362   20.5412 C   0  0  0  0  0  0
  -29.5360  -17.5332   20.4758 C   0  0  0  0  0  0
  -28.9451  -20.5750   20.3073 C   0  0  0  0  0  0
  -27.9553  -19.5492   20.4527 C   0  0  0  0  0  0
  -28.9311  -23.3603   20.2549 C   0  0  0  0  0  0
  -27.9079  -24.6402   20.0032 C   0  0  0  0  0  0
  -28.4619  -22.0268   20.1822 N   0  0  0  0  0  0
  -29.6258  -16.0057   20.6082 N   0  0  0  0  0  0
  -30.1189  -23.5899   20.4961 O   0  0  0  0  0  0
  -26.2939  -20.0247   20.5275 Cl  0  0  0  0  0  0
  -31.4840  -12.7355   19.1739 H   0  0  0  0  0  0
  -30.4495  -11.6002   19.9963 H   0  0  0  0  0  0
  -29.8347  -11.7462   17.5589 H   0  0  0  0  0  0
  -29.6175  -13.4724   17.7003 H   0  0  0  0  0  0
  -27.9377  -11.2770   18.9477 H   0  0  0  0  0  0
  -27.3949  -12.4815   17.8081 H   0  0  0  0  0  0
  -27.6101  -14.2486   19.4331 H   0  0  0  0  0  0
  -28.7607  -12.2302   21.4242 H   0  0  0  0  0  0
  -28.3868  -13.8957   21.7843 H   0  0  0  0  0  0
  -25.2768   -9.5676   22.4761 H   0  0  0  0  0  0
  -23.9994   -7.4635   22.7479 H   0  0  0  0  0  0
  -21.0836   -8.8786   19.8962 H   0  0  0  0  0  0
  -22.3703  -10.9676   19.6171 H   0  0  0  0  0  0
  -21.2012   -7.6140   23.9706 H   0  0  0  0  0  0
  -21.1483   -6.0517   25.9070 H   0  0  0  0  0  0
  -22.0596   -2.7604   23.2846 H   0  0  0  0  0  0
  -22.4072  -11.9894   22.4840 H   0  0  0  0  0  0
  -21.1082  -13.1258   22.2625 H   0  0  0  0  0  0
  -24.6311  -15.8289   20.4834 H   0  0  0  0  0  0
  -26.2211  -15.6108   19.9609 H   0  0  0  0  0  0
  -26.7291  -32.5303   23.1022 H   0  0  0  0  0  0
  -25.0090  -33.9621   25.0334 H   0  0  0  0  0  0
  -22.7512  -31.2923   21.3822 H   0  0  0  0  0  0
  -23.3746  -35.9602   23.3329 H   0  0  0  0  0  0
  -24.3571  -36.8859   22.2051 H   0  0  0  0  0  0
  -23.7275  -37.6471   23.6661 H   0  0  0  0  0  0
  -26.1651  -31.4761   20.6202 H   0  0  0  0  0  0
  -26.8749  -30.7658   22.0340 H   0  0  0  0  0  0
  -28.1364  -28.7971   21.2320 H   0  0  0  0  0  0
  -25.8930  -25.8635   18.9823 H   0  0  0  0  0  0
  -23.9751  -27.3111   18.9805 H   0  0  0  0  0  0
  -23.8129  -30.5749   19.3999 H   0  0  0  0  0  0
  -22.7892  -29.2427   19.8417 H   0  0  0  0  0  0
  -25.1318  -36.1868   25.0809 H   0  0  0  0  0  0
  -21.0027  -28.3312   24.1348 H   0  0  0  0  0  0
  -20.5683  -26.2337   23.3624 H   0  0  0  0  0  0
  -21.6661  -26.7417   22.1203 H   0  0  0  0  0  0
  -19.6919  -25.6281   21.1257 H   0  0  0  0  0  0
  -19.6689  -27.3175   20.6735 H   0  0  0  0  0  0
  -17.4213  -26.6677   21.4037 H   0  0  0  0  0  0
  -18.0343  -26.0079   22.9032 H   0  0  0  0  0  0
  -19.7957  -30.7301   24.2227 H   0  0  0  0  0  0
  -17.5023  -31.6261   24.5165 H   0  0  0  0  0  0
  -15.5367  -30.2964   23.7660 H   0  0  0  0  0  0
  -15.8704  -28.0800   22.7073 H   0  0  0  0  0  0
  -24.5888  -30.7112   25.7747 H   0  0  0  0  0  0
  -24.8891  -32.2957   26.4781 H   0  0  0  0  0  0
  -25.7979  -30.8988   27.0244 H   0  0  0  0  0  0
  -26.2997  -29.6679   24.1310 H   0  0  0  0  0  0
  -27.3945  -29.7243   25.4912 H   0  0  0  0  0  0
  -27.8931  -30.4158   23.9673 H   0  0  0  0  0  0
  -27.2660  -33.3637   26.2050 H   0  0  0  0  0  0
  -28.3893  -32.6868   25.0355 H   0  0  0  0  0  0
  -28.0713  -31.8480   26.5459 H   0  0  0  0  0  0
  -28.2621  -38.0059   24.7453 H   0  0  0  0  0  0
  -28.1035  -36.2587   24.6385 H   0  0  0  0  0  0
  -27.2280  -37.1552   25.8876 H   0  0  0  0  0  0
  -20.9484  -29.8767   21.6784 H   0  0  0  0  0  0
  -26.0167  -38.2817   24.1343 H   0  0  0  0  0  0
  -31.5791  -18.2383   20.2537 H   0  0  0  0  0  0
  -31.1047  -20.6640   20.1160 H   0  0  0  0  0  0
  -27.3875  -17.4845   20.6636 H   0  0  0  0  0  0
  -27.0276  -24.4353   20.6135 H   0  0  0  0  0  0
  -27.5916  -24.5256   18.9666 H   0  0  0  0  0  0
  -27.4601  -22.0388   20.0368 H   0  0  0  0  0  0
  -28.7244  -15.6123   20.8296 H   0  0  0  0  0  0
  1 25  1  0  0  0
  1 30  2  0  0  0
  1 80  1  0  0  0
  2  3  1  0  0  0
  2 25  1  0  0  0
  2 83  1  0  0  0
  2 84  1  0  0  0
  3  4  1  0  0  0
  3 85  1  0  0  0
  3 86  1  0  0  0
  4  5  1  0  0  0
  4 87  1  0  0  0
  4 88  1  0  0  0
  5  6  1  0  0  0
  5 26  1  0  0  0
  5 89  1  0  0  0
  6 25  1  0  0  0
  6 90  1  0  0  0
  6 91  1  0  0  0
  7  8  2  0  0  0
  7 26  1  0  0  0
  7 29  1  0  0  0
  8  9  1  0  0  0
  8 22  1  0  0  0
  9 10  1  0  0  0
  9 27  2  0  0  0
 10 11  2  0  0  0
 10 15  1  0  0  0
 11 12  1  0  0  0
 11 92  1  0  0  0
 12 13  2  0  0  0
 12 93  1  0  0  0
 13 14  1  0  0  0
 13 31  1  0  0  0
 14 15  2  0  0  0
 14 94  1  0  0  0
 15 95  1  0  0  0
 16 17  2  0  0  0
 16 21  1  0  0  0
 16 31  1  0  0  0
 17 18  1  0  0  0
 17 96  1  0  0  0
 18 19  2  0  0  0
 18 97  1  0  0  0
 19 20  1  0  0  0
 19 24  1  0  0  0
 20 21  2  0  0  0
 20 98  1  0  0  0
 21 23  1  0  0  0
 22 28  1  0  0  0
 22 32  2  0  0  0
 26 27  1  0  0  0
 28 99  1  0  0  0
 28100  1  0  0  0
 29101  1  0  0  0
 29102  1  0  0  0
 33 34  1  0  0  0
 33 66  1  0  0  0
 33 70  2  0  0  0
 34 36  1  0  0  0
 34 59  1  0  0  0
 34103  1  0  0  0
 35 44  2  0  0  0
 35 45  1  0  0  0
 35 68  1  0  0  0
 36 56  1  0  0  0
 36104  1  0  0  0
 37 39  1  0  0  0
 37 47  1  0  0  0
 37 66  1  0  0  0
 37105  1  0  0  0
 38 43  2  0  0  0
 38 46  1  0  0  0
 38 47  1  0  0  0
 39 64  1  0  0  0
 39 67  2  0  0  0
 40 52  1  0  0  0
 40 53  2  0  0  0
 40 58  1  0  0  0
 41106  1  0  0  0
 41107  1  0  0  0
 41108  1  0  0  0
 41 48  1  0  0  0
 42 43  1  0  0  0
 42 66  1  0  0  0
 42109  1  0  0  0
 42110  1  0  0  0
 43 44  1  0  0  0
 44111  1  0  0  0
 45 46  2  0  0  0
 45112  1  0  0  0
 46113  1  0  0  0
 47114  1  0  0  0
 47115  1  0  0  0
 48 56  1  0  0  0
 48 65  1  0  0  0
 48116  1  0  0  0
 49 50  1  0  0  0
 49 53  1  0  0  0
 49 64  1  0  0  0
 49117  1  0  0  0
 50 51  1  0  0  0
 50118  1  0  0  0
 50119  1  0  0  0
 51 52  1  0  0  0
 51120  1  0  0  0
 51121  1  0  0  0
 52122  1  0  0  0
 52123  1  0  0  0
 53 54  1  0  0  0
 54 55  2  0  0  0
 54124  1  0  0  0
 55 57  1  0  0  0
 55125  1  0  0  0
 56 69  2  0  0  0
 57 58  2  0  0  0
 57126  1  0  0  0
 58127  1  0  0  0
 59 60  1  0  0  0
 59 61  1  0  0  0
 59 62  1  0  0  0
 60128  1  0  0  0
 60129  1  0  0  0
 60130  1  0  0  0
 61131  1  0  0  0
 61132  1  0  0  0
 61133  1  0  0  0
 62134  1  0  0  0
 62135  1  0  0  0
 62136  1  0  0  0
 63 65  1  0  0  0
 63137  1  0  0  0
 63138  1  0  0  0
 63139  1  0  0  0
 64140  1  0  0  0
 65141  1  0  0  0
 68 78  1  0  0  0
 71 72  2  0  0  0
 71 74  1  0  0  0
 71142  1  0  0  0
 72 75  1  0  0  0
 72143  1  0  0  0
 73 74  2  0  0  0
 73 76  1  0  0  0
 73144  1  0  0  0
 74 80  1  0  0  0
 75 76  2  0  0  0
 75 79  1  0  0  0
 76 82  1  0  0  0
 77 78  1  0  0  0
 77 79  1  0  0  0
 77 81  2  0  0  0
 78145  1  0  0  0
 78146  1  0  0  0
 79147  1  0  0  0
 80148  1  0  0  0
M  ISO  4   1 100  68 101  78 101  80 100
M  END
> <chiral flag>
0

> <version>
0

> <s_m_source_file>
/data/baiqing/PycharmProjects/Reinvent-master-3.2/result/LINK_invent/BTK/process_docking_weight1_custom_sum_contain_oxygen_bond_distance_aromatic_linkinvent_7_9_3/rearranged_h_0011.sdf

> <i_m_source_file_index>
96

> <r_mmod_Potential_Energy-OPLS-2005>
407.054107666016

> <r_mmod_Stretch_Energy-OPLS-2005>
219.328079223633

> <r_mmod_Bend_Energy-OPLS-2005>
282.177978515625

> <r_mmod_Torsional_Energy-OPLS-2005>
220.394485473633

> <r_mmod_Improper_Torsional_Energy-OPLS-2005>
5.02419376373291

> <r_mmod_Van_der_Waal_Energy-OPLS-2005>
130.257141113281

> <r_mmod_Electrostatic_Energy-OPLS-2005>
-386.735473632812

> <r_mmod_Solvation_Energy-OPLS-2005>
-246.111587524414

> <b_mmod_Minimization_Converged-OPLS-2005>
0

> <r_mmod_RMS_Derivative-OPLS-2005>
0.945383846759796

$$$$
