0
                    3D
 Structure written by MMmdl.
167174  0  0  1  0            999 V2000
  -30.6851  -14.4961   20.5435 C   0  0  0  0  0  0
  -30.4201  -12.3159   19.4271 C   0  0  0  0  0  0
  -29.4904  -12.5109   18.2094 C   0  0  0  0  0  0
  -28.0116  -12.3718   18.6201 C   0  0  0  0  0  0
  -27.6603  -13.2086   19.8783 C   0  0  2  0  0  0
  -28.7049  -13.0039   21.0014 C   0  0  0  0  0  0
  -25.2593  -13.8178   20.5727 C   0  0  0  0  0  0
  -24.1846  -13.0460   20.9205 C   0  0  0  0  0  0
  -24.6398  -11.6922   20.8745 C   0  0  0  0  0  0
  -23.9064  -10.4312   21.0416 C   0  0  0  0  0  0
  -24.3620   -9.4224   21.9195 C   0  0  0  0  0  0
  -23.6306   -8.2252   22.0752 C   0  0  0  0  0  0
  -22.4286   -8.0287   21.3542 C   0  0  0  0  0  0
  -21.9921   -9.0260   20.4647 C   0  0  0  0  0  0
  -22.7241  -10.2148   20.3069 C   0  0  0  0  0  0
  -21.6861   -6.0745   22.5277 C   0  0  0  0  0  0
  -21.4012   -6.5647   23.8208 C   0  0  0  0  0  0
  -21.3659   -5.6799   24.9174 C   0  0  0  0  0  0
  -21.6046   -4.3064   24.7221 C   0  0  0  0  0  0
  -21.8817   -3.8154   23.4342 C   0  0  0  0  0  0
  -21.9199   -4.6975   22.3401 C   0  0  0  0  0  0
  -22.7870  -13.5251   21.1863 C   0  0  0  0  0  0
  -22.1669   -4.2166   21.0980 F   0  0  0  0  0  0
  -21.5634   -3.4543   25.7730 F   0  0  0  0  0  0
  -30.0324  -13.3069   20.4447 N   0  0  0  0  0  0
  -26.3023  -12.9344   20.3408 N   0  0  0  0  0  0
  -25.9324  -11.6505   20.5785 N   0  0  0  0  0  0
  -22.0504  -12.8230   22.0401 N   0  0  0  0  0  0
  -25.4339  -15.1895   20.4121 N   0  0  0  0  0  0
  -31.8250  -14.6703   20.1043 O   0  0  0  0  0  0
  -21.6642   -6.8892   21.4241 O   0  0  0  0  0  0
  -22.3562  -14.5567   20.6712 O   0  0  0  0  0  0
  -24.6175  -31.8668   23.2077 C   0  0  0  0  0  0
  -25.9071  -32.4807   23.8376 C   0  0  1  0  0  0
  -27.2255  -27.3907   20.1106 C   0  0  0  0  0  0
  -25.5921  -33.8610   24.2312 N   0  0  0  0  0  0
  -23.4035  -30.4917   21.5488 C   0  0  2  0  0  0
  -24.8486  -28.9540   20.1147 C   0  0  0  0  0  0
  -22.7414  -29.4650   22.4970 C   0  0  0  0  0  0
  -18.0285  -28.1384   22.8493 C   0  0  0  0  0  0
  -24.1485  -36.7291   23.2636 C   0  0  0  0  0  0
  -25.9357  -30.8188   21.3669 C   0  0  0  0  0  0
  -26.0104  -29.4504   20.7156 C   0  0  0  0  0  0
  -27.1982  -28.6785   20.7095 C   0  0  0  0  0  0
  -26.0428  -26.9270   19.4883 C   0  0  0  0  0  0
  -24.8627  -27.6943   19.4948 C   0  0  0  0  0  0
  -23.6139  -29.8268   20.1633 C   0  0  0  0  0  0
  -25.4107  -36.3095   24.0332 C   0  0  1  0  0  0
  -20.5877  -28.3648   23.1319 C   0  0  2  0  0  0
  -20.6771  -26.9389   22.5410 C   0  0  0  0  0  0
  -19.5748  -26.6391   21.5203 C   0  0  0  0  0  0
  -18.1931  -26.7934   22.1617 C   0  0  0  0  0  0
  -19.1539  -28.8832   23.2899 C   0  0  0  0  0  0
  -18.9462  -30.1448   23.8891 C   0  0  0  0  0  0
  -17.6464  -30.6579   24.0576 C   0  0  0  0  0  0
  -25.9044  -34.9465   23.5109 C   0  0  0  0  0  0
  -16.5353  -29.9086   23.6350 C   0  0  0  0  0  0
  -16.7275  -28.6516   23.0346 C   0  0  0  0  0  0
  -26.4495  -31.6587   25.0707 C   0  0  0  0  0  0
  -25.3748  -31.3705   26.1445 C   0  0  0  0  0  0
  -27.0322  -30.3029   24.6087 C   0  0  0  0  0  0
  -27.6078  -32.4297   25.7479 C   0  0  0  0  0  0
  -27.5567  -37.1797   24.8471 C   0  0  0  0  0  0
  -21.4137  -29.3022   22.3705 N   0  0  0  0  0  0
  -26.4286  -37.3788   23.9414 N   0  0  0  0  0  0
  -24.6706  -31.0737   22.0987 N   0  0  0  0  0  0
  -23.4175  -28.8207   23.3036 O   0  0  0  0  0  0
  -28.4072  -26.6605   20.1370 O   0  0  0  0  0  0
  -26.5591  -34.8919   22.4662 O   0  0  0  0  0  0
  -23.5359  -32.1464   23.7445 O   0  0  0  0  0  0
  -27.8375  -24.6528   22.4031 C   0  0  0  0  0  0
  -27.8238  -21.6144   19.5459 C   0  0  0  0  0  0
  -27.4307  -19.8761   22.3632 C   0  0  0  0  0  0
  -30.8532  -19.8809   20.6124 C   0  0  0  0  0  0
  -29.3663  -22.9922   21.1056 C   0  0  0  0  0  0
  -30.2178  -16.9542   20.5706 C   0  0  0  0  0  0
  -29.3629  -18.0126   21.3425 C   0  0  0  0  0  0
  -28.4177  -25.2158   19.9751 C   0  0  0  0  0  0
  -28.8647  -24.4771   21.2700 C   0  0  2  0  0  0
  -28.3269  -21.8237   20.9860 C   0  0  2  0  0  0
  -28.7066  -20.4630   21.7123 C   0  0  2  0  0  0
  -29.9316  -15.5466   20.9336 N   0  0  0  0  0  0
  -29.4550  -19.4484   20.8688 N   0  3  1  0  0  0
  -31.4642  -12.4169   19.1248 H   0  0  0  0  0  0
  -30.3203  -11.3056   19.8272 H   0  0  0  0  0  0
  -29.7310  -11.7872   17.4289 H   0  0  0  0  0  0
  -29.6550  -13.4975   17.7711 H   0  0  0  0  0  0
  -27.8151  -11.3163   18.8064 H   0  0  0  0  0  0
  -27.3642  -12.6604   17.7912 H   0  0  0  0  0  0
  -27.6993  -14.2543   19.5730 H   0  0  0  0  0  0
  -28.6855  -11.9741   21.3606 H   0  0  0  0  0  0
  -28.4727  -13.6222   21.8707 H   0  0  0  0  0  0
  -25.2765   -9.5706   22.4769 H   0  0  0  0  0  0
  -24.0028   -7.4638   22.7459 H   0  0  0  0  0  0
  -21.0858   -8.8774   19.8941 H   0  0  0  0  0  0
  -22.3701  -10.9688   19.6181 H   0  0  0  0  0  0
  -21.1986   -7.6150   23.9722 H   0  0  0  0  0  0
  -21.1492   -6.0524   25.9082 H   0  0  0  0  0  0
  -22.0596   -2.7618   23.2828 H   0  0  0  0  0  0
  -22.4111  -11.9880   22.4777 H   0  0  0  0  0  0
  -21.1121  -13.1259   22.2608 H   0  0  0  0  0  0
  -24.6642  -15.8419   20.5078 H   0  0  0  0  0  0
  -26.2738  -15.6196   20.0492 H   0  0  0  0  0  0
  -26.7122  -32.5510   23.1124 H   0  0  0  0  0  0
  -25.0158  -33.9804   25.0512 H   0  0  0  0  0  0
  -22.6930  -31.3090   21.4096 H   0  0  0  0  0  0
  -23.3751  -35.9620   23.3320 H   0  0  0  0  0  0
  -24.3582  -36.8889   22.2047 H   0  0  0  0  0  0
  -23.7237  -37.6498   23.6641 H   0  0  0  0  0  0
  -26.0521  -31.5830   20.5966 H   0  0  0  0  0  0
  -26.8230  -30.8739   21.9858 H   0  0  0  0  0  0
  -28.0936  -29.0619   21.1773 H   0  0  0  0  0  0
  -25.9952  -25.9830   18.9710 H   0  0  0  0  0  0
  -23.9743  -27.3119   19.0116 H   0  0  0  0  0  0
  -23.7244  -30.6036   19.4046 H   0  0  0  0  0  0
  -22.7359  -29.2505   19.8670 H   0  0  0  0  0  0
  -25.1292  -36.1949   25.0823 H   0  0  0  0  0  0
  -20.9979  -28.3208   24.1441 H   0  0  0  0  0  0
  -20.5677  -26.2251   23.3599 H   0  0  0  0  0  0
  -21.6641  -26.7443   22.1193 H   0  0  0  0  0  0
  -19.6905  -25.6310   21.1219 H   0  0  0  0  0  0
  -19.6687  -27.3218   20.6747 H   0  0  0  0  0  0
  -17.4203  -26.6707   21.4017 H   0  0  0  0  0  0
  -18.0304  -26.0069   22.9001 H   0  0  0  0  0  0
  -19.7931  -30.7277   24.2230 H   0  0  0  0  0  0
  -17.5019  -31.6260   24.5175 H   0  0  0  0  0  0
  -15.5358  -30.2978   23.7655 H   0  0  0  0  0  0
  -15.8688  -28.0834   22.7032 H   0  0  0  0  0  0
  -24.5949  -30.7020   25.7782 H   0  0  0  0  0  0
  -24.8908  -32.2870   26.4844 H   0  0  0  0  0  0
  -25.8102  -30.8921   27.0236 H   0  0  0  0  0  0
  -26.2888  -29.6825   24.1065 H   0  0  0  0  0  0
  -27.4031  -29.7223   25.4540 H   0  0  0  0  0  0
  -27.8749  -30.4356   23.9295 H   0  0  0  0  0  0
  -27.2722  -33.3619   26.2046 H   0  0  0  0  0  0
  -28.3911  -32.6821   25.0315 H   0  0  0  0  0  0
  -28.0720  -31.8414   26.5413 H   0  0  0  0  0  0
  -28.2600  -38.0081   24.7528 H   0  0  0  0  0  0
  -28.1053  -36.2619   24.6298 H   0  0  0  0  0  0
  -27.2289  -37.1446   25.8877 H   0  0  0  0  0  0
  -20.9270  -29.8755   21.6960 H   0  0  0  0  0  0
  -26.0164  -38.2864   24.1436 H   0  0  0  0  0  0
  -26.8615  -24.2456   22.1374 H   0  0  0  0  0  0
  -27.6873  -25.7108   22.6273 H   0  0  0  0  0  0
  -28.1702  -24.1672   23.3215 H   0  0  0  0  0  0
  -27.4369  -22.5411   19.1253 H   0  0  0  0  0  0
  -27.0043  -20.8941   19.5131 H   0  0  0  0  0  0
  -28.6115  -21.2608   18.8806 H   0  0  0  0  0  0
  -26.9144  -20.6251   22.9645 H   0  0  0  0  0  0
  -27.6557  -19.0620   23.0513 H   0  0  0  0  0  0
  -26.7240  -19.5142   21.6167 H   0  0  0  0  0  0
  -31.3605  -19.2401   19.8932 H   0  0  0  0  0  0
  -31.4397  -19.8964   21.5319 H   0  0  0  0  0  0
  -30.8872  -20.8766   20.1784 H   0  0  0  0  0  0
  -29.9814  -22.7909   21.9830 H   0  0  0  0  0  0
  -30.0629  -22.9541   20.2686 H   0  0  0  0  0  0
  -31.2803  -17.1418   20.7361 H   0  0  0  0  0  0
  -30.0413  -17.0576   19.4982 H   0  0  0  0  0  0
  -29.6389  -17.9697   22.3962 H   0  0  0  0  0  0
  -28.3219  -17.6921   21.2752 H   0  0  0  0  0  0
  -27.4828  -24.7833   19.6360 H   0  0  0  0  0  0
  -29.1433  -25.0012   19.1902 H   0  0  0  0  0  0
  -29.7539  -25.0190   21.5941 H   0  0  0  0  0  0
  -27.4566  -22.1932   21.5245 H   0  0  0  0  0  0
  -29.3526  -20.7048   22.5583 H   0  0  0  0  0  0
  -29.0101  -15.3296   21.2846 H   0  0  0  0  0  0
  -28.9979  -19.4556   19.9690 H   0  0  0  0  0  0
  1 25  1  0  0  0
  1 30  2  0  0  0
  1 82  1  0  0  0
  2  3  1  0  0  0
  2 25  1  0  0  0
  2 84  1  0  0  0
  2 85  1  0  0  0
  3  4  1  0  0  0
  3 86  1  0  0  0
  3 87  1  0  0  0
  4  5  1  0  0  0
  4 88  1  0  0  0
  4 89  1  0  0  0
  5  6  1  0  0  0
  5 26  1  0  0  0
  5 90  1  0  0  0
  6 25  1  0  0  0
  6 91  1  0  0  0
  6 92  1  0  0  0
  7  8  2  0  0  0
  7 26  1  0  0  0
  7 29  1  0  0  0
  8  9  1  0  0  0
  8 22  1  0  0  0
  9 10  1  0  0  0
  9 27  2  0  0  0
 10 11  2  0  0  0
 10 15  1  0  0  0
 11 12  1  0  0  0
 11 93  1  0  0  0
 12 13  2  0  0  0
 12 94  1  0  0  0
 13 14  1  0  0  0
 13 31  1  0  0  0
 14 15  2  0  0  0
 14 95  1  0  0  0
 15 96  1  0  0  0
 16 17  2  0  0  0
 16 21  1  0  0  0
 16 31  1  0  0  0
 17 18  1  0  0  0
 17 97  1  0  0  0
 18 19  2  0  0  0
 18 98  1  0  0  0
 19 20  1  0  0  0
 19 24  1  0  0  0
 20 21  2  0  0  0
 20 99  1  0  0  0
 21 23  1  0  0  0
 22 28  1  0  0  0
 22 32  2  0  0  0
 26 27  1  0  0  0
 28100  1  0  0  0
 28101  1  0  0  0
 29102  1  0  0  0
 29103  1  0  0  0
 33 34  1  0  0  0
 33 66  1  0  0  0
 33 70  2  0  0  0
 34 36  1  0  0  0
 34 59  1  0  0  0
 34104  1  0  0  0
 35 44  2  0  0  0
 35 45  1  0  0  0
 35 68  1  0  0  0
 36 56  1  0  0  0
 36105  1  0  0  0
 37 39  1  0  0  0
 37 47  1  0  0  0
 37 66  1  0  0  0
 37106  1  0  0  0
 38 43  2  0  0  0
 38 46  1  0  0  0
 38 47  1  0  0  0
 39 64  1  0  0  0
 39 67  2  0  0  0
 40 52  1  0  0  0
 40 53  2  0  0  0
 40 58  1  0  0  0
 41107  1  0  0  0
 41108  1  0  0  0
 41109  1  0  0  0
 41 48  1  0  0  0
 42 43  1  0  0  0
 42 66  1  0  0  0
 42110  1  0  0  0
 42111  1  0  0  0
 43 44  1  0  0  0
 44112  1  0  0  0
 45 46  2  0  0  0
 45113  1  0  0  0
 46114  1  0  0  0
 47115  1  0  0  0
 47116  1  0  0  0
 48 56  1  0  0  0
 48 65  1  0  0  0
 48117  1  0  0  0
 49 50  1  0  0  0
 49 53  1  0  0  0
 49 64  1  0  0  0
 49118  1  0  0  0
 50 51  1  0  0  0
 50119  1  0  0  0
 50120  1  0  0  0
 51 52  1  0  0  0
 51121  1  0  0  0
 51122  1  0  0  0
 52123  1  0  0  0
 52124  1  0  0  0
 53 54  1  0  0  0
 54 55  2  0  0  0
 54125  1  0  0  0
 55 57  1  0  0  0
 55126  1  0  0  0
 56 69  2  0  0  0
 57 58  2  0  0  0
 57127  1  0  0  0
 58128  1  0  0  0
 59 60  1  0  0  0
 59 61  1  0  0  0
 59 62  1  0  0  0
 60129  1  0  0  0
 60130  1  0  0  0
 60131  1  0  0  0
 61132  1  0  0  0
 61133  1  0  0  0
 61134  1  0  0  0
 62135  1  0  0  0
 62136  1  0  0  0
 62137  1  0  0  0
 63 65  1  0  0  0
 63138  1  0  0  0
 63139  1  0  0  0
 63140  1  0  0  0
 64141  1  0  0  0
 65142  1  0  0  0
 68 78  1  0  0  0
 71143  1  0  0  0
 71144  1  0  0  0
 71145  1  0  0  0
 71 79  1  0  0  0
 72146  1  0  0  0
 72147  1  0  0  0
 72148  1  0  0  0
 72 80  1  0  0  0
 73149  1  0  0  0
 73150  1  0  0  0
 73151  1  0  0  0
 73 81  1  0  0  0
 74152  1  0  0  0
 74153  1  0  0  0
 74154  1  0  0  0
 74 83  1  0  0  0
 75 79  1  0  0  0
 75 80  1  0  0  0
 75155  1  0  0  0
 75156  1  0  0  0
 76 77  1  0  0  0
 76 82  1  0  0  0
 76157  1  0  0  0
 76158  1  0  0  0
 77 83  1  0  0  0
 77159  1  0  0  0
 77160  1  0  0  0
 78 79  1  0  0  0
 78161  1  0  0  0
 78162  1  0  0  0
 79163  1  0  0  0
 80 81  1  0  0  0
 80164  1  0  0  0
 81 83  1  0  0  0
 81165  1  0  0  0
 82166  1  0  0  0
 83167  1  0  0  0
M  CHG  1  83   1
M  ISO  4   1 100  68 101  78 101  82 100
M  END
> <chiral flag>
0

> <version>
0

> <s_m_source_file>
/data/baiqing/PycharmProjects/Reinvent-master-3.2/result/LINK_invent/BTK/process_docking_weight1_custom_sum_contain_oxygen_bond_distance_aromatic_linkinvent_7_9_3/rearranged_h_0105.sdf

> <i_m_source_file_index>
1

> <r_mmod_Potential_Energy-OPLS-2005>
-104.060562133789

> <r_mmod_Stretch_Energy-OPLS-2005>
53.4353713989258

> <r_mmod_Bend_Energy-OPLS-2005>
130.83154296875

> <r_mmod_Torsional_Energy-OPLS-2005>
253.172988891602

> <r_mmod_Improper_Torsional_Energy-OPLS-2005>
6.12364292144775

> <r_mmod_Van_der_Waal_Energy-OPLS-2005>
141.003479003906

> <r_mmod_Electrostatic_Energy-OPLS-2005>
-262.702239990234

> <r_mmod_Solvation_Energy-OPLS-2005>
-443.535217285156

> <b_mmod_Minimization_Converged-OPLS-2005>
0

> <r_mmod_RMS_Derivative-OPLS-2005>
2.47181105613708

$$$$
1
                    3D
 Structure written by MMmdl.
157165  0  0  1  0            999 V2000
  -30.6075  -15.2286   20.5619 C   0  0  0  0  0  0
  -30.4582  -12.8093   19.6204 C   0  0  0  0  0  0
  -29.5757  -12.6347   18.3571 C   0  0  0  0  0  0
  -28.1286  -12.3429   18.7689 C   0  0  0  0  0  0
  -27.6463  -13.3044   19.8824 C   0  0  2  0  0  0
  -28.6673  -13.5026   21.0419 C   0  0  0  0  0  0
  -25.2477  -13.8349   20.5849 C   0  0  0  0  0  0
  -24.1848  -13.0520   20.9250 C   0  0  0  0  0  0
  -24.6522  -11.7000   20.8775 C   0  0  0  0  0  0
  -23.9236  -10.4360   21.0396 C   0  0  0  0  0  0
  -24.3745   -9.4231   21.9162 C   0  0  0  0  0  0
  -23.6388   -8.2268   22.0730 C   0  0  0  0  0  0
  -22.4353   -8.0326   21.3552 C   0  0  0  0  0  0
  -22.0027   -9.0332   20.4667 C   0  0  0  0  0  0
  -22.7395  -10.2195   20.3073 C   0  0  0  0  0  0
  -21.6887   -6.0800   22.5292 C   0  0  0  0  0  0
  -21.4039   -6.5682   23.8228 C   0  0  0  0  0  0
  -21.3664   -5.6815   24.9182 C   0  0  0  0  0  0
  -21.6037   -4.3075   24.7227 C   0  0  0  0  0  0
  -21.8820   -3.8185   23.4344 C   0  0  0  0  0  0
  -21.9199   -4.7020   22.3407 C   0  0  0  0  0  0
  -22.7826  -13.5183   21.1881 C   0  0  0  0  0  0
  -22.1657   -4.2202   21.0981 F   0  0  0  0  0  0
  -21.5614   -3.4549   25.7727 F   0  0  0  0  0  0
  -29.9470  -13.9613   20.4661 N   0  0  0  0  0  0
  -26.3041  -12.9715   20.3525 N   0  0  0  0  0  0
  -25.9516  -11.6781   20.5879 N   0  0  0  0  0  0
  -22.0512  -12.8196   22.0439 N   0  0  0  0  0  0
  -25.4103  -15.2128   20.4274 N   0  0  0  0  0  0
  -31.7594  -15.1822   20.1061 O   0  0  0  0  0  0
  -21.6686   -6.8960   21.4265 O   0  0  0  0  0  0
  -22.3485  -14.5478   20.6676 O   0  0  0  0  0  0
  -24.6609  -31.8268   23.1710 C   0  0  0  0  0  0
  -25.9321  -32.4584   23.8171 C   0  0  1  0  0  0
  -27.2392  -26.9554   20.2055 C   0  0  0  0  0  0
  -25.5997  -33.8391   24.2104 N   0  0  0  0  0  0
  -23.4755  -30.4393   21.5168 C   0  0  2  0  0  0
  -24.9308  -28.8209   20.1156 C   0  0  0  0  0  0
  -22.7672  -29.4483   22.4760 C   0  0  0  0  0  0
  -18.0349  -28.1461   22.8468 C   0  0  0  0  0  0
  -24.1485  -36.7193   23.2665 C   0  0  0  0  0  0
  -26.0399  -30.6405   21.3988 C   0  0  0  0  0  0
  -26.1106  -29.2313   20.7491 C   0  0  0  0  0  0
  -27.2530  -28.3188   20.7719 C   0  0  0  0  0  0
  -26.0302  -26.6863   19.5180 C   0  0  0  0  0  0
  -24.9150  -27.5671   19.4809 C   0  0  0  0  0  0
  -23.7155  -29.7475   20.1455 C   0  0  0  0  0  0
  -25.4120  -36.2956   24.0315 C   0  0  1  0  0  0
  -20.5966  -28.3791   23.1180 C   0  0  2  0  0  0
  -20.6825  -26.9465   22.5407 C   0  0  0  0  0  0
  -19.5795  -26.6415   21.5227 C   0  0  0  0  0  0
  -18.1980  -26.7993   22.1634 C   0  0  0  0  0  0
  -19.1611  -28.8948   23.2807 C   0  0  0  0  0  0
  -18.9530  -30.1549   23.8821 C   0  0  0  0  0  0
  -17.6525  -30.6630   24.0581 C   0  0  0  0  0  0
  -25.9088  -34.9332   23.5023 C   0  0  0  0  0  0
  -16.5410  -29.9120   23.6366 C   0  0  0  0  0  0
  -16.7336  -28.6559   23.0338 C   0  0  0  0  0  0
  -26.4605  -31.6524   25.0691 C   0  0  0  0  0  0
  -25.3713  -31.3770   26.1336 C   0  0  0  0  0  0
  -27.0527  -30.2897   24.6426 C   0  0  0  0  0  0
  -27.6132  -32.4323   25.7465 C   0  0  0  0  0  0
  -27.5557  -37.1745   24.8491 C   0  0  0  0  0  0
  -21.4340  -29.3071   22.3500 N   0  0  0  0  0  0
  -26.4276  -37.3680   23.9427 N   0  0  0  0  0  0
  -24.7461  -30.9956   22.0824 N   0  0  0  0  0  0
  -23.4215  -28.8058   23.3011 O   0  0  0  0  0  0
  -28.2756  -25.8922   20.3080 O   0  0  0  0  0  0
  -26.5705  -34.8867   22.4622 O   0  0  0  0  0  0
  -23.5679  -32.1238   23.6817 O   0  0  0  0  0  0
  -30.4292  -19.4851   22.3565 C   0  0  0  0  0  0
  -30.0574  -20.1749   23.4631 C   0  0  0  0  0  0
  -31.4479  -18.3324   22.5017 C   0  0  0  0  0  0
  -30.7518  -16.9175   22.4263 C   0  0  0  0  0  0
  -29.6133  -17.9291   20.4264 C   0  0  0  0  0  0
  -29.8837  -19.6029   20.9143 C   0  0  1  0  0  0
  -28.9148  -21.1576   23.6660 C   0  0  0  0  0  0
  -28.9350  -21.0685   20.4608 C   0  0  0  0  0  0
  -29.1449  -22.8554   20.5683 C   0  0  0  0  0  0
  -28.0923  -24.2646   20.2006 C   0  0  0  0  0  0
  -30.1291  -16.5260   21.1101 N   0  0  0  0  0  0
  -31.4940  -12.9620   19.3163 H   0  0  0  0  0  0
  -30.4753  -11.8912   20.2093 H   0  0  0  0  0  0
  -29.9634  -11.8327   17.7279 H   0  0  0  0  0  0
  -29.6175  -13.5477   17.7545 H   0  0  0  0  0  0
  -28.1046  -11.3183   19.1392 H   0  0  0  0  0  0
  -27.4660  -12.3975   17.9057 H   0  0  0  0  0  0
  -27.5682  -14.2765   19.3876 H   0  0  0  0  0  0
  -28.8052  -12.6049   21.6463 H   0  0  0  0  0  0
  -28.3074  -14.2760   21.7238 H   0  0  0  0  0  0
  -25.2920   -9.5650   22.4734 H   0  0  0  0  0  0
  -24.0099   -7.4665   22.7429 H   0  0  0  0  0  0
  -21.0948   -8.8912   19.8991 H   0  0  0  0  0  0
  -22.3880  -10.9755   19.6182 H   0  0  0  0  0  0
  -21.2037   -7.6190   23.9758 H   0  0  0  0  0  0
  -21.1475   -6.0536   25.9088 H   0  0  0  0  0  0
  -22.0586   -2.7648   23.2828 H   0  0  0  0  0  0
  -22.4211  -11.9920   22.4912 H   0  0  0  0  0  0
  -21.1087  -13.1155   22.2612 H   0  0  0  0  0  0
  -24.6403  -15.8630   20.5379 H   0  0  0  0  0  0
  -26.2703  -15.6658   20.1497 H   0  0  0  0  0  0
  -26.7378  -32.5136   23.0881 H   0  0  0  0  0  0
  -25.0082  -33.9454   25.0209 H   0  0  0  0  0  0
  -22.7900  -31.2699   21.3434 H   0  0  0  0  0  0
  -23.3728  -35.9544   23.3372 H   0  0  0  0  0  0
  -24.3533  -36.8766   22.2066 H   0  0  0  0  0  0
  -23.7268  -37.6421   23.6660 H   0  0  0  0  0  0
  -26.2171  -31.3785   20.6144 H   0  0  0  0  0  0
  -26.9021  -30.7006   22.0516 H   0  0  0  0  0  0
  -28.1396  -28.6288   21.3063 H   0  0  0  0  0  0
  -25.9184  -25.7265   19.0318 H   0  0  0  0  0  0
  -24.0141  -27.2464   18.9756 H   0  0  0  0  0  0
  -23.8689  -30.5158   19.3863 H   0  0  0  0  0  0
  -22.8258  -29.2004   19.8271 H   0  0  0  0  0  0
  -25.1293  -36.1774   25.0800 H   0  0  0  0  0  0
  -21.0067  -28.3439   24.1298 H   0  0  0  0  0  0
  -20.5775  -26.2397   23.3651 H   0  0  0  0  0  0
  -21.6674  -26.7482   22.1161 H   0  0  0  0  0  0
  -19.6955  -25.6312   21.1296 H   0  0  0  0  0  0
  -19.6751  -27.3192   20.6732 H   0  0  0  0  0  0
  -17.4246  -26.6754   21.4040 H   0  0  0  0  0  0
  -18.0361  -26.0156   22.9053 H   0  0  0  0  0  0
  -19.8003  -30.7415   24.2109 H   0  0  0  0  0  0
  -17.5071  -31.6290   24.5235 H   0  0  0  0  0  0
  -15.5402  -30.3004   23.7749 H   0  0  0  0  0  0
  -15.8735  -28.0895   22.7031 H   0  0  0  0  0  0
  -24.5885  -30.7147   25.7644 H   0  0  0  0  0  0
  -24.8912  -32.2948   26.4714 H   0  0  0  0  0  0
  -25.7889  -30.8973   27.0179 H   0  0  0  0  0  0
  -26.3230  -29.6550   24.1401 H   0  0  0  0  0  0
  -27.4050  -29.7287   25.5100 H   0  0  0  0  0  0
  -27.9131  -30.4129   23.9841 H   0  0  0  0  0  0
  -27.2744  -33.3651   26.1980 H   0  0  0  0  0  0
  -28.3936  -32.6840   25.0264 H   0  0  0  0  0  0
  -28.0788  -31.8488   26.5419 H   0  0  0  0  0  0
  -28.2616  -38.0014   24.7460 H   0  0  0  0  0  0
  -28.0999  -36.2526   24.6375 H   0  0  0  0  0  0
  -27.2257  -37.1445   25.8899 H   0  0  0  0  0  0
  -20.9621  -29.8687   21.6546 H   0  0  0  0  0  0
  -26.0137  -38.2746   24.1413 H   0  0  0  0  0  0
  -30.6028  -19.9846   24.3807 H   0  0  0  0  0  0
  -31.9942  -18.4113   23.4545 H   0  0  0  0  0  0
  -32.2494  -18.4305   21.7633 H   0  0  0  0  0  0
  -29.9849  -16.8749   23.2072 H   0  0  0  0  0  0
  -31.4790  -16.1709   22.7670 H   0  0  0  0  0  0
  -29.9477  -17.8594   19.3922 H   0  0  0  0  0  0
  -28.5269  -17.8133   20.3869 H   0  0  0  0  0  0
  -30.8171  -19.8286   20.3885 H   0  0  0  0  0  0
  -28.1018  -21.0161   22.9612 H   0  0  0  0  0  0
  -29.2392  -22.1996   23.6554 H   0  0  0  0  0  0
  -28.4828  -20.9635   24.6510 H   0  0  0  0  0  0
  -27.9443  -20.8770   20.8698 H   0  0  0  0  0  0
  -28.7800  -20.9098   19.3920 H   0  0  0  0  0  0
  -30.0445  -23.0433   19.9779 H   0  0  0  0  0  0
  -29.4707  -23.0392   21.5902 H   0  0  0  0  0  0
  -27.1771  -24.0775   20.7609 H   0  0  0  0  0  0
  -27.7914  -24.1163   19.1642 H   0  0  0  0  0  0
  1 25  1  0  0  0
  1 30  2  0  0  0
  1 81  1  0  0  0
  2  3  1  0  0  0
  2 25  1  0  0  0
  2 82  1  0  0  0
  2 83  1  0  0  0
  3  4  1  0  0  0
  3 84  1  0  0  0
  3 85  1  0  0  0
  4  5  1  0  0  0
  4 86  1  0  0  0
  4 87  1  0  0  0
  5  6  1  0  0  0
  5 26  1  0  0  0
  5 88  1  0  0  0
  6 25  1  0  0  0
  6 89  1  0  0  0
  6 90  1  0  0  0
  7  8  2  0  0  0
  7 26  1  0  0  0
  7 29  1  0  0  0
  8  9  1  0  0  0
  8 22  1  0  0  0
  9 10  1  0  0  0
  9 27  2  0  0  0
 10 11  2  0  0  0
 10 15  1  0  0  0
 11 12  1  0  0  0
 11 91  1  0  0  0
 12 13  2  0  0  0
 12 92  1  0  0  0
 13 14  1  0  0  0
 13 31  1  0  0  0
 14 15  2  0  0  0
 14 93  1  0  0  0
 15 94  1  0  0  0
 16 17  2  0  0  0
 16 21  1  0  0  0
 16 31  1  0  0  0
 17 18  1  0  0  0
 17 95  1  0  0  0
 18 19  2  0  0  0
 18 96  1  0  0  0
 19 20  1  0  0  0
 19 24  1  0  0  0
 20 21  2  0  0  0
 20 97  1  0  0  0
 21 23  1  0  0  0
 22 28  1  0  0  0
 22 32  2  0  0  0
 26 27  1  0  0  0
 28 98  1  0  0  0
 28 99  1  0  0  0
 29100  1  0  0  0
 29101  1  0  0  0
 33 34  1  0  0  0
 33 66  1  0  0  0
 33 70  2  0  0  0
 34 36  1  0  0  0
 34 59  1  0  0  0
 34102  1  0  0  0
 35 44  2  0  0  0
 35 45  1  0  0  0
 35 68  1  0  0  0
 36 56  1  0  0  0
 36103  1  0  0  0
 37 39  1  0  0  0
 37 47  1  0  0  0
 37 66  1  0  0  0
 37104  1  0  0  0
 38 43  2  0  0  0
 38 46  1  0  0  0
 38 47  1  0  0  0
 39 64  1  0  0  0
 39 67  2  0  0  0
 40 52  1  0  0  0
 40 53  2  0  0  0
 40 58  1  0  0  0
 41105  1  0  0  0
 41106  1  0  0  0
 41107  1  0  0  0
 41 48  1  0  0  0
 42 43  1  0  0  0
 42 66  1  0  0  0
 42108  1  0  0  0
 42109  1  0  0  0
 43 44  1  0  0  0
 44110  1  0  0  0
 45 46  2  0  0  0
 45111  1  0  0  0
 46112  1  0  0  0
 47113  1  0  0  0
 47114  1  0  0  0
 48 56  1  0  0  0
 48 65  1  0  0  0
 48115  1  0  0  0
 49 50  1  0  0  0
 49 53  1  0  0  0
 49 64  1  0  0  0
 49116  1  0  0  0
 50 51  1  0  0  0
 50117  1  0  0  0
 50118  1  0  0  0
 51 52  1  0  0  0
 51119  1  0  0  0
 51120  1  0  0  0
 52121  1  0  0  0
 52122  1  0  0  0
 53 54  1  0  0  0
 54 55  2  0  0  0
 54123  1  0  0  0
 55 57  1  0  0  0
 55124  1  0  0  0
 56 69  2  0  0  0
 57 58  2  0  0  0
 57125  1  0  0  0
 58126  1  0  0  0
 59 60  1  0  0  0
 59 61  1  0  0  0
 59 62  1  0  0  0
 60127  1  0  0  0
 60128  1  0  0  0
 60129  1  0  0  0
 61130  1  0  0  0
 61131  1  0  0  0
 61132  1  0  0  0
 62133  1  0  0  0
 62134  1  0  0  0
 62135  1  0  0  0
 63 65  1  0  0  0
 63136  1  0  0  0
 63137  1  0  0  0
 63138  1  0  0  0
 64139  1  0  0  0
 65140  1  0  0  0
 68 80  1  0  0  0
 71 72  2  0  0  0
 71 73  1  0  0  0
 71 76  1  0  0  0
 72 77  1  0  0  0
 72141  1  0  0  0
 73 74  1  0  0  0
 73142  1  0  0  0
 73143  1  0  0  0
 74 81  1  0  0  0
 74144  1  0  0  0
 74145  1  0  0  0
 75 76  1  0  0  0
 75 81  1  0  0  0
 75146  1  0  0  0
 75147  1  0  0  0
 76 78  1  0  0  0
 76148  1  0  0  0
 77149  1  0  0  0
 77150  1  0  0  0
 77151  1  0  0  0
 78 79  1  0  0  0
 78152  1  0  0  0
 78153  1  0  0  0
 79 80  1  0  0  0
 79154  1  0  0  0
 79155  1  0  0  0
 80156  1  0  0  0
 80157  1  0  0  0
M  ISO  4   1 100  68 101  80 101  81 100
M  END
> <chiral flag>
0

> <version>
0

> <s_m_source_file>
/data/baiqing/PycharmProjects/Reinvent-master-3.2/result/LINK_invent/BTK/process_docking_weight1_custom_sum_contain_oxygen_bond_distance_aromatic_linkinvent_7_9_3/rearranged_h_0105.sdf

> <i_m_source_file_index>
2

> <r_mmod_Potential_Energy-OPLS-2005>
1471.28552246094

> <r_mmod_Stretch_Energy-OPLS-2005>
607.995239257812

> <r_mmod_Bend_Energy-OPLS-2005>
466.282348632812

> <r_mmod_Torsional_Energy-OPLS-2005>
331.099365234375

> <r_mmod_Improper_Torsional_Energy-OPLS-2005>
3.72721743583679

> <r_mmod_Van_der_Waal_Energy-OPLS-2005>
115.971069335938

> <r_mmod_Electrostatic_Energy-OPLS-2005>
-280.409484863281

> <r_mmod_Solvation_Energy-OPLS-2005>
-190.376983642578

> <b_mmod_Minimization_Converged-OPLS-2005>
0

> <r_mmod_RMS_Derivative-OPLS-2005>
10.0875520706177

$$$$
2
                    3D
 Structure written by MMmdl.
146153  0  0  1  0            999 V2000
  -30.1629  -16.0086   20.3065 C   0  0  0  0  0  0
  -30.3967  -13.3774   19.5155 C   0  0  0  0  0  0
  -29.5618  -12.7501   18.3505 C   0  0  0  0  0  0
  -28.1716  -12.3081   18.8251 C   0  0  0  0  0  0
  -27.5855  -13.3438   19.8034 C   0  0  2  0  0  0
  -28.5816  -13.8410   20.8873 C   0  0  0  0  0  0
  -25.2287  -13.8334   20.5860 C   0  0  0  0  0  0
  -24.1711  -13.0441   20.9323 C   0  0  0  0  0  0
  -24.6461  -11.6966   20.8768 C   0  0  0  0  0  0
  -23.9166  -10.4298   21.0382 C   0  0  0  0  0  0
  -24.3682   -9.4207   21.9171 C   0  0  0  0  0  0
  -23.6331   -8.2253   22.0745 C   0  0  0  0  0  0
  -22.4313   -8.0295   21.3536 C   0  0  0  0  0  0
  -21.9968   -9.0278   20.4637 C   0  0  0  0  0  0
  -22.7325  -10.2142   20.3038 C   0  0  0  0  0  0
  -21.6866   -6.0748   22.5280 C   0  0  0  0  0  0
  -21.4026   -6.5647   23.8216 C   0  0  0  0  0  0
  -21.3659   -5.6795   24.9173 C   0  0  0  0  0  0
  -21.6045   -4.3058   24.7219 C   0  0  0  0  0  0
  -21.8823   -3.8154   23.4340 C   0  0  0  0  0  0
  -21.9195   -4.6974   22.3398 C   0  0  0  0  0  0
  -22.7708  -13.5141   21.1939 C   0  0  0  0  0  0
  -22.1664   -4.2161   21.0975 F   0  0  0  0  0  0
  -21.5624   -3.4538   25.7728 F   0  0  0  0  0  0
  -29.6784  -14.5855   20.1882 N   0  0  0  0  0  0
  -26.2782  -12.9736   20.3298 N   0  0  0  0  0  0
  -25.9421  -11.6765   20.5682 N   0  0  0  0  0  0
  -22.0376  -12.8111   22.0486 N   0  0  0  0  0  0
  -25.3833  -15.2085   20.4302 N   0  0  0  0  0  0
  -31.4104  -15.8755   20.2841 O   0  0  0  0  0  0
  -21.6658   -6.8900   21.4245 O   0  0  0  0  0  0
  -22.3376  -14.5434   20.6765 O   0  0  0  0  0  0
  -24.7091  -31.7708   23.1303 C   0  0  0  0  0  0
  -25.9550  -32.4319   23.7941 C   0  0  1  0  0  0
  -27.2370  -26.4394   20.2491 C   0  0  0  0  0  0
  -25.6027  -33.8159   24.1806 N   0  0  0  0  0  0
  -23.5463  -30.3615   21.4915 C   0  0  2  0  0  0
  -25.0054  -28.6445   20.1352 C   0  0  0  0  0  0
  -22.7874  -29.4168   22.4653 C   0  0  0  0  0  0
  -18.0355  -28.1437   22.8441 C   0  0  0  0  0  0
  -24.1502  -36.7090   23.2658 C   0  0  0  0  0  0
  -26.1377  -30.4187   21.4327 C   0  0  0  0  0  0
  -26.2010  -28.9514   20.7949 C   0  0  0  0  0  0
  -27.2924  -27.8891   20.8048 C   0  0  0  0  0  0
  -26.0023  -26.4112   19.5308 C   0  0  0  0  0  0
  -24.9599  -27.4018   19.4782 C   0  0  0  0  0  0
  -23.8150  -29.6327   20.1400 C   0  0  0  0  0  0
  -25.4161  -36.2804   24.0258 C   0  0  1  0  0  0
  -20.6000  -28.3812   23.1097 C   0  0  2  0  0  0
  -20.6809  -26.9449   22.5403 C   0  0  0  0  0  0
  -19.5790  -26.6371   21.5214 C   0  0  0  0  0  0
  -18.1974  -26.7959   22.1613 C   0  0  0  0  0  0
  -19.1626  -28.8953   23.2743 C   0  0  0  0  0  0
  -18.9528  -30.1528   23.8802 C   0  0  0  0  0  0
  -17.6514  -30.6612   24.0546 C   0  0  0  0  0  0
  -25.9155  -34.9203   23.4884 C   0  0  0  0  0  0
  -16.5403  -29.9091   23.6359 C   0  0  0  0  0  0
  -16.7333  -28.6513   23.0376 C   0  0  0  0  0  0
  -26.4643  -31.6456   25.0666 C   0  0  0  0  0  0
  -25.3648  -31.3849   26.1239 C   0  0  0  0  0  0
  -27.0610  -30.2765   24.6741 C   0  0  0  0  0  0
  -27.6043  -32.4371   25.7507 C   0  0  0  0  0  0
  -27.5550  -37.1707   24.8470 C   0  0  0  0  0  0
  -21.4500  -29.3015   22.3396 N   0  0  0  0  0  0
  -26.4265  -37.3590   23.9397 N   0  0  0  0  0  0
  -24.8243  -30.8900   22.0698 N   0  0  0  0  0  0
  -23.4198  -28.7813   23.3117 O   0  0  0  0  0  0
  -28.1914  -25.1171   20.2067 O   0  0  0  0  0  0
  -26.5825  -34.8830   22.4521 O   0  0  0  0  0  0
  -23.6055  -32.0905   23.6094 O   0  0  0  0  0  0
  -26.6668  -23.0614   20.5922 C   0  0  0  0  0  0
  -28.7502  -23.3349   21.9537 C   0  0  0  0  0  0
  -28.8051  -21.2981   19.9986 C   0  0  0  0  0  0
  -29.3535  -19.3570   20.6088 C   0  0  0  0  0  0
  -28.1883  -23.2457   20.5297 C   0  0  0  0  0  0
  -29.4107  -17.4738   20.2697 N   0  0  0  0  0  0
  -31.3453  -13.7125   19.0941 H   0  0  0  0  0  0
  -30.6731  -12.6179   20.2492 H   0  0  0  0  0  0
  -30.0952  -11.9093   17.9052 H   0  0  0  0  0  0
  -29.4498  -13.4935   17.5602 H   0  0  0  0  0  0
  -28.2770  -11.3502   19.3366 H   0  0  0  0  0  0
  -27.5050  -12.1377   17.9784 H   0  0  0  0  0  0
  -27.3933  -14.2082   19.1660 H   0  0  0  0  0  0
  -28.9412  -13.0289   21.5217 H   0  0  0  0  0  0
  -28.0793  -14.5419   21.5551 H   0  0  0  0  0  0
  -25.2814   -9.5678   22.4762 H   0  0  0  0  0  0
  -24.0027   -7.4645   22.7473 H   0  0  0  0  0  0
  -21.0893   -8.8817   19.8945 H   0  0  0  0  0  0
  -22.3785  -10.9684   19.6151 H   0  0  0  0  0  0
  -21.2020   -7.6155   23.9725 H   0  0  0  0  0  0
  -21.1480   -6.0518   25.9077 H   0  0  0  0  0  0
  -22.0596   -2.7615   23.2837 H   0  0  0  0  0  0
  -22.4023  -11.9800   22.4905 H   0  0  0  0  0  0
  -21.0968  -13.1086   22.2652 H   0  0  0  0  0  0
  -24.6117  -15.8565   20.5457 H   0  0  0  0  0  0
  -26.2292  -15.6544   20.1010 H   0  0  0  0  0  0
  -26.7661  -32.4729   23.0671 H   0  0  0  0  0  0
  -25.0055  -33.9150   24.9883 H   0  0  0  0  0  0
  -22.8860  -31.2050   21.2777 H   0  0  0  0  0  0
  -23.3769  -35.9413   23.3276 H   0  0  0  0  0  0
  -24.3555  -36.8812   22.2080 H   0  0  0  0  0  0
  -23.7271  -37.6251   23.6789 H   0  0  0  0  0  0
  -26.3629  -31.1221   20.6302 H   0  0  0  0  0  0
  -26.9808  -30.5021   22.1053 H   0  0  0  0  0  0
  -28.1970  -28.1521   21.3344 H   0  0  0  0  0  0
  -25.7963  -25.4946   18.9972 H   0  0  0  0  0  0
  -24.0677  -27.1524   18.9206 H   0  0  0  0  0  0
  -24.0118  -30.3793   19.3695 H   0  0  0  0  0  0
  -22.9144  -29.1116   19.8108 H   0  0  0  0  0  0
  -25.1389  -36.1523   25.0746 H   0  0  0  0  0  0
  -21.0071  -28.3451   24.1227 H   0  0  0  0  0  0
  -20.5647  -26.2443   23.3684 H   0  0  0  0  0  0
  -21.6671  -26.7352   22.1237 H   0  0  0  0  0  0
  -19.6943  -25.6258   21.1301 H   0  0  0  0  0  0
  -19.6737  -27.3133   20.6706 H   0  0  0  0  0  0
  -17.4240  -26.6698   21.4018 H   0  0  0  0  0  0
  -18.0360  -26.0124   22.9031 H   0  0  0  0  0  0
  -19.8004  -30.7367   24.2127 H   0  0  0  0  0  0
  -17.5067  -31.6281   24.5172 H   0  0  0  0  0  0
  -15.5401  -30.2965   23.7742 H   0  0  0  0  0  0
  -15.8732  -28.0802   22.7153 H   0  0  0  0  0  0
  -24.5872  -30.7157   25.7539 H   0  0  0  0  0  0
  -24.8797  -32.3090   26.4382 H   0  0  0  0  0  0
  -25.7770  -30.9198   27.0201 H   0  0  0  0  0  0
  -26.3375  -29.6311   24.1749 H   0  0  0  0  0  0
  -27.3959  -29.7300   25.5567 H   0  0  0  0  0  0
  -27.9383  -30.3834   24.0362 H   0  0  0  0  0  0
  -27.2552  -33.3772   26.1788 H   0  0  0  0  0  0
  -28.4007  -32.6768   25.0450 H   0  0  0  0  0  0
  -28.0541  -31.8699   26.5664 H   0  0  0  0  0  0
  -28.2543  -38.0021   24.7473 H   0  0  0  0  0  0
  -28.1068  -36.2533   24.6354 H   0  0  0  0  0  0
  -27.2253  -37.1407   25.8871 H   0  0  0  0  0  0
  -20.9866  -29.8630   21.6385 H   0  0  0  0  0  0
  -26.0063  -38.2628   24.1390 H   0  0  0  0  0  0
  -26.4009  -22.0964   21.0236 H   0  0  0  0  0  0
  -26.2353  -23.1026   19.5918 H   0  0  0  0  0  0
  -26.1861  -23.8326   21.1943 H   0  0  0  0  0  0
  -28.5964  -22.4034   22.4996 H   0  0  0  0  0  0
  -28.2812  -24.1341   22.5279 H   0  0  0  0  0  0
  -29.8226  -23.5300   21.9322 H   0  0  0  0  0  0
  -28.0600  -21.0613   19.2388 H   0  0  0  0  0  0
  -29.6807  -21.5446   19.3981 H   0  0  0  0  0  0
  -28.8095  -19.3143   21.5522 H   0  0  0  0  0  0
  -30.3824  -19.5185   20.9320 H   0  0  0  0  0  0
  -28.4515  -17.2189   20.0739 H   0  0  0  0  0  0
  1 25  1  0  0  0
  1 30  2  0  0  0
  1 76  1  0  0  0
  2  3  1  0  0  0
  2 25  1  0  0  0
  2 77  1  0  0  0
  2 78  1  0  0  0
  3  4  1  0  0  0
  3 79  1  0  0  0
  3 80  1  0  0  0
  4  5  1  0  0  0
  4 81  1  0  0  0
  4 82  1  0  0  0
  5  6  1  0  0  0
  5 26  1  0  0  0
  5 83  1  0  0  0
  6 25  1  0  0  0
  6 84  1  0  0  0
  6 85  1  0  0  0
  7  8  2  0  0  0
  7 26  1  0  0  0
  7 29  1  0  0  0
  8  9  1  0  0  0
  8 22  1  0  0  0
  9 10  1  0  0  0
  9 27  2  0  0  0
 10 11  2  0  0  0
 10 15  1  0  0  0
 11 12  1  0  0  0
 11 86  1  0  0  0
 12 13  2  0  0  0
 12 87  1  0  0  0
 13 14  1  0  0  0
 13 31  1  0  0  0
 14 15  2  0  0  0
 14 88  1  0  0  0
 15 89  1  0  0  0
 16 17  2  0  0  0
 16 21  1  0  0  0
 16 31  1  0  0  0
 17 18  1  0  0  0
 17 90  1  0  0  0
 18 19  2  0  0  0
 18 91  1  0  0  0
 19 20  1  0  0  0
 19 24  1  0  0  0
 20 21  2  0  0  0
 20 92  1  0  0  0
 21 23  1  0  0  0
 22 28  1  0  0  0
 22 32  2  0  0  0
 26 27  1  0  0  0
 28 93  1  0  0  0
 28 94  1  0  0  0
 29 95  1  0  0  0
 29 96  1  0  0  0
 33 34  1  0  0  0
 33 66  1  0  0  0
 33 70  2  0  0  0
 34 36  1  0  0  0
 34 59  1  0  0  0
 34 97  1  0  0  0
 35 44  2  0  0  0
 35 45  1  0  0  0
 35 68  1  0  0  0
 36 56  1  0  0  0
 36 98  1  0  0  0
 37 39  1  0  0  0
 37 47  1  0  0  0
 37 66  1  0  0  0
 37 99  1  0  0  0
 38 43  2  0  0  0
 38 46  1  0  0  0
 38 47  1  0  0  0
 39 64  1  0  0  0
 39 67  2  0  0  0
 40 52  1  0  0  0
 40 53  2  0  0  0
 40 58  1  0  0  0
 41100  1  0  0  0
 41101  1  0  0  0
 41102  1  0  0  0
 41 48  1  0  0  0
 42 43  1  0  0  0
 42 66  1  0  0  0
 42103  1  0  0  0
 42104  1  0  0  0
 43 44  1  0  0  0
 44105  1  0  0  0
 45 46  2  0  0  0
 45106  1  0  0  0
 46107  1  0  0  0
 47108  1  0  0  0
 47109  1  0  0  0
 48 56  1  0  0  0
 48 65  1  0  0  0
 48110  1  0  0  0
 49 50  1  0  0  0
 49 53  1  0  0  0
 49 64  1  0  0  0
 49111  1  0  0  0
 50 51  1  0  0  0
 50112  1  0  0  0
 50113  1  0  0  0
 51 52  1  0  0  0
 51114  1  0  0  0
 51115  1  0  0  0
 52116  1  0  0  0
 52117  1  0  0  0
 53 54  1  0  0  0
 54 55  2  0  0  0
 54118  1  0  0  0
 55 57  1  0  0  0
 55119  1  0  0  0
 56 69  2  0  0  0
 57 58  2  0  0  0
 57120  1  0  0  0
 58121  1  0  0  0
 59 60  1  0  0  0
 59 61  1  0  0  0
 59 62  1  0  0  0
 60122  1  0  0  0
 60123  1  0  0  0
 60124  1  0  0  0
 61125  1  0  0  0
 61126  1  0  0  0
 61127  1  0  0  0
 62128  1  0  0  0
 62129  1  0  0  0
 62130  1  0  0  0
 63 65  1  0  0  0
 63131  1  0  0  0
 63132  1  0  0  0
 63133  1  0  0  0
 64134  1  0  0  0
 65135  1  0  0  0
 68 75  1  0  0  0
 71136  1  0  0  0
 71137  1  0  0  0
 71138  1  0  0  0
 71 75  1  0  0  0
 72 75  1  0  0  0
 72139  1  0  0  0
 72140  1  0  0  0
 72141  1  0  0  0
 73 74  1  0  0  0
 73 75  1  0  0  0
 73142  1  0  0  0
 73143  1  0  0  0
 74 76  1  0  0  0
 74144  1  0  0  0
 74145  1  0  0  0
 76146  1  0  0  0
M  ISO  4   1 100  68 101  75 101  76 100
M  END
> <chiral flag>
0

> <version>
0

> <s_m_source_file>
/data/baiqing/PycharmProjects/Reinvent-master-3.2/result/LINK_invent/BTK/process_docking_weight1_custom_sum_contain_oxygen_bond_distance_aromatic_linkinvent_7_9_3/rearranged_h_0105.sdf

> <i_m_source_file_index>
3

> <r_mmod_Potential_Energy-OPLS-2005>
4169.37744140625

> <r_mmod_Stretch_Energy-OPLS-2005>
1933.04724121094

> <r_mmod_Bend_Energy-OPLS-2005>
903.995178222656

> <r_mmod_Torsional_Energy-OPLS-2005>
253.204208374023

> <r_mmod_Improper_Torsional_Energy-OPLS-2005>
5.15350961685181

> <r_mmod_Van_der_Waal_Energy-OPLS-2005>
110.03271484375

> <r_mmod_Electrostatic_Energy-OPLS-2005>
-361.536560058594

> <r_mmod_Solvation_Energy-OPLS-2005>
-216.391815185547

> <b_mmod_Minimization_Converged-OPLS-2005>
0

> <r_mmod_RMS_Derivative-OPLS-2005>
0.917530834674835

$$$$
3
                    3D
 Structure written by MMmdl.
161169  0  0  1  0            999 V2000
  -30.6165  -14.7489   20.4979 C   0  0  0  0  0  0
  -30.4503  -12.4744   19.4597 C   0  0  0  0  0  0
  -29.5085  -12.4987   18.2334 C   0  0  0  0  0  0
  -28.0412  -12.3027   18.6628 C   0  0  0  0  0  0
  -27.6411  -13.2239   19.8431 C   0  0  2  0  0  0
  -28.6916  -13.1663   20.9750 C   0  0  0  0  0  0
  -25.2535  -13.8206   20.5690 C   0  0  0  0  0  0
  -24.1829  -13.0431   20.9234 C   0  0  0  0  0  0
  -24.6409  -11.6918   20.8772 C   0  0  0  0  0  0
  -23.9094  -10.4286   21.0411 C   0  0  0  0  0  0
  -24.3626   -9.4217   21.9205 C   0  0  0  0  0  0
  -23.6299   -8.2252   22.0765 C   0  0  0  0  0  0
  -22.4304   -8.0286   21.3526 C   0  0  0  0  0  0
  -21.9928   -9.0265   20.4655 C   0  0  0  0  0  0
  -22.7256  -10.2145   20.3068 C   0  0  0  0  0  0
  -21.6845   -6.0757   22.5279 C   0  0  0  0  0  0
  -21.4002   -6.5642   23.8224 C   0  0  0  0  0  0
  -21.3657   -5.6794   24.9179 C   0  0  0  0  0  0
  -21.6046   -4.3060   24.7225 C   0  0  0  0  0  0
  -21.8811   -3.8160   23.4337 C   0  0  0  0  0  0
  -21.9188   -4.6983   22.3402 C   0  0  0  0  0  0
  -22.7834  -13.5227   21.1873 C   0  0  0  0  0  0
  -22.1658   -4.2154   21.0981 F   0  0  0  0  0  0
  -21.5632   -3.4543   25.7745 F   0  0  0  0  0  0
  -29.9944  -13.5262   20.3921 N   0  0  0  0  0  0
  -26.2933  -12.9368   20.3264 N   0  0  0  0  0  0
  -25.9334  -11.6514   20.5776 N   0  0  0  0  0  0
  -22.0476  -12.8194   22.0421 N   0  0  0  0  0  0
  -25.4222  -15.1928   20.4097 N   0  0  0  0  0  0
  -31.8087  -14.8823   20.2155 O   0  0  0  0  0  0
  -21.6635   -6.8902   21.4251 O   0  0  0  0  0  0
  -22.3515  -14.5504   20.6731 O   0  0  0  0  0  0
  -24.6350  -31.8540   23.2007 C   0  0  0  0  0  0
  -25.9192  -32.4751   23.8362 C   0  0  1  0  0  0
  -27.2269  -27.2657   20.1066 C   0  0  0  0  0  0
  -25.5974  -33.8542   24.2255 N   0  0  0  0  0  0
  -23.4331  -30.4785   21.5510 C   0  0  2  0  0  0
  -24.8751  -28.9289   20.1105 C   0  0  0  0  0  0
  -22.7543  -29.4606   22.4980 C   0  0  0  0  0  0
  -18.0345  -28.1397   22.8537 C   0  0  0  0  0  0
  -24.1535  -36.7286   23.2644 C   0  0  0  0  0  0
  -25.9812  -30.7638   21.3873 C   0  0  0  0  0  0
  -26.0489  -29.3890   20.7194 C   0  0  0  0  0  0
  -27.2241  -28.5701   20.7044 C   0  0  0  0  0  0
  -26.0226  -26.8784   19.4653 C   0  0  0  0  0  0
  -24.8646  -27.6789   19.4744 C   0  0  0  0  0  0
  -23.6488  -29.8186   20.1654 C   0  0  0  0  0  0
  -25.4160  -36.3042   24.0319 C   0  0  1  0  0  0
  -20.5942  -28.3685   23.1280 C   0  0  2  0  0  0
  -20.6846  -26.9412   22.5411 C   0  0  0  0  0  0
  -19.5806  -26.6398   21.5253 C   0  0  0  0  0  0
  -18.1975  -26.7963   22.1649 C   0  0  0  0  0  0
  -19.1608  -28.8866   23.2903 C   0  0  0  0  0  0
  -18.9486  -30.1477   23.8902 C   0  0  0  0  0  0
  -17.6468  -30.6566   24.0599 C   0  0  0  0  0  0
  -25.9072  -34.9415   23.5070 C   0  0  0  0  0  0
  -16.5360  -29.9047   23.6349 C   0  0  0  0  0  0
  -16.7337  -28.6495   23.0339 C   0  0  0  0  0  0
  -26.4514  -31.6603   25.0774 C   0  0  0  0  0  0
  -25.3719  -31.3667   26.1473 C   0  0  0  0  0  0
  -27.0366  -30.3049   24.6219 C   0  0  0  0  0  0
  -27.6059  -32.4368   25.7513 C   0  0  0  0  0  0
  -27.5608  -37.1788   24.8454 C   0  0  0  0  0  0
  -21.4264  -29.3020   22.3679 N   0  0  0  0  0  0
  -26.4313  -37.3755   23.9374 N   0  0  0  0  0  0
  -24.7028  -31.0501   22.1012 N   0  0  0  0  0  0
  -23.4226  -28.8160   23.3110 O   0  0  0  0  0  0
  -28.3507  -26.4041   20.1837 O   0  0  0  0  0  0
  -26.5668  -34.8895   22.4643 O   0  0  0  0  0  0
  -23.5488  -32.1352   23.7286 O   0  0  0  0  0  0
  -29.7219  -21.1337   20.5258 C   0  0  0  0  0  0
  -27.8910  -21.9029   19.1656 C   0  0  0  0  0  0
  -28.8841  -22.2511   20.1020 C   0  0  0  0  0  0
  -29.5661  -19.7798   19.9947 C   0  0  0  0  0  0
  -28.5144  -19.6442   19.0516 C   0  0  0  0  0  0
  -28.2243  -18.3219   18.3515 C   0  0  0  0  0  0
  -30.2820  -24.1680   21.2352 C   0  0  0  0  0  0
  -30.0382  -17.2866   21.2081 C   0  0  0  0  0  0
  -28.3533  -24.9736   19.7103 C   0  0  0  0  0  0
  -28.9177  -23.7671   20.6419 C   0  0  1  0  0  0
  -30.5130  -18.4988   20.2457 C   0  0  2  0  0  0
  -27.7127  -20.6601   18.6702 N   0  0  0  0  0  0
  -29.8135  -15.8449   20.7397 N   0  0  0  0  0  0
  -31.8743  -18.9368   20.6048 N   0  3  0  0  0  0
  -31.4833  -12.6300   19.1426 H   0  0  0  0  0  0
  -30.4299  -11.5026   19.9532 H   0  0  0  0  0  0
  -29.7963  -11.7208   17.5246 H   0  0  0  0  0  0
  -29.6121  -13.4492   17.7087 H   0  0  0  0  0  0
  -27.9269  -11.2599   18.9648 H   0  0  0  0  0  0
  -27.3708  -12.4484   17.8171 H   0  0  0  0  0  0
  -27.6340  -14.2375   19.4441 H   0  0  0  0  0  0
  -28.7349  -12.1692   21.4141 H   0  0  0  0  0  0
  -28.4206  -13.8406   21.7898 H   0  0  0  0  0  0
  -25.2763   -9.5665   22.4787 H   0  0  0  0  0  0
  -23.9999   -7.4627   22.7473 H   0  0  0  0  0  0
  -21.0861   -8.8793   19.8944 H   0  0  0  0  0  0
  -22.3731  -10.9688   19.6175 H   0  0  0  0  0  0
  -21.1993   -7.6149   23.9716 H   0  0  0  0  0  0
  -21.1486   -6.0528   25.9079 H   0  0  0  0  0  0
  -22.0598   -2.7610   23.2841 H   0  0  0  0  0  0
  -22.4082  -11.9867   22.4782 H   0  0  0  0  0  0
  -21.1099  -13.1208   22.2643 H   0  0  0  0  0  0
  -24.6453  -15.8386   20.5100 H   0  0  0  0  0  0
  -26.2584  -15.6303   20.0457 H   0  0  0  0  0  0
  -26.7245  -32.5411   23.1086 H   0  0  0  0  0  0
  -25.0104  -33.9697   25.0391 H   0  0  0  0  0  0
  -22.7303  -31.3041   21.4126 H   0  0  0  0  0  0
  -23.3774  -35.9628   23.3280 H   0  0  0  0  0  0
  -24.3581  -36.8966   22.2052 H   0  0  0  0  0  0
  -23.7316  -37.6498   23.6687 H   0  0  0  0  0  0
  -26.1268  -31.5342   20.6312 H   0  0  0  0  0  0
  -26.8576  -30.7987   22.0272 H   0  0  0  0  0  0
  -28.1267  -28.9234   21.1839 H   0  0  0  0  0  0
  -25.9079  -25.9433   18.9466 H   0  0  0  0  0  0
  -23.9692  -27.3206   18.9809 H   0  0  0  0  0  0
  -23.7760  -30.6050   19.4202 H   0  0  0  0  0  0
  -22.7635  -29.2638   19.8577 H   0  0  0  0  0  0
  -25.1338  -36.1891   25.0807 H   0  0  0  0  0  0
  -21.0039  -28.3294   24.1419 H   0  0  0  0  0  0
  -20.5867  -26.2289   23.3626 H   0  0  0  0  0  0
  -21.6693  -26.7579   22.1146 H   0  0  0  0  0  0
  -19.6965  -25.6318   21.1283 H   0  0  0  0  0  0
  -19.6715  -27.3233   20.6806 H   0  0  0  0  0  0
  -17.4285  -26.6796   21.3999 H   0  0  0  0  0  0
  -18.0300  -26.0064   22.8988 H   0  0  0  0  0  0
  -19.7920  -30.7344   24.2245 H   0  0  0  0  0  0
  -17.4969  -31.6256   24.5178 H   0  0  0  0  0  0
  -15.5323  -30.2881   23.7677 H   0  0  0  0  0  0
  -15.8786  -28.0814   22.6946 H   0  0  0  0  0  0
  -24.5904  -30.7067   25.7699 H   0  0  0  0  0  0
  -24.8894  -32.2780   26.5019 H   0  0  0  0  0  0
  -25.7974  -30.8714   27.0218 H   0  0  0  0  0  0
  -26.2969  -29.6747   24.1266 H   0  0  0  0  0  0
  -27.4099  -29.7383   25.4754 H   0  0  0  0  0  0
  -27.8789  -30.4370   23.9409 H   0  0  0  0  0  0
  -27.2735  -33.3699   26.2083 H   0  0  0  0  0  0
  -28.3807  -32.6919   25.0266 H   0  0  0  0  0  0
  -28.0797  -31.8552   26.5445 H   0  0  0  0  0  0
  -28.2590  -38.0132   24.7550 H   0  0  0  0  0  0
  -28.1151  -36.2651   24.6229 H   0  0  0  0  0  0
  -27.2287  -37.1387   25.8851 H   0  0  0  0  0  0
  -20.9473  -29.8655   21.6808 H   0  0  0  0  0  0
  -26.0195  -38.2820   24.1378 H   0  0  0  0  0  0
  -30.5099  -21.3195   21.2402 H   0  0  0  0  0  0
  -27.1820  -22.6310   18.8015 H   0  0  0  0  0  0
  -29.0320  -18.0980   17.6523 H   0  0  0  0  0  0
  -27.2939  -18.3531   17.7783 H   0  0  0  0  0  0
  -28.1496  -17.5087   19.0778 H   0  0  0  0  0  0
  -30.5814  -23.5082   22.0491 H   0  0  0  0  0  0
  -30.2323  -25.1743   21.6608 H   0  0  0  0  0  0
  -31.0697  -24.1628   20.4775 H   0  0  0  0  0  0
  -29.0571  -17.5908   21.5821 H   0  0  0  0  0  0
  -30.6515  -17.2566   22.1107 H   0  0  0  0  0  0
  -27.3524  -24.6627   19.4315 H   0  0  0  0  0  0
  -28.9183  -24.9793   18.7732 H   0  0  0  0  0  0
  -28.2255  -23.7272   21.4846 H   0  0  0  0  0  0
  -30.6699  -18.0465   19.2674 H   0  0  0  0  0  0
  -28.8438  -15.5749   20.7998 H   0  0  0  0  0  0
  -31.9149  -19.3777   21.5050 H   0  0  0  0  0  0
  -32.2287  -19.5668   19.9094 H   0  0  0  0  0  0
  -32.4921  -18.1466   20.6145 H   0  0  0  0  0  0
  1 25  1  0  0  0
  1 30  2  0  0  0
  1 83  1  0  0  0
  2  3  1  0  0  0
  2 25  1  0  0  0
  2 85  1  0  0  0
  2 86  1  0  0  0
  3  4  1  0  0  0
  3 87  1  0  0  0
  3 88  1  0  0  0
  4  5  1  0  0  0
  4 89  1  0  0  0
  4 90  1  0  0  0
  5  6  1  0  0  0
  5 26  1  0  0  0
  5 91  1  0  0  0
  6 25  1  0  0  0
  6 92  1  0  0  0
  6 93  1  0  0  0
  7  8  2  0  0  0
  7 26  1  0  0  0
  7 29  1  0  0  0
  8  9  1  0  0  0
  8 22  1  0  0  0
  9 10  1  0  0  0
  9 27  2  0  0  0
 10 11  2  0  0  0
 10 15  1  0  0  0
 11 12  1  0  0  0
 11 94  1  0  0  0
 12 13  2  0  0  0
 12 95  1  0  0  0
 13 14  1  0  0  0
 13 31  1  0  0  0
 14 15  2  0  0  0
 14 96  1  0  0  0
 15 97  1  0  0  0
 16 17  2  0  0  0
 16 21  1  0  0  0
 16 31  1  0  0  0
 17 18  1  0  0  0
 17 98  1  0  0  0
 18 19  2  0  0  0
 18 99  1  0  0  0
 19 20  1  0  0  0
 19 24  1  0  0  0
 20 21  2  0  0  0
 20100  1  0  0  0
 21 23  1  0  0  0
 22 28  1  0  0  0
 22 32  2  0  0  0
 26 27  1  0  0  0
 28101  1  0  0  0
 28102  1  0  0  0
 29103  1  0  0  0
 29104  1  0  0  0
 33 34  1  0  0  0
 33 66  1  0  0  0
 33 70  2  0  0  0
 34 36  1  0  0  0
 34 59  1  0  0  0
 34105  1  0  0  0
 35 44  2  0  0  0
 35 45  1  0  0  0
 35 68  1  0  0  0
 36 56  1  0  0  0
 36106  1  0  0  0
 37 39  1  0  0  0
 37 47  1  0  0  0
 37 66  1  0  0  0
 37107  1  0  0  0
 38 43  2  0  0  0
 38 46  1  0  0  0
 38 47  1  0  0  0
 39 64  1  0  0  0
 39 67  2  0  0  0
 40 52  1  0  0  0
 40 53  2  0  0  0
 40 58  1  0  0  0
 41108  1  0  0  0
 41109  1  0  0  0
 41110  1  0  0  0
 41 48  1  0  0  0
 42 43  1  0  0  0
 42 66  1  0  0  0
 42111  1  0  0  0
 42112  1  0  0  0
 43 44  1  0  0  0
 44113  1  0  0  0
 45 46  2  0  0  0
 45114  1  0  0  0
 46115  1  0  0  0
 47116  1  0  0  0
 47117  1  0  0  0
 48 56  1  0  0  0
 48 65  1  0  0  0
 48118  1  0  0  0
 49 50  1  0  0  0
 49 53  1  0  0  0
 49 64  1  0  0  0
 49119  1  0  0  0
 50 51  1  0  0  0
 50120  1  0  0  0
 50121  1  0  0  0
 51 52  1  0  0  0
 51122  1  0  0  0
 51123  1  0  0  0
 52124  1  0  0  0
 52125  1  0  0  0
 53 54  1  0  0  0
 54 55  2  0  0  0
 54126  1  0  0  0
 55 57  1  0  0  0
 55127  1  0  0  0
 56 69  2  0  0  0
 57 58  2  0  0  0
 57128  1  0  0  0
 58129  1  0  0  0
 59 60  1  0  0  0
 59 61  1  0  0  0
 59 62  1  0  0  0
 60130  1  0  0  0
 60131  1  0  0  0
 60132  1  0  0  0
 61133  1  0  0  0
 61134  1  0  0  0
 61135  1  0  0  0
 62136  1  0  0  0
 62137  1  0  0  0
 62138  1  0  0  0
 63 65  1  0  0  0
 63139  1  0  0  0
 63140  1  0  0  0
 63141  1  0  0  0
 64142  1  0  0  0
 65143  1  0  0  0
 68 79  1  0  0  0
 71 73  2  0  0  0
 71 74  1  0  0  0
 71144  1  0  0  0
 72 73  1  0  0  0
 72 82  2  0  0  0
 72145  1  0  0  0
 73 80  1  0  0  0
 74 75  2  0  0  0
 74 81  1  0  0  0
 75 76  1  0  0  0
 75 82  1  0  0  0
 76146  1  0  0  0
 76147  1  0  0  0
 76148  1  0  0  0
 77149  1  0  0  0
 77150  1  0  0  0
 77151  1  0  0  0
 77 80  1  0  0  0
 78 81  1  0  0  0
 78 83  1  0  0  0
 78152  1  0  0  0
 78153  1  0  0  0
 79 80  1  0  0  0
 79154  1  0  0  0
 79155  1  0  0  0
 80156  1  0  0  0
 81 84  1  0  0  0
 81157  1  0  0  0
 83158  1  0  0  0
 84159  1  0  0  0
 84160  1  0  0  0
 84161  1  0  0  0
M  CHG  1  84   1
M  ISO  4   1 100  68 101  79 101  83 100
M  END
> <chiral flag>
0

> <version>
0

> <s_m_source_file>
/data/baiqing/PycharmProjects/Reinvent-master-3.2/result/LINK_invent/BTK/process_docking_weight1_custom_sum_contain_oxygen_bond_distance_aromatic_linkinvent_7_9_3/rearranged_h_0105.sdf

> <i_m_source_file_index>
4

> <r_mmod_Potential_Energy-OPLS-2005>
-223.394424438477

> <r_mmod_Stretch_Energy-OPLS-2005>
132.492599487305

> <r_mmod_Bend_Energy-OPLS-2005>
196.802169799805

> <r_mmod_Torsional_Energy-OPLS-2005>
251.308868408203

> <r_mmod_Improper_Torsional_Energy-OPLS-2005>
5.21095085144043

> <r_mmod_Van_der_Waal_Energy-OPLS-2005>
141.050918579102

> <r_mmod_Electrostatic_Energy-OPLS-2005>
-532.350280761719

> <r_mmod_Solvation_Energy-OPLS-2005>
-504.891937255859

> <b_mmod_Minimization_Converged-OPLS-2005>
0

> <r_mmod_RMS_Derivative-OPLS-2005>
6.39013385772705

$$$$
4
                    3D
 Structure written by MMmdl.
168176  0  0  1  0            999 V2000
  -30.5792  -14.8909   20.4649 C   0  0  0  0  0  0
  -30.4427  -12.5624   19.4847 C   0  0  0  0  0  0
  -29.5122  -12.5165   18.2495 C   0  0  0  0  0  0
  -28.0447  -12.3101   18.6749 C   0  0  0  0  0  0
  -27.6324  -13.2430   19.8423 C   0  0  2  0  0  0
  -28.6803  -13.2515   20.9757 C   0  0  0  0  0  0
  -25.2459  -13.8200   20.5736 C   0  0  0  0  0  0
  -24.1763  -13.0435   20.9238 C   0  0  0  0  0  0
  -24.6382  -11.6923   20.8780 C   0  0  0  0  0  0
  -23.9054  -10.4282   21.0432 C   0  0  0  0  0  0
  -24.3617   -9.4208   21.9212 C   0  0  0  0  0  0
  -23.6310   -8.2235   22.0773 C   0  0  0  0  0  0
  -22.4280   -8.0269   21.3557 C   0  0  0  0  0  0
  -21.9916   -9.0237   20.4652 C   0  0  0  0  0  0
  -22.7238  -10.2121   20.3072 C   0  0  0  0  0  0
  -21.6840   -6.0731   22.5289 C   0  0  0  0  0  0
  -21.4001   -6.5640   23.8218 C   0  0  0  0  0  0
  -21.3646   -5.6798   24.9183 C   0  0  0  0  0  0
  -21.6052   -4.3061   24.7234 C   0  0  0  0  0  0
  -21.8807   -3.8139   23.4351 C   0  0  0  0  0  0
  -21.9197   -4.6962   22.3417 C   0  0  0  0  0  0
  -22.7786  -13.5224   21.1903 C   0  0  0  0  0  0
  -22.1662   -4.2140   21.0992 F   0  0  0  0  0  0
  -21.5631   -3.4550   25.7749 F   0  0  0  0  0  0
  -29.9597  -13.6529   20.3719 N   0  0  0  0  0  0
  -26.2875  -12.9437   20.3287 N   0  0  0  0  0  0
  -25.9319  -11.6565   20.5810 N   0  0  0  0  0  0
  -22.0449  -12.8176   22.0434 N   0  0  0  0  0  0
  -25.4150  -15.1923   20.4102 N   0  0  0  0  0  0
  -31.7949  -14.9500   20.2719 O   0  0  0  0  0  0
  -21.6641   -6.8871   21.4237 O   0  0  0  0  0  0
  -22.3471  -14.5543   20.6772 O   0  0  0  0  0  0
  -24.6346  -31.8466   23.1830 C   0  0  0  0  0  0
  -25.9108  -32.4744   23.8224 C   0  0  1  0  0  0
  -27.2488  -27.1574   20.1508 C   0  0  0  0  0  0
  -25.5929  -33.8552   24.2165 N   0  0  0  0  0  0
  -23.4412  -30.4614   21.5234 C   0  0  2  0  0  0
  -24.8971  -28.8833   20.1022 C   0  0  0  0  0  0
  -22.7541  -29.4567   22.4810 C   0  0  0  0  0  0
  -18.0307  -28.1367   22.8489 C   0  0  0  0  0  0
  -24.1483  -36.7269   23.2646 C   0  0  0  0  0  0
  -25.9908  -30.7199   21.3805 C   0  0  0  0  0  0
  -26.0668  -29.3304   20.7306 C   0  0  0  0  0  0
  -27.2301  -28.4832   20.7432 C   0  0  0  0  0  0
  -26.0532  -26.8059   19.4784 C   0  0  0  0  0  0
  -24.9040  -27.6321   19.4627 C   0  0  0  0  0  0
  -23.6720  -29.7818   20.1434 C   0  0  0  0  0  0
  -25.4101  -36.3059   24.0338 C   0  0  1  0  0  0
  -20.5908  -28.3711   23.1209 C   0  0  2  0  0  0
  -20.6784  -26.9416   22.5414 C   0  0  0  0  0  0
  -19.5773  -26.6334   21.5216 C   0  0  0  0  0  0
  -18.1939  -26.7936   22.1583 C   0  0  0  0  0  0
  -19.1560  -28.8852   23.2845 C   0  0  0  0  0  0
  -18.9520  -30.1453   23.8872 C   0  0  0  0  0  0
  -17.6522  -30.6591   24.0602 C   0  0  0  0  0  0
  -25.9059  -34.9479   23.5051 C   0  0  0  0  0  0
  -16.5407  -29.9091   23.6399 C   0  0  0  0  0  0
  -16.7284  -28.6501   23.0412 C   0  0  0  0  0  0
  -26.4412  -31.6632   25.0691 C   0  0  0  0  0  0
  -25.3615  -31.3828   26.1403 C   0  0  0  0  0  0
  -27.0309  -30.3045   24.6304 C   0  0  0  0  0  0
  -27.5931  -32.4456   25.7442 C   0  0  0  0  0  0
  -27.5550  -37.1740   24.8447 C   0  0  0  0  0  0
  -21.4228  -29.3081   22.3594 N   0  0  0  0  0  0
  -26.4215  -37.3809   23.9479 N   0  0  0  0  0  0
  -24.7099  -31.0315   22.0854 N   0  0  0  0  0  0
  -23.4175  -28.8153   23.2993 O   0  0  0  0  0  0
  -28.3488  -26.2236   20.2626 O   0  0  0  0  0  0
  -26.5631  -34.8988   22.4607 O   0  0  0  0  0  0
  -23.5462  -32.1318   23.7006 O   0  0  0  0  0  0
  -28.4010  -23.1803   17.8616 C   0  0  0  0  0  0
  -28.2894  -21.9353   18.8003 C   0  0  0  0  0  0
  -28.9096  -24.4971   18.5170 C   0  0  0  0  0  0
  -28.9599  -23.4209   20.7440 C   0  0  0  0  0  0
  -29.2883  -21.9680   19.9694 C   0  0  1  0  0  0
  -28.3006  -24.7108   19.9070 C   0  0  1  0  0  0
  -31.8820  -17.2357   17.6935 C   0  0  0  0  0  0
  -30.1292  -18.5236   16.4638 C   0  0  0  0  0  0
  -29.5235  -20.4725   20.7337 C   0  0  0  0  0  0
  -30.1042  -17.5761   20.9217 C   0  0  0  0  0  0
  -30.5319  -17.9603   17.8375 C   0  0  0  0  0  0
  -29.6786  -18.9380   20.0267 C   0  0  2  0  0  0
  -29.8046  -16.0685   20.5701 N   0  0  0  0  0  0
  -30.6008  -19.0406   18.8620 N   0  3  0  0  0  0
  -31.4758  -12.7207   19.1708 H   0  0  0  0  0  0
  -30.4338  -11.6072   20.0110 H   0  0  0  0  0  0
  -29.8186  -11.7126   17.5780 H   0  0  0  0  0  0
  -29.6006  -13.4434   17.6835 H   0  0  0  0  0  0
  -27.9345  -11.2687   18.9778 H   0  0  0  0  0  0
  -27.3762  -12.4487   17.8241 H   0  0  0  0  0  0
  -27.5999  -14.2478   19.4214 H   0  0  0  0  0  0
  -28.7555  -12.2659   21.4406 H   0  0  0  0  0  0
  -28.3875  -13.9443   21.7680 H   0  0  0  0  0  0
  -25.2760   -9.5681   22.4797 H   0  0  0  0  0  0
  -24.0006   -7.4621   22.7476 H   0  0  0  0  0  0
  -21.0865   -8.8746   19.8950 H   0  0  0  0  0  0
  -22.3711  -10.9660   19.6177 H   0  0  0  0  0  0
  -21.1963   -7.6140   23.9717 H   0  0  0  0  0  0
  -21.1483   -6.0531   25.9087 H   0  0  0  0  0  0
  -22.0591   -2.7601   23.2866 H   0  0  0  0  0  0
  -22.4074  -11.9817   22.4781 H   0  0  0  0  0  0
  -21.1070  -13.1192   22.2702 H   0  0  0  0  0  0
  -24.6434  -15.8446   20.4891 H   0  0  0  0  0  0
  -26.2565  -15.6198   20.0420 H   0  0  0  0  0  0
  -26.7173  -32.5323   23.0930 H   0  0  0  0  0  0
  -25.0308  -33.9703   25.0477 H   0  0  0  0  0  0
  -22.7448  -31.2848   21.3567 H   0  0  0  0  0  0
  -23.3789  -35.9557   23.3273 H   0  0  0  0  0  0
  -24.3557  -36.8910   22.2062 H   0  0  0  0  0  0
  -23.7199  -37.6437   23.6706 H   0  0  0  0  0  0
  -26.1347  -31.4720   20.6038 H   0  0  0  0  0  0
  -26.8665  -30.7759   22.0159 H   0  0  0  0  0  0
  -28.1099  -28.8250   21.2693 H   0  0  0  0  0  0
  -25.9747  -25.8605   18.9612 H   0  0  0  0  0  0
  -24.0193  -27.2924   18.9404 H   0  0  0  0  0  0
  -23.7873  -30.5548   19.3815 H   0  0  0  0  0  0
  -22.7960  -29.2042   19.8427 H   0  0  0  0  0  0
  -25.1273  -36.1853   25.0832 H   0  0  0  0  0  0
  -20.9983  -28.3299   24.1304 H   0  0  0  0  0  0
  -20.5722  -26.2335   23.3643 H   0  0  0  0  0  0
  -21.6647  -26.7465   22.1179 H   0  0  0  0  0  0
  -19.7028  -25.6228   21.1273 H   0  0  0  0  0  0
  -19.6744  -27.3142   20.6754 H   0  0  0  0  0  0
  -17.4246  -26.6746   21.3940 H   0  0  0  0  0  0
  -18.0322  -26.0040   22.8928 H   0  0  0  0  0  0
  -19.8025  -30.7303   24.2155 H   0  0  0  0  0  0
  -17.5116  -31.6289   24.5154 H   0  0  0  0  0  0
  -15.5424  -30.3035   23.7712 H   0  0  0  0  0  0
  -15.8660  -28.0826   22.7140 H   0  0  0  0  0  0
  -24.5899  -30.7034   25.7746 H   0  0  0  0  0  0
  -24.8674  -32.3010   26.4634 H   0  0  0  0  0  0
  -25.7913  -30.9182   27.0308 H   0  0  0  0  0  0
  -26.2907  -29.6740   24.1356 H   0  0  0  0  0  0
  -27.3978  -29.7360   25.4858 H   0  0  0  0  0  0
  -27.8808  -30.4280   23.9596 H   0  0  0  0  0  0
  -27.2536  -33.3897   26.1731 H   0  0  0  0  0  0
  -28.3838  -32.6776   25.0312 H   0  0  0  0  0  0
  -28.0498  -31.8794   26.5568 H   0  0  0  0  0  0
  -28.2469  -38.0130   24.7609 H   0  0  0  0  0  0
  -28.1112  -36.2648   24.6081 H   0  0  0  0  0  0
  -27.2274  -37.1148   25.8839 H   0  0  0  0  0  0
  -20.9387  -29.8838   21.6840 H   0  0  0  0  0  0
  -26.0073  -38.2844   24.1607 H   0  0  0  0  0  0
  -27.4181  -23.3627   17.4313 H   0  0  0  0  0  0
  -29.0428  -22.9538   17.0059 H   0  0  0  0  0  0
  -28.3971  -21.0288   18.2040 H   0  0  0  0  0  0
  -27.2856  -21.8860   19.2236 H   0  0  0  0  0  0
  -28.7335  -25.3451   17.8572 H   0  0  0  0  0  0
  -29.9953  -24.4541   18.6295 H   0  0  0  0  0  0
  -29.8904  -23.7598   21.2028 H   0  0  0  0  0  0
  -28.3019  -23.2140   21.5894 H   0  0  0  0  0  0
  -30.2551  -22.1315   19.4883 H   0  0  0  0  0  0
  -27.2452  -24.4576   19.8353 H   0  0  0  0  0  0
  -31.7975  -16.3942   17.0043 H   0  0  0  0  0  0
  -32.2420  -16.8393   18.6414 H   0  0  0  0  0  0
  -32.6544  -17.8956   17.2981 H   0  0  0  0  0  0
  -30.0786  -17.7265   15.7199 H   0  0  0  0  0  0
  -30.8620  -19.2465   16.1012 H   0  0  0  0  0  0
  -29.1537  -19.0066   16.4851 H   0  0  0  0  0  0
  -28.7286  -20.3814   21.4765 H   0  0  0  0  0  0
  -30.4207  -20.6103   21.3433 H   0  0  0  0  0  0
  -29.6092  -17.7057   21.8879 H   0  0  0  0  0  0
  -31.1647  -17.6564   21.1660 H   0  0  0  0  0  0
  -29.7782  -17.2261   18.1231 H   0  0  0  0  0  0
  -28.6894  -18.7342   19.6159 H   0  0  0  0  0  0
  -28.8200  -15.8507   20.6003 H   0  0  0  0  0  0
  -30.4028  -19.9049   18.3874 H   0  0  0  0  0  0
  -31.5466  -19.1036   19.2041 H   0  0  0  0  0  0
  1 25  1  0  0  0
  1 30  2  0  0  0
  1 83  1  0  0  0
  2  3  1  0  0  0
  2 25  1  0  0  0
  2 85  1  0  0  0
  2 86  1  0  0  0
  3  4  1  0  0  0
  3 87  1  0  0  0
  3 88  1  0  0  0
  4  5  1  0  0  0
  4 89  1  0  0  0
  4 90  1  0  0  0
  5  6  1  0  0  0
  5 26  1  0  0  0
  5 91  1  0  0  0
  6 25  1  0  0  0
  6 92  1  0  0  0
  6 93  1  0  0  0
  7  8  2  0  0  0
  7 26  1  0  0  0
  7 29  1  0  0  0
  8  9  1  0  0  0
  8 22  1  0  0  0
  9 10  1  0  0  0
  9 27  2  0  0  0
 10 11  2  0  0  0
 10 15  1  0  0  0
 11 12  1  0  0  0
 11 94  1  0  0  0
 12 13  2  0  0  0
 12 95  1  0  0  0
 13 14  1  0  0  0
 13 31  1  0  0  0
 14 15  2  0  0  0
 14 96  1  0  0  0
 15 97  1  0  0  0
 16 17  2  0  0  0
 16 21  1  0  0  0
 16 31  1  0  0  0
 17 18  1  0  0  0
 17 98  1  0  0  0
 18 19  2  0  0  0
 18 99  1  0  0  0
 19 20  1  0  0  0
 19 24  1  0  0  0
 20 21  2  0  0  0
 20100  1  0  0  0
 21 23  1  0  0  0
 22 28  1  0  0  0
 22 32  2  0  0  0
 26 27  1  0  0  0
 28101  1  0  0  0
 28102  1  0  0  0
 29103  1  0  0  0
 29104  1  0  0  0
 33 34  1  0  0  0
 33 66  1  0  0  0
 33 70  2  0  0  0
 34 36  1  0  0  0
 34 59  1  0  0  0
 34105  1  0  0  0
 35 44  2  0  0  0
 35 45  1  0  0  0
 35 68  1  0  0  0
 36 56  1  0  0  0
 36106  1  0  0  0
 37 39  1  0  0  0
 37 47  1  0  0  0
 37 66  1  0  0  0
 37107  1  0  0  0
 38 43  2  0  0  0
 38 46  1  0  0  0
 38 47  1  0  0  0
 39 64  1  0  0  0
 39 67  2  0  0  0
 40 52  1  0  0  0
 40 53  2  0  0  0
 40 58  1  0  0  0
 41108  1  0  0  0
 41109  1  0  0  0
 41110  1  0  0  0
 41 48  1  0  0  0
 42 43  1  0  0  0
 42 66  1  0  0  0
 42111  1  0  0  0
 42112  1  0  0  0
 43 44  1  0  0  0
 44113  1  0  0  0
 45 46  2  0  0  0
 45114  1  0  0  0
 46115  1  0  0  0
 47116  1  0  0  0
 47117  1  0  0  0
 48 56  1  0  0  0
 48 65  1  0  0  0
 48118  1  0  0  0
 49 50  1  0  0  0
 49 53  1  0  0  0
 49 64  1  0  0  0
 49119  1  0  0  0
 50 51  1  0  0  0
 50120  1  0  0  0
 50121  1  0  0  0
 51 52  1  0  0  0
 51122  1  0  0  0
 51123  1  0  0  0
 52124  1  0  0  0
 52125  1  0  0  0
 53 54  1  0  0  0
 54 55  2  0  0  0
 54126  1  0  0  0
 55 57  1  0  0  0
 55127  1  0  0  0
 56 69  2  0  0  0
 57 58  2  0  0  0
 57128  1  0  0  0
 58129  1  0  0  0
 59 60  1  0  0  0
 59 61  1  0  0  0
 59 62  1  0  0  0
 60130  1  0  0  0
 60131  1  0  0  0
 60132  1  0  0  0
 61133  1  0  0  0
 61134  1  0  0  0
 61135  1  0  0  0
 62136  1  0  0  0
 62137  1  0  0  0
 62138  1  0  0  0
 63 65  1  0  0  0
 63139  1  0  0  0
 63140  1  0  0  0
 63141  1  0  0  0
 64142  1  0  0  0
 65143  1  0  0  0
 68 76  1  0  0  0
 71 72  1  0  0  0
 71 73  1  0  0  0
 71144  1  0  0  0
 71145  1  0  0  0
 72 75  1  0  0  0
 72146  1  0  0  0
 72147  1  0  0  0
 73 76  1  0  0  0
 73148  1  0  0  0
 73149  1  0  0  0
 74 75  1  0  0  0
 74 76  1  0  0  0
 74150  1  0  0  0
 74151  1  0  0  0
 75 79  1  0  0  0
 75152  1  0  0  0
 76153  1  0  0  0
 77154  1  0  0  0
 77155  1  0  0  0
 77156  1  0  0  0
 77 81  1  0  0  0
 78 81  1  0  0  0
 78157  1  0  0  0
 78158  1  0  0  0
 78159  1  0  0  0
 79160  1  0  0  0
 79161  1  0  0  0
 79 82  1  0  0  0
 80 82  1  0  0  0
 80 83  1  0  0  0
 80162  1  0  0  0
 80163  1  0  0  0
 81 84  1  0  0  0
 81164  1  0  0  0
 82 84  1  0  0  0
 82165  1  0  0  0
 83166  1  0  0  0
 84167  1  0  0  0
 84168  1  0  0  0
M  CHG  1  84   1
M  ISO  4   1 100  68 101  76 101  83 100
M  END
> <chiral flag>
0

> <version>
0

> <s_m_source_file>
/data/baiqing/PycharmProjects/Reinvent-master-3.2/result/LINK_invent/BTK/process_docking_weight1_custom_sum_contain_oxygen_bond_distance_aromatic_linkinvent_7_9_3/rearranged_h_0105.sdf

> <i_m_source_file_index>
5

> <r_mmod_Potential_Energy-OPLS-2005>
392.870300292969

> <r_mmod_Stretch_Energy-OPLS-2005>
265.421997070312

> <r_mmod_Bend_Energy-OPLS-2005>
279.738555908203

> <r_mmod_Torsional_Energy-OPLS-2005>
314.043426513672

> <r_mmod_Improper_Torsional_Energy-OPLS-2005>
4.70739889144897

> <r_mmod_Van_der_Waal_Energy-OPLS-2005>
107.272758483887

> <r_mmod_Electrostatic_Energy-OPLS-2005>
-293.920471191406

> <r_mmod_Solvation_Energy-OPLS-2005>
-449.405334472656

> <b_mmod_Minimization_Converged-OPLS-2005>
0

> <r_mmod_RMS_Derivative-OPLS-2005>
6.31827783584595

$$$$
5
                    3D
 Structure written by MMmdl.
153161  0  0  1  0            999 V2000
  -30.3054  -15.5931   20.3287 C   0  0  0  0  0  0
  -30.4356  -13.0431   19.5475 C   0  0  0  0  0  0
  -29.5567  -12.6437   18.3274 C   0  0  0  0  0  0
  -28.1231  -12.3026   18.7641 C   0  0  0  0  0  0
  -27.6033  -13.3046   19.8203 C   0  0  2  0  0  0
  -28.6226  -13.6055   20.9439 C   0  0  0  0  0  0
  -25.2352  -13.8288   20.5789 C   0  0  0  0  0  0
  -24.1729  -13.0452   20.9291 C   0  0  0  0  0  0
  -24.6425  -11.6959   20.8790 C   0  0  0  0  0  0
  -23.9121  -10.4308   21.0418 C   0  0  0  0  0  0
  -24.3649   -9.4216   21.9197 C   0  0  0  0  0  0
  -23.6306   -8.2259   22.0773 C   0  0  0  0  0  0
  -22.4283   -8.0305   21.3563 C   0  0  0  0  0  0
  -21.9930   -9.0288   20.4668 C   0  0  0  0  0  0
  -22.7285  -10.2156   20.3072 C   0  0  0  0  0  0
  -21.6854   -6.0752   22.5279 C   0  0  0  0  0  0
  -21.4027   -6.5650   23.8217 C   0  0  0  0  0  0
  -21.3662   -5.6802   24.9177 C   0  0  0  0  0  0
  -21.6037   -4.3060   24.7225 C   0  0  0  0  0  0
  -21.8817   -3.8158   23.4343 C   0  0  0  0  0  0
  -21.9193   -4.6979   22.3406 C   0  0  0  0  0  0
  -22.7738  -13.5199   21.1914 C   0  0  0  0  0  0
  -22.1660   -4.2166   21.0985 F   0  0  0  0  0  0
  -21.5618   -3.4543   25.7736 F   0  0  0  0  0  0
  -29.8064  -14.2194   20.2985 N   0  0  0  0  0  0
  -26.2806  -12.9614   20.3250 N   0  0  0  0  0  0
  -25.9369  -11.6690   20.5715 N   0  0  0  0  0  0
  -22.0382  -12.8195   22.0464 N   0  0  0  0  0  0
  -25.3937  -15.2026   20.4228 N   0  0  0  0  0  0
  -31.5347  -15.5650   20.1309 O   0  0  0  0  0  0
  -21.6645   -6.8897   21.4246 O   0  0  0  0  0  0
  -22.3418  -14.5495   20.6739 O   0  0  0  0  0  0
  -24.6851  -31.7995   23.1524 C   0  0  0  0  0  0
  -25.9423  -32.4467   23.8073 C   0  0  1  0  0  0
  -27.2316  -26.7097   20.2055 C   0  0  0  0  0  0
  -25.5996  -33.8292   24.1952 N   0  0  0  0  0  0
  -23.5116  -30.4015   21.5053 C   0  0  2  0  0  0
  -24.9698  -28.7439   20.1168 C   0  0  0  0  0  0
  -22.7775  -29.4322   22.4710 C   0  0  0  0  0  0
  -18.0337  -28.1433   22.8445 C   0  0  0  0  0  0
  -24.1498  -36.7155   23.2654 C   0  0  0  0  0  0
  -26.0929  -30.5337   21.4172 C   0  0  0  0  0  0
  -26.1596  -29.1000   20.7641 C   0  0  0  0  0  0
  -27.2757  -28.1101   20.7770 C   0  0  0  0  0  0
  -26.0101  -26.5638   19.5002 C   0  0  0  0  0  0
  -24.9343  -27.5010   19.4617 C   0  0  0  0  0  0
  -23.7650  -29.6984   20.1406 C   0  0  0  0  0  0
  -25.4151  -36.2895   24.0278 C   0  0  1  0  0  0
  -20.5975  -28.3796   23.1131 C   0  0  2  0  0  0
  -20.6807  -26.9450   22.5402 C   0  0  0  0  0  0
  -19.5783  -26.6376   21.5217 C   0  0  0  0  0  0
  -18.1965  -26.7956   22.1620 C   0  0  0  0  0  0
  -19.1604  -28.8937   23.2772 C   0  0  0  0  0  0
  -18.9512  -30.1520   23.8822 C   0  0  0  0  0  0
  -17.6503  -30.6611   24.0552 C   0  0  0  0  0  0
  -25.9122  -34.9283   23.4951 C   0  0  0  0  0  0
  -16.5390  -29.9092   23.6357 C   0  0  0  0  0  0
  -16.7317  -28.6519   23.0360 C   0  0  0  0  0  0
  -26.4589  -31.6504   25.0700 C   0  0  0  0  0  0
  -25.3647  -31.3827   26.1310 C   0  0  0  0  0  0
  -27.0519  -30.2837   24.6614 C   0  0  0  0  0  0
  -27.6033  -32.4368   25.7521 C   0  0  0  0  0  0
  -27.5561  -37.1745   24.8474 C   0  0  0  0  0  0
  -21.4422  -29.3046   22.3453 N   0  0  0  0  0  0
  -26.4284  -37.3651   23.9389 N   0  0  0  0  0  0
  -24.7864  -30.9440   22.0775 N   0  0  0  0  0  0
  -23.4208  -28.7926   23.3061 O   0  0  0  0  0  0
  -28.1841  -25.4853   20.2840 O   0  0  0  0  0  0
  -26.5772  -34.8857   22.4571 O   0  0  0  0  0  0
  -23.5869  -32.1072   23.6476 O   0  0  0  0  0  0
  -28.8006  -21.0294   19.1431 C   0  0  0  0  0  0
  -29.2584  -19.6578   21.3979 C   0  0  0  0  0  0
  -28.6452  -22.0643   20.2094 C   0  0  0  0  0  0
  -29.1272  -19.5301   19.1733 C   0  0  0  0  0  0
  -28.9304  -21.1588   21.3627 C   0  0  0  0  0  0
  -29.4110  -18.6269   20.3268 C   0  0  0  0  0  0
  -28.8217  -21.8204   22.7209 C   0  0  0  0  0  0
  -30.4979  -18.8029   17.1698 C   0  0  0  0  0  0
  -29.1095  -18.8401   17.8182 C   0  0  0  0  0  0
  -27.8863  -23.7726   20.0801 C   0  0  0  0  0  0
  -29.4843  -16.9082   20.4247 N   0  0  0  0  0  0
  -31.4319  -13.3016   19.1876 H   0  0  0  0  0  0
  -30.5880  -12.1889   20.2096 H   0  0  0  0  0  0
  -29.9999  -11.7987   17.7986 H   0  0  0  0  0  0
  -29.5340  -13.4727   17.6179 H   0  0  0  0  0  0
  -28.1375  -11.3001   19.1928 H   0  0  0  0  0  0
  -27.4556  -12.2606   17.9025 H   0  0  0  0  0  0
  -27.4771  -14.2367   19.2674 H   0  0  0  0  0  0
  -28.8705  -12.7082   21.5144 H   0  0  0  0  0  0
  -28.1995  -14.3159   21.6560 H   0  0  0  0  0  0
  -25.2791   -9.5679   22.4781 H   0  0  0  0  0  0
  -24.0011   -7.4644   22.7488 H   0  0  0  0  0  0
  -21.0861   -8.8827   19.8970 H   0  0  0  0  0  0
  -22.3753  -10.9706   19.6187 H   0  0  0  0  0  0
  -21.2028   -7.6160   23.9723 H   0  0  0  0  0  0
  -21.1480   -6.0532   25.9079 H   0  0  0  0  0  0
  -22.0584   -2.7619   23.2841 H   0  0  0  0  0  0
  -22.3988  -11.9878   22.4896 H   0  0  0  0  0  0
  -21.1002  -13.1227   22.2660 H   0  0  0  0  0  0
  -24.6157  -15.8443   20.5311 H   0  0  0  0  0  0
  -26.2221  -15.6452   20.0495 H   0  0  0  0  0  0
  -26.7507  -32.4933   23.0791 H   0  0  0  0  0  0
  -25.0036  -33.9327   25.0029 H   0  0  0  0  0  0
  -22.8383  -31.2398   21.3156 H   0  0  0  0  0  0
  -23.3759  -35.9489   23.3319 H   0  0  0  0  0  0
  -24.3552  -36.8815   22.2068 H   0  0  0  0  0  0
  -23.7277  -37.6342   23.6731 H   0  0  0  0  0  0
  -26.2987  -31.2618   20.6311 H   0  0  0  0  0  0
  -26.9421  -30.5961   22.0859 H   0  0  0  0  0  0
  -28.1715  -28.3855   21.3161 H   0  0  0  0  0  0
  -25.8439  -25.6231   18.9950 H   0  0  0  0  0  0
  -24.0372  -27.2191   18.9270 H   0  0  0  0  0  0
  -23.9403  -30.4597   19.3792 H   0  0  0  0  0  0
  -22.8691  -29.1653   19.8164 H   0  0  0  0  0  0
  -25.1368  -36.1663   25.0773 H   0  0  0  0  0  0
  -21.0055  -28.3428   24.1257 H   0  0  0  0  0  0
  -20.5688  -26.2415   23.3665 H   0  0  0  0  0  0
  -21.6665  -26.7406   22.1218 H   0  0  0  0  0  0
  -19.6945  -25.6266   21.1296 H   0  0  0  0  0  0
  -19.6728  -27.3141   20.6710 H   0  0  0  0  0  0
  -17.4236  -26.6687   21.4029 H   0  0  0  0  0  0
  -18.0367  -26.0126   22.9043 H   0  0  0  0  0  0
  -19.7985  -30.7357   24.2163 H   0  0  0  0  0  0
  -17.5048  -31.6277   24.5170 H   0  0  0  0  0  0
  -15.5385  -30.2969   23.7727 H   0  0  0  0  0  0
  -15.8717  -28.0816   22.7117 H   0  0  0  0  0  0
  -24.5833  -30.7185   25.7599 H   0  0  0  0  0  0
  -24.8837  -32.3054   26.4563 H   0  0  0  0  0  0
  -25.7810  -30.9085   27.0204 H   0  0  0  0  0  0
  -26.3232  -29.6443   24.1622 H   0  0  0  0  0  0
  -27.3937  -29.7298   25.5366 H   0  0  0  0  0  0
  -27.9218  -30.3947   24.0144 H   0  0  0  0  0  0
  -27.2553  -33.3715   26.1931 H   0  0  0  0  0  0
  -28.3930  -32.6863   25.0421 H   0  0  0  0  0  0
  -28.0609  -31.8617   26.5581 H   0  0  0  0  0  0
  -28.2588  -38.0026   24.7461 H   0  0  0  0  0  0
  -28.1042  -36.2547   24.6381 H   0  0  0  0  0  0
  -27.2260  -37.1486   25.8873 H   0  0  0  0  0  0
  -20.9728  -29.8679   21.6498 H   0  0  0  0  0  0
  -26.0113  -38.2708   24.1354 H   0  0  0  0  0  0
  -28.5827  -21.4141   18.1556 H   0  0  0  0  0  0
  -29.3632  -19.2505   22.3944 H   0  0  0  0  0  0
  -29.5511  -21.4016   23.4166 H   0  0  0  0  0  0
  -27.8226  -21.6728   23.1337 H   0  0  0  0  0  0
  -29.0093  -22.8935   22.6525 H   0  0  0  0  0  0
  -30.4628  -18.2943   16.2062 H   0  0  0  0  0  0
  -31.2131  -18.2706   17.7989 H   0  0  0  0  0  0
  -30.8800  -19.8102   16.9995 H   0  0  0  0  0  0
  -28.4044  -19.3461   17.1571 H   0  0  0  0  0  0
  -28.7287  -17.8240   17.9303 H   0  0  0  0  0  0
  -26.9881  -23.6405   20.6836 H   0  0  0  0  0  0
  -27.5085  -23.7503   19.0576 H   0  0  0  0  0  0
  -28.5498  -16.5811   20.6212 H   0  0  0  0  0  0
  1 25  1  0  0  0
  1 30  2  0  0  0
  1 81  1  0  0  0
  2  3  1  0  0  0
  2 25  1  0  0  0
  2 82  1  0  0  0
  2 83  1  0  0  0
  3  4  1  0  0  0
  3 84  1  0  0  0
  3 85  1  0  0  0
  4  5  1  0  0  0
  4 86  1  0  0  0
  4 87  1  0  0  0
  5  6  1  0  0  0
  5 26  1  0  0  0
  5 88  1  0  0  0
  6 25  1  0  0  0
  6 89  1  0  0  0
  6 90  1  0  0  0
  7  8  2  0  0  0
  7 26  1  0  0  0
  7 29  1  0  0  0
  8  9  1  0  0  0
  8 22  1  0  0  0
  9 10  1  0  0  0
  9 27  2  0  0  0
 10 11  2  0  0  0
 10 15  1  0  0  0
 11 12  1  0  0  0
 11 91  1  0  0  0
 12 13  2  0  0  0
 12 92  1  0  0  0
 13 14  1  0  0  0
 13 31  1  0  0  0
 14 15  2  0  0  0
 14 93  1  0  0  0
 15 94  1  0  0  0
 16 17  2  0  0  0
 16 21  1  0  0  0
 16 31  1  0  0  0
 17 18  1  0  0  0
 17 95  1  0  0  0
 18 19  2  0  0  0
 18 96  1  0  0  0
 19 20  1  0  0  0
 19 24  1  0  0  0
 20 21  2  0  0  0
 20 97  1  0  0  0
 21 23  1  0  0  0
 22 28  1  0  0  0
 22 32  2  0  0  0
 26 27  1  0  0  0
 28 98  1  0  0  0
 28 99  1  0  0  0
 29100  1  0  0  0
 29101  1  0  0  0
 33 34  1  0  0  0
 33 66  1  0  0  0
 33 70  2  0  0  0
 34 36  1  0  0  0
 34 59  1  0  0  0
 34102  1  0  0  0
 35 44  2  0  0  0
 35 45  1  0  0  0
 35 68  1  0  0  0
 36 56  1  0  0  0
 36103  1  0  0  0
 37 39  1  0  0  0
 37 47  1  0  0  0
 37 66  1  0  0  0
 37104  1  0  0  0
 38 43  2  0  0  0
 38 46  1  0  0  0
 38 47  1  0  0  0
 39 64  1  0  0  0
 39 67  2  0  0  0
 40 52  1  0  0  0
 40 53  2  0  0  0
 40 58  1  0  0  0
 41105  1  0  0  0
 41106  1  0  0  0
 41107  1  0  0  0
 41 48  1  0  0  0
 42 43  1  0  0  0
 42 66  1  0  0  0
 42108  1  0  0  0
 42109  1  0  0  0
 43 44  1  0  0  0
 44110  1  0  0  0
 45 46  2  0  0  0
 45111  1  0  0  0
 46112  1  0  0  0
 47113  1  0  0  0
 47114  1  0  0  0
 48 56  1  0  0  0
 48 65  1  0  0  0
 48115  1  0  0  0
 49 50  1  0  0  0
 49 53  1  0  0  0
 49 64  1  0  0  0
 49116  1  0  0  0
 50 51  1  0  0  0
 50117  1  0  0  0
 50118  1  0  0  0
 51 52  1  0  0  0
 51119  1  0  0  0
 51120  1  0  0  0
 52121  1  0  0  0
 52122  1  0  0  0
 53 54  1  0  0  0
 54 55  2  0  0  0
 54123  1  0  0  0
 55 57  1  0  0  0
 55124  1  0  0  0
 56 69  2  0  0  0
 57 58  2  0  0  0
 57125  1  0  0  0
 58126  1  0  0  0
 59 60  1  0  0  0
 59 61  1  0  0  0
 59 62  1  0  0  0
 60127  1  0  0  0
 60128  1  0  0  0
 60129  1  0  0  0
 61130  1  0  0  0
 61131  1  0  0  0
 61132  1  0  0  0
 62133  1  0  0  0
 62134  1  0  0  0
 62135  1  0  0  0
 63 65  1  0  0  0
 63136  1  0  0  0
 63137  1  0  0  0
 63138  1  0  0  0
 64139  1  0  0  0
 65140  1  0  0  0
 68 80  1  0  0  0
 71 73  2  0  0  0
 71 74  1  0  0  0
 71141  1  0  0  0
 72 75  2  0  0  0
 72 76  1  0  0  0
 72142  1  0  0  0
 73 75  1  0  0  0
 73 80  1  0  0  0
 74 76  2  0  0  0
 74 79  1  0  0  0
 75 77  1  0  0  0
 76 81  1  0  0  0
 77143  1  0  0  0
 77144  1  0  0  0
 77145  1  0  0  0
 78 79  1  0  0  0
 78146  1  0  0  0
 78147  1  0  0  0
 78148  1  0  0  0
 79149  1  0  0  0
 79150  1  0  0  0
 80151  1  0  0  0
 80152  1  0  0  0
 81153  1  0  0  0
M  ISO  4   1 100  68 101  80 101  81 100
M  END
> <chiral flag>
0

> <version>
0

> <s_m_source_file>
/data/baiqing/PycharmProjects/Reinvent-master-3.2/result/LINK_invent/BTK/process_docking_weight1_custom_sum_contain_oxygen_bond_distance_aromatic_linkinvent_7_9_3/rearranged_h_0105.sdf

> <i_m_source_file_index>
6

> <r_mmod_Potential_Energy-OPLS-2005>
2269.03491210938

> <r_mmod_Stretch_Energy-OPLS-2005>
921.007202148438

> <r_mmod_Bend_Energy-OPLS-2005>
648.940612792969

> <r_mmod_Torsional_Energy-OPLS-2005>
262.222717285156

> <r_mmod_Improper_Torsional_Energy-OPLS-2005>
10.1145420074463

> <r_mmod_Van_der_Waal_Energy-OPLS-2005>
127.855400085449

> <r_mmod_Electrostatic_Energy-OPLS-2005>
-355.061920166016

> <r_mmod_Solvation_Energy-OPLS-2005>
-208.645660400391

> <b_mmod_Minimization_Converged-OPLS-2005>
0

> <r_mmod_RMS_Derivative-OPLS-2005>
1.90197861194611

$$$$
6
                    3D
 Structure written by MMmdl.
147154  0  0  1  0            999 V2000
  -30.1893  -15.8817   20.3158 C   0  0  0  0  0  0
  -30.4153  -13.2534   19.5661 C   0  0  0  0  0  0
  -29.5661  -12.7342   18.3598 C   0  0  0  0  0  0
  -28.1543  -12.3227   18.7986 C   0  0  0  0  0  0
  -27.5930  -13.3359   19.8168 C   0  0  2  0  0  0
  -28.5939  -13.7335   20.9320 C   0  0  0  0  0  0
  -25.2276  -13.8301   20.5814 C   0  0  0  0  0  0
  -24.1695  -13.0417   20.9283 C   0  0  0  0  0  0
  -24.6445  -11.6947   20.8745 C   0  0  0  0  0  0
  -23.9151  -10.4286   21.0377 C   0  0  0  0  0  0
  -24.3673   -9.4202   21.9170 C   0  0  0  0  0  0
  -23.6324   -8.2250   22.0752 C   0  0  0  0  0  0
  -22.4302   -8.0291   21.3545 C   0  0  0  0  0  0
  -21.9954   -9.0267   20.4641 C   0  0  0  0  0  0
  -22.7309  -10.2131   20.3038 C   0  0  0  0  0  0
  -21.6861   -6.0744   22.5280 C   0  0  0  0  0  0
  -21.4020   -6.5644   23.8214 C   0  0  0  0  0  0
  -21.3661   -5.6795   24.9174 C   0  0  0  0  0  0
  -21.6044   -4.3057   24.7223 C   0  0  0  0  0  0
  -21.8818   -3.8151   23.4343 C   0  0  0  0  0  0
  -21.9195   -4.6970   22.3400 C   0  0  0  0  0  0
  -22.7702  -13.5131   21.1920 C   0  0  0  0  0  0
  -22.1663   -4.2156   21.0978 F   0  0  0  0  0  0
  -21.5627   -3.4539   25.7734 F   0  0  0  0  0  0
  -29.7422  -14.4491   20.2972 N   0  0  0  0  0  0
  -26.2778  -12.9705   20.3264 N   0  0  0  0  0  0
  -25.9409  -11.6743   20.5679 N   0  0  0  0  0  0
  -22.0380  -12.8104   22.0479 N   0  0  0  0  0  0
  -25.3791  -15.2039   20.4285 N   0  0  0  0  0  0
  -31.4106  -15.7812   20.0599 O   0  0  0  0  0  0
  -21.6652   -6.8895   21.4246 O   0  0  0  0  0  0
  -22.3364  -14.5428   20.6762 O   0  0  0  0  0  0
  -24.6992  -31.7797   23.1366 C   0  0  0  0  0  0
  -25.9494  -32.4365   23.7977 C   0  0  1  0  0  0
  -27.2396  -26.5347   20.2277 C   0  0  0  0  0  0
  -25.6003  -33.8200   24.1847 N   0  0  0  0  0  0
  -23.5340  -30.3727   21.4936 C   0  0  2  0  0  0
  -24.9956  -28.6785   20.1179 C   0  0  0  0  0  0
  -22.7839  -29.4203   22.4655 C   0  0  0  0  0  0
  -18.0349  -28.1431   22.8445 C   0  0  0  0  0  0
  -24.1497  -36.7109   23.2658 C   0  0  0  0  0  0
  -26.1206  -30.4558   21.4280 C   0  0  0  0  0  0
  -26.1846  -29.0023   20.7805 C   0  0  0  0  0  0
  -27.2790  -27.9617   20.8020 C   0  0  0  0  0  0
  -26.0194  -26.4654   19.4953 C   0  0  0  0  0  0
  -24.9625  -27.4386   19.4509 C   0  0  0  0  0  0
  -23.7979  -29.6531   20.1358 C   0  0  0  0  0  0
  -25.4154  -36.2835   24.0269 C   0  0  1  0  0  0
  -20.5992  -28.3798   23.1110 C   0  0  2  0  0  0
  -20.6805  -26.9441   22.5408 C   0  0  0  0  0  0
  -19.5785  -26.6365   21.5219 C   0  0  0  0  0  0
  -18.1967  -26.7955   22.1616 C   0  0  0  0  0  0
  -19.1619  -28.8943   23.2753 C   0  0  0  0  0  0
  -18.9522  -30.1522   23.8807 C   0  0  0  0  0  0
  -17.6509  -30.6608   24.0547 C   0  0  0  0  0  0
  -25.9144  -34.9230   23.4909 C   0  0  0  0  0  0
  -16.5398  -29.9087   23.6355 C   0  0  0  0  0  0
  -16.7327  -28.6511   23.0369 C   0  0  0  0  0  0
  -26.4620  -31.6475   25.0673 C   0  0  0  0  0  0
  -25.3641  -31.3843   26.1257 C   0  0  0  0  0  0
  -27.0581  -30.2794   24.6701 C   0  0  0  0  0  0
  -27.6035  -32.4379   25.7500 C   0  0  0  0  0  0
  -27.5559  -37.1711   24.8467 C   0  0  0  0  0  0
  -21.4470  -29.3009   22.3407 N   0  0  0  0  0  0
  -26.4264  -37.3616   23.9407 N   0  0  0  0  0  0
  -24.8098  -30.9072   22.0713 N   0  0  0  0  0  0
  -23.4203  -28.7835   23.3083 O   0  0  0  0  0  0
  -28.1813  -25.2430   20.3527 O   0  0  0  0  0  0
  -26.5811  -34.8843   22.4545 O   0  0  0  0  0  0
  -23.5976  -32.0951   23.6212 O   0  0  0  0  0  0
  -27.9701  -17.3663   20.9780 C   0  0  0  0  0  0
  -30.1586  -17.9855   21.9952 C   0  0  0  0  0  0
  -28.8178  -21.5490   20.5696 C   0  0  0  0  0  0
  -29.2351  -19.6140   20.0185 C   0  0  0  0  0  0
  -28.2041  -23.4253   20.0005 C   0  0  0  0  0  0
  -29.4391  -17.6818   20.6691 C   0  0  0  0  0  0
  -31.3932  -13.5415   19.1802 H   0  0  0  0  0  0
  -30.6317  -12.4391   20.2598 H   0  0  0  0  0  0
  -30.0675  -11.8992   17.8689 H   0  0  0  0  0  0
  -29.4928  -13.5281   17.6152 H   0  0  0  0  0  0
  -28.2171  -11.3378   19.2629 H   0  0  0  0  0  0
  -27.4922  -12.2209   17.9378 H   0  0  0  0  0  0
  -27.4337  -14.2390   19.2257 H   0  0  0  0  0  0
  -28.9035  -12.8657   21.5165 H   0  0  0  0  0  0
  -28.1114  -14.3958   21.6470 H   0  0  0  0  0  0
  -25.2812   -9.5674   22.4756 H   0  0  0  0  0  0
  -24.0018   -7.4644   22.7483 H   0  0  0  0  0  0
  -21.0881   -8.8799   19.8950 H   0  0  0  0  0  0
  -22.3769  -10.9671   19.6148 H   0  0  0  0  0  0
  -21.2017   -7.6153   23.9720 H   0  0  0  0  0  0
  -21.1483   -6.0523   25.9077 H   0  0  0  0  0  0
  -22.0595   -2.7613   23.2840 H   0  0  0  0  0  0
  -22.4034  -11.9786   22.4874 H   0  0  0  0  0  0
  -21.0986  -13.1092   22.2684 H   0  0  0  0  0  0
  -24.6078  -15.8495   20.5571 H   0  0  0  0  0  0
  -26.2323  -15.6574   20.1315 H   0  0  0  0  0  0
  -26.7591  -32.4794   23.0696 H   0  0  0  0  0  0
  -25.0031  -33.9208   24.9921 H   0  0  0  0  0  0
  -22.8690  -31.2142   21.2883 H   0  0  0  0  0  0
  -23.3781  -35.9415   23.3254 H   0  0  0  0  0  0
  -24.3558  -36.8849   22.2085 H   0  0  0  0  0  0
  -23.7237  -37.6255   23.6793 H   0  0  0  0  0  0
  -26.3420  -31.1692   20.6332 H   0  0  0  0  0  0
  -26.9647  -30.5297   22.1009 H   0  0  0  0  0  0
  -28.1646  -28.2186   21.3660 H   0  0  0  0  0  0
  -25.8276  -25.5362   18.9775 H   0  0  0  0  0  0
  -24.0706  -27.1798   18.8968 H   0  0  0  0  0  0
  -23.9848  -30.4059   19.3693 H   0  0  0  0  0  0
  -22.8999  -29.1263   19.8088 H   0  0  0  0  0  0
  -25.1372  -36.1572   25.0758 H   0  0  0  0  0  0
  -21.0069  -28.3439   24.1239 H   0  0  0  0  0  0
  -20.5651  -26.2428   23.3686 H   0  0  0  0  0  0
  -21.6666  -26.7355   22.1238 H   0  0  0  0  0  0
  -19.6938  -25.6251   21.1308 H   0  0  0  0  0  0
  -19.6735  -27.3125   20.6710 H   0  0  0  0  0  0
  -17.4238  -26.6699   21.4018 H   0  0  0  0  0  0
  -18.0348  -26.0119   22.9032 H   0  0  0  0  0  0
  -19.7997  -30.7361   24.2138 H   0  0  0  0  0  0
  -17.5058  -31.6278   24.5168 H   0  0  0  0  0  0
  -15.5394  -30.2960   23.7731 H   0  0  0  0  0  0
  -15.8728  -28.0799   22.7135 H   0  0  0  0  0  0
  -24.5862  -30.7158   25.7550 H   0  0  0  0  0  0
  -24.8794  -32.3079   26.4427 H   0  0  0  0  0  0
  -25.7778  -30.9170   27.0202 H   0  0  0  0  0  0
  -26.3332  -29.6353   24.1716 H   0  0  0  0  0  0
  -27.3961  -29.7312   25.5506 H   0  0  0  0  0  0
  -27.9330  -30.3879   24.0289 H   0  0  0  0  0  0
  -27.2554  -33.3773   26.1806 H   0  0  0  0  0  0
  -28.3982  -32.6792   25.0428 H   0  0  0  0  0  0
  -28.0554  -31.8694   26.5638 H   0  0  0  0  0  0
  -28.2534  -38.0044   24.7514 H   0  0  0  0  0  0
  -28.1096  -36.2563   24.6296 H   0  0  0  0  0  0
  -27.2272  -37.1344   25.8867 H   0  0  0  0  0  0
  -20.9815  -29.8635   21.6421 H   0  0  0  0  0  0
  -26.0075  -38.2655   24.1423 H   0  0  0  0  0  0
  -27.4689  -18.2188   21.4369 H   0  0  0  0  0  0
  -27.8620  -16.5347   21.6700 H   0  0  0  0  0  0
  -27.4327  -17.1278   20.0609 H   0  0  0  0  0  0
  -29.6387  -18.7553   22.5663 H   0  0  0  0  0  0
  -31.1705  -18.3456   21.8076 H   0  0  0  0  0  0
  -30.2363  -17.1063   22.6364 H   0  0  0  0  0  0
  -29.7518  -21.8009   21.0719 H   0  0  0  0  0  0
  -28.1360  -21.3727   21.4015 H   0  0  0  0  0  0
  -30.1609  -19.7483   19.4585 H   0  0  0  0  0  0
  -28.4996  -19.4746   19.2258 H   0  0  0  0  0  0
  -27.1450  -23.2573   19.8051 H   0  0  0  0  0  0
  -28.6334  -23.4704   18.9996 H   0  0  0  0  0  0
  1 25  1  0  0  0
  1 30  2  0  0  0
  1 76  1  0  0  0
  2  3  1  0  0  0
  2 25  1  0  0  0
  2 77  1  0  0  0
  2 78  1  0  0  0
  3  4  1  0  0  0
  3 79  1  0  0  0
  3 80  1  0  0  0
  4  5  1  0  0  0
  4 81  1  0  0  0
  4 82  1  0  0  0
  5  6  1  0  0  0
  5 26  1  0  0  0
  5 83  1  0  0  0
  6 25  1  0  0  0
  6 84  1  0  0  0
  6 85  1  0  0  0
  7  8  2  0  0  0
  7 26  1  0  0  0
  7 29  1  0  0  0
  8  9  1  0  0  0
  8 22  1  0  0  0
  9 10  1  0  0  0
  9 27  2  0  0  0
 10 11  2  0  0  0
 10 15  1  0  0  0
 11 12  1  0  0  0
 11 86  1  0  0  0
 12 13  2  0  0  0
 12 87  1  0  0  0
 13 14  1  0  0  0
 13 31  1  0  0  0
 14 15  2  0  0  0
 14 88  1  0  0  0
 15 89  1  0  0  0
 16 17  2  0  0  0
 16 21  1  0  0  0
 16 31  1  0  0  0
 17 18  1  0  0  0
 17 90  1  0  0  0
 18 19  2  0  0  0
 18 91  1  0  0  0
 19 20  1  0  0  0
 19 24  1  0  0  0
 20 21  2  0  0  0
 20 92  1  0  0  0
 21 23  1  0  0  0
 22 28  1  0  0  0
 22 32  2  0  0  0
 26 27  1  0  0  0
 28 93  1  0  0  0
 28 94  1  0  0  0
 29 95  1  0  0  0
 29 96  1  0  0  0
 33 34  1  0  0  0
 33 66  1  0  0  0
 33 70  2  0  0  0
 34 36  1  0  0  0
 34 59  1  0  0  0
 34 97  1  0  0  0
 35 44  2  0  0  0
 35 45  1  0  0  0
 35 68  1  0  0  0
 36 56  1  0  0  0
 36 98  1  0  0  0
 37 39  1  0  0  0
 37 47  1  0  0  0
 37 66  1  0  0  0
 37 99  1  0  0  0
 38 43  2  0  0  0
 38 46  1  0  0  0
 38 47  1  0  0  0
 39 64  1  0  0  0
 39 67  2  0  0  0
 40 52  1  0  0  0
 40 53  2  0  0  0
 40 58  1  0  0  0
 41100  1  0  0  0
 41101  1  0  0  0
 41102  1  0  0  0
 41 48  1  0  0  0
 42 43  1  0  0  0
 42 66  1  0  0  0
 42103  1  0  0  0
 42104  1  0  0  0
 43 44  1  0  0  0
 44105  1  0  0  0
 45 46  2  0  0  0
 45106  1  0  0  0
 46107  1  0  0  0
 47108  1  0  0  0
 47109  1  0  0  0
 48 56  1  0  0  0
 48 65  1  0  0  0
 48110  1  0  0  0
 49 50  1  0  0  0
 49 53  1  0  0  0
 49 64  1  0  0  0
 49111  1  0  0  0
 50 51  1  0  0  0
 50112  1  0  0  0
 50113  1  0  0  0
 51 52  1  0  0  0
 51114  1  0  0  0
 51115  1  0  0  0
 52116  1  0  0  0
 52117  1  0  0  0
 53 54  1  0  0  0
 54 55  2  0  0  0
 54118  1  0  0  0
 55 57  1  0  0  0
 55119  1  0  0  0
 56 69  2  0  0  0
 57 58  2  0  0  0
 57120  1  0  0  0
 58121  1  0  0  0
 59 60  1  0  0  0
 59 61  1  0  0  0
 59 62  1  0  0  0
 60122  1  0  0  0
 60123  1  0  0  0
 60124  1  0  0  0
 61125  1  0  0  0
 61126  1  0  0  0
 61127  1  0  0  0
 62128  1  0  0  0
 62129  1  0  0  0
 62130  1  0  0  0
 63 65  1  0  0  0
 63131  1  0  0  0
 63132  1  0  0  0
 63133  1  0  0  0
 64134  1  0  0  0
 65135  1  0  0  0
 68 75  1  0  0  0
 71136  1  0  0  0
 71137  1  0  0  0
 71138  1  0  0  0
 71 76  1  0  0  0
 72 76  1  0  0  0
 72139  1  0  0  0
 72140  1  0  0  0
 72141  1  0  0  0
 73 74  1  0  0  0
 73 75  1  0  0  0
 73142  1  0  0  0
 73143  1  0  0  0
 74 76  1  0  0  0
 74144  1  0  0  0
 74145  1  0  0  0
 75146  1  0  0  0
 75147  1  0  0  0
M  ISO  4   1 100  68 101  75 101  76 100
M  END
> <chiral flag>
0

> <version>
0

> <s_m_source_file>
/data/baiqing/PycharmProjects/Reinvent-master-3.2/result/LINK_invent/BTK/process_docking_weight1_custom_sum_contain_oxygen_bond_distance_aromatic_linkinvent_7_9_3/rearranged_h_0105.sdf

> <i_m_source_file_index>
7

> <r_mmod_Potential_Energy-OPLS-2005>
3733.28369140625

> <r_mmod_Stretch_Energy-OPLS-2005>
1764.31896972656

> <r_mmod_Bend_Energy-OPLS-2005>
840.589172363281

> <r_mmod_Torsional_Energy-OPLS-2005>
208.097305297852

> <r_mmod_Improper_Torsional_Energy-OPLS-2005>
1.71055269241333

> <r_mmod_Van_der_Waal_Energy-OPLS-2005>
111.315200805664

> <r_mmod_Electrostatic_Energy-OPLS-2005>
-297.558471679688

> <r_mmod_Solvation_Energy-OPLS-2005>
-186.266830444336

> <b_mmod_Minimization_Converged-OPLS-2005>
0

> <r_mmod_RMS_Derivative-OPLS-2005>
0.0959039181470871

$$$$
7
                    3D
 Structure written by MMmdl.
164172  0  0  1  0            999 V2000
  -30.6700  -14.5855   20.5708 C   0  0  0  0  0  0
  -30.4518  -12.3987   19.4122 C   0  0  0  0  0  0
  -29.5063  -12.5188   18.2003 C   0  0  0  0  0  0
  -28.0287  -12.3667   18.6271 C   0  0  0  0  0  0
  -27.6573  -13.2255   19.8640 C   0  0  2  0  0  0
  -28.7135  -13.0516   20.9775 C   0  0  0  0  0  0
  -25.2579  -13.8187   20.5699 C   0  0  0  0  0  0
  -24.1868  -13.0450   20.9184 C   0  0  0  0  0  0
  -24.6460  -11.6918   20.8767 C   0  0  0  0  0  0
  -23.9097  -10.4308   21.0427 C   0  0  0  0  0  0
  -24.3638   -9.4198   21.9183 C   0  0  0  0  0  0
  -23.6310   -8.2244   22.0763 C   0  0  0  0  0  0
  -22.4300   -8.0261   21.3536 C   0  0  0  0  0  0
  -21.9919   -9.0253   20.4664 C   0  0  0  0  0  0
  -22.7267  -10.2121   20.3076 C   0  0  0  0  0  0
  -21.6844   -6.0706   22.5253 C   0  0  0  0  0  0
  -21.4012   -6.5624   23.8185 C   0  0  0  0  0  0
  -21.3688   -5.6779   24.9160 C   0  0  0  0  0  0
  -21.6071   -4.3047   24.7200 C   0  0  0  0  0  0
  -21.8839   -3.8119   23.4339 C   0  0  0  0  0  0
  -21.9201   -4.6937   22.3388 C   0  0  0  0  0  0
  -22.7867  -13.5172   21.1788 C   0  0  0  0  0  0
  -22.1659   -4.2131   21.0978 F   0  0  0  0  0  0
  -21.5629   -3.4528   25.7717 F   0  0  0  0  0  0
  -30.0211  -13.3992   20.3968 N   0  0  0  0  0  0
  -26.3039  -12.9405   20.3372 N   0  0  0  0  0  0
  -25.9400  -11.6547   20.5784 N   0  0  0  0  0  0
  -22.0500  -12.8260   22.0393 N   0  0  0  0  0  0
  -25.4276  -15.1917   20.4046 N   0  0  0  0  0  0
  -31.8492  -14.7555   20.2482 O   0  0  0  0  0  0
  -21.6661   -6.8860   21.4206 O   0  0  0  0  0  0
  -22.3553  -14.5467   20.6556 O   0  0  0  0  0  0
  -24.6237  -31.8685   23.2152 C   0  0  0  0  0  0
  -25.9100  -32.4863   23.8428 C   0  0  1  0  0  0
  -27.2104  -27.3755   20.0887 C   0  0  0  0  0  0
  -25.5939  -33.8657   24.2385 N   0  0  0  0  0  0
  -23.4123  -30.5025   21.5563 C   0  0  2  0  0  0
  -24.8495  -28.9707   20.1156 C   0  0  0  0  0  0
  -22.7431  -29.4733   22.4959 C   0  0  0  0  0  0
  -18.0284  -28.1422   22.8466 C   0  0  0  0  0  0
  -24.1468  -36.7273   23.2636 C   0  0  0  0  0  0
  -25.9549  -30.8126   21.3814 C   0  0  0  0  0  0
  -26.0211  -29.4485   20.7165 C   0  0  0  0  0  0
  -27.2049  -28.6618   20.6949 C   0  0  0  0  0  0
  -26.0145  -26.9441   19.4657 C   0  0  0  0  0  0
  -24.8471  -27.7203   19.4822 C   0  0  0  0  0  0
  -23.6177  -29.8439   20.1703 C   0  0  0  0  0  0
  -25.4101  -36.3152   24.0342 C   0  0  1  0  0  0
  -20.5894  -28.3742   23.1245 C   0  0  2  0  0  0
  -20.6784  -26.9468   22.5376 C   0  0  0  0  0  0
  -19.5780  -26.6411   21.5170 C   0  0  0  0  0  0
  -18.1965  -26.7969   22.1583 C   0  0  0  0  0  0
  -19.1546  -28.8879   23.2886 C   0  0  0  0  0  0
  -18.9457  -30.1469   23.8927 C   0  0  0  0  0  0
  -17.6462  -30.6621   24.0568 C   0  0  0  0  0  0
  -25.9004  -34.9500   23.5141 C   0  0  0  0  0  0
  -16.5348  -29.9111   23.6365 C   0  0  0  0  0  0
  -16.7280  -28.6534   23.0382 C   0  0  0  0  0  0
  -26.4508  -31.6671   25.0778 C   0  0  0  0  0  0
  -25.3725  -31.3700   26.1481 C   0  0  0  0  0  0
  -27.0383  -30.3138   24.6173 C   0  0  0  0  0  0
  -27.6163  -32.4323   25.7484 C   0  0  0  0  0  0
  -27.5580  -37.1789   24.8476 C   0  0  0  0  0  0
  -21.4167  -29.3103   22.3624 N   0  0  0  0  0  0
  -26.4299  -37.3818   23.9407 N   0  0  0  0  0  0
  -24.6848  -31.0729   22.1100 N   0  0  0  0  0  0
  -23.4164  -28.8235   23.3003 O   0  0  0  0  0  0
  -28.3334  -26.5477   20.1311 O   0  0  0  0  0  0
  -26.5573  -34.8929   22.4702 O   0  0  0  0  0  0
  -23.5408  -32.1423   23.7525 O   0  0  0  0  0  0
  -29.7202  -19.0253   20.8451 C   0  0  0  0  0  0
  -31.2855  -20.8286   21.1882 C   0  0  0  0  0  0
  -30.0559  -20.4004   20.6744 C   0  0  0  0  0  0
  -30.6170  -18.1321   21.5116 C   0  0  0  0  0  0
  -31.8613  -18.6923   21.9360 C   0  0  0  0  0  0
  -33.0322  -18.2891   24.1537 C   0  0  0  0  0  0
  -34.3368  -18.0947   21.9441 C   0  0  0  0  0  0
  -29.1823  -21.4300   19.9266 C   0  0  0  0  0  0
  -30.1731  -16.6931   21.9398 C   0  0  0  0  0  0
  -28.6293  -22.6388   20.7589 C   0  0  0  0  0  0
  -29.1735  -24.0909   20.4551 C   0  0  0  0  0  0
  -28.0474  -25.1155   20.0891 C   0  0  0  0  0  0
  -32.9751  -17.9188   22.6548 C   0  0  0  0  0  0
  -32.1541  -20.0019   21.7891 N   0  0  0  0  0  0
  -29.8751  -15.6115   20.9698 N   0  0  0  0  0  0
  -31.4881  -12.5498   19.0958 H   0  0  0  0  0  0
  -30.4074  -11.3982   19.8426 H   0  0  0  0  0  0
  -29.7552  -11.7575   17.4595 H   0  0  0  0  0  0
  -29.6469  -13.4837   17.7075 H   0  0  0  0  0  0
  -27.8582  -11.3112   18.8400 H   0  0  0  0  0  0
  -27.3719  -12.6186   17.7936 H   0  0  0  0  0  0
  -27.6743  -14.2703   19.5442 H   0  0  0  0  0  0
  -28.7271  -12.0204   21.3376 H   0  0  0  0  0  0
  -28.4678  -13.6683   21.8463 H   0  0  0  0  0  0
  -25.2791   -9.5641   22.4763 H   0  0  0  0  0  0
  -24.0007   -7.4640   22.7491 H   0  0  0  0  0  0
  -21.0858   -8.8783   19.8988 H   0  0  0  0  0  0
  -22.3745  -10.9653   19.6185 H   0  0  0  0  0  0
  -21.2001   -7.6136   23.9657 H   0  0  0  0  0  0
  -21.1492   -6.0525   25.9054 H   0  0  0  0  0  0
  -22.0607   -2.7579   23.2842 H   0  0  0  0  0  0
  -22.4115  -11.9987   22.4959 H   0  0  0  0  0  0
  -21.1070  -13.1252   22.2481 H   0  0  0  0  0  0
  -24.6490  -15.8373   20.4996 H   0  0  0  0  0  0
  -26.2645  -15.6294   20.0405 H   0  0  0  0  0  0
  -26.7174  -32.5493   23.1181 H   0  0  0  0  0  0
  -25.0207  -33.9832   25.0617 H   0  0  0  0  0  0
  -22.7067  -31.3268   21.4232 H   0  0  0  0  0  0
  -23.3765  -35.9562   23.3333 H   0  0  0  0  0  0
  -24.3575  -36.8838   22.2045 H   0  0  0  0  0  0
  -23.7146  -37.6437   23.6631 H   0  0  0  0  0  0
  -26.0780  -31.5831   20.6179 H   0  0  0  0  0  0
  -26.8407  -30.8530   22.0060 H   0  0  0  0  0  0
  -28.1060  -29.0188   21.1697 H   0  0  0  0  0  0
  -25.9476  -25.9978   18.9546 H   0  0  0  0  0  0
  -23.9485  -27.3574   19.0028 H   0  0  0  0  0  0
  -23.7219  -30.6177   19.4099 H   0  0  0  0  0  0
  -22.7364  -29.2703   19.8852 H   0  0  0  0  0  0
  -25.1284  -36.2035   25.0831 H   0  0  0  0  0  0
  -21.0026  -28.3323   24.1348 H   0  0  0  0  0  0
  -20.5664  -26.2368   23.3568 H   0  0  0  0  0  0
  -21.6654  -26.7510   22.1173 H   0  0  0  0  0  0
  -19.6953  -25.6302   21.1264 H   0  0  0  0  0  0
  -19.6718  -27.3160   20.6644 H   0  0  0  0  0  0
  -17.4213  -26.6717   21.4012 H   0  0  0  0  0  0
  -18.0407  -26.0103   22.8974 H   0  0  0  0  0  0
  -19.7919  -30.7308   24.2312 H   0  0  0  0  0  0
  -17.5006  -31.6320   24.5152 H   0  0  0  0  0  0
  -15.5364  -30.3040   23.7660 H   0  0  0  0  0  0
  -15.8675  -28.0860   22.7122 H   0  0  0  0  0  0
  -24.5969  -30.7045   25.7690 H   0  0  0  0  0  0
  -24.8836  -32.2819   26.4927 H   0  0  0  0  0  0
  -25.8000  -30.8813   27.0262 H   0  0  0  0  0  0
  -26.3001  -29.6853   24.1217 H   0  0  0  0  0  0
  -27.4189  -29.7412   25.4639 H   0  0  0  0  0  0
  -27.8799  -30.4484   23.9371 H   0  0  0  0  0  0
  -27.2961  -33.3653   26.2115 H   0  0  0  0  0  0
  -28.3932  -32.6817   25.0244 H   0  0  0  0  0  0
  -28.0916  -31.8404   26.5313 H   0  0  0  0  0  0
  -28.2639  -38.0055   24.7581 H   0  0  0  0  0  0
  -28.1066  -36.2612   24.6309 H   0  0  0  0  0  0
  -27.2318  -37.1427   25.8883 H   0  0  0  0  0  0
  -20.9349  -29.8683   21.6711 H   0  0  0  0  0  0
  -26.0209  -38.2883   24.1436 H   0  0  0  0  0  0
  -28.7553  -18.6702   20.5154 H   0  0  0  0  0  0
  -31.5940  -21.8593   21.1061 H   0  0  0  0  0  0
  -32.0678  -18.1165   24.6357 H   0  0  0  0  0  0
  -33.2897  -19.3403   24.3066 H   0  0  0  0  0  0
  -33.7857  -17.7031   24.6813 H   0  0  0  0  0  0
  -34.2501  -17.8177   20.8896 H   0  0  0  0  0  0
  -35.1116  -17.4823   22.4077 H   0  0  0  0  0  0
  -34.6873  -19.1259   21.9719 H   0  0  0  0  0  0
  -28.3490  -20.8885   19.4762 H   0  0  0  0  0  0
  -29.7596  -21.8093   19.0828 H   0  0  0  0  0  0
  -29.2362  -16.8397   22.4806 H   0  0  0  0  0  0
  -30.8011  -16.2760   22.7221 H   0  0  0  0  0  0
  -28.7076  -22.4210   21.8270 H   0  0  0  0  0  0
  -27.5507  -22.6653   20.5755 H   0  0  0  0  0  0
  -29.9189  -24.0625   19.6588 H   0  0  0  0  0  0
  -29.7038  -24.4401   21.3426 H   0  0  0  0  0  0
  -27.2151  -24.9350   20.7708 H   0  0  0  0  0  0
  -27.7125  -24.8543   19.0847 H   0  0  0  0  0  0
  -32.7837  -16.8486   22.5919 H   0  0  0  0  0  0
  -28.8978  -15.3604   20.9397 H   0  0  0  0  0  0
  1 25  1  0  0  0
  1 30  2  0  0  0
  1 85  1  0  0  0
  2  3  1  0  0  0
  2 25  1  0  0  0
  2 86  1  0  0  0
  2 87  1  0  0  0
  3  4  1  0  0  0
  3 88  1  0  0  0
  3 89  1  0  0  0
  4  5  1  0  0  0
  4 90  1  0  0  0
  4 91  1  0  0  0
  5  6  1  0  0  0
  5 26  1  0  0  0
  5 92  1  0  0  0
  6 25  1  0  0  0
  6 93  1  0  0  0
  6 94  1  0  0  0
  7  8  2  0  0  0
  7 26  1  0  0  0
  7 29  1  0  0  0
  8  9  1  0  0  0
  8 22  1  0  0  0
  9 10  1  0  0  0
  9 27  2  0  0  0
 10 11  2  0  0  0
 10 15  1  0  0  0
 11 12  1  0  0  0
 11 95  1  0  0  0
 12 13  2  0  0  0
 12 96  1  0  0  0
 13 14  1  0  0  0
 13 31  1  0  0  0
 14 15  2  0  0  0
 14 97  1  0  0  0
 15 98  1  0  0  0
 16 17  2  0  0  0
 16 21  1  0  0  0
 16 31  1  0  0  0
 17 18  1  0  0  0
 17 99  1  0  0  0
 18 19  2  0  0  0
 18100  1  0  0  0
 19 20  1  0  0  0
 19 24  1  0  0  0
 20 21  2  0  0  0
 20101  1  0  0  0
 21 23  1  0  0  0
 22 28  1  0  0  0
 22 32  2  0  0  0
 26 27  1  0  0  0
 28102  1  0  0  0
 28103  1  0  0  0
 29104  1  0  0  0
 29105  1  0  0  0
 33 34  1  0  0  0
 33 66  1  0  0  0
 33 70  2  0  0  0
 34 36  1  0  0  0
 34 59  1  0  0  0
 34106  1  0  0  0
 35 44  2  0  0  0
 35 45  1  0  0  0
 35 68  1  0  0  0
 36 56  1  0  0  0
 36107  1  0  0  0
 37 39  1  0  0  0
 37 47  1  0  0  0
 37 66  1  0  0  0
 37108  1  0  0  0
 38 43  2  0  0  0
 38 46  1  0  0  0
 38 47  1  0  0  0
 39 64  1  0  0  0
 39 67  2  0  0  0
 40 52  1  0  0  0
 40 53  2  0  0  0
 40 58  1  0  0  0
 41109  1  0  0  0
 41110  1  0  0  0
 41111  1  0  0  0
 41 48  1  0  0  0
 42 43  1  0  0  0
 42 66  1  0  0  0
 42112  1  0  0  0
 42113  1  0  0  0
 43 44  1  0  0  0
 44114  1  0  0  0
 45 46  2  0  0  0
 45115  1  0  0  0
 46116  1  0  0  0
 47117  1  0  0  0
 47118  1  0  0  0
 48 56  1  0  0  0
 48 65  1  0  0  0
 48119  1  0  0  0
 49 50  1  0  0  0
 49 53  1  0  0  0
 49 64  1  0  0  0
 49120  1  0  0  0
 50 51  1  0  0  0
 50121  1  0  0  0
 50122  1  0  0  0
 51 52  1  0  0  0
 51123  1  0  0  0
 51124  1  0  0  0
 52125  1  0  0  0
 52126  1  0  0  0
 53 54  1  0  0  0
 54 55  2  0  0  0
 54127  1  0  0  0
 55 57  1  0  0  0
 55128  1  0  0  0
 56 69  2  0  0  0
 57 58  2  0  0  0
 57129  1  0  0  0
 58130  1  0  0  0
 59 60  1  0  0  0
 59 61  1  0  0  0
 59 62  1  0  0  0
 60131  1  0  0  0
 60132  1  0  0  0
 60133  1  0  0  0
 61134  1  0  0  0
 61135  1  0  0  0
 61136  1  0  0  0
 62137  1  0  0  0
 62138  1  0  0  0
 62139  1  0  0  0
 63 65  1  0  0  0
 63140  1  0  0  0
 63141  1  0  0  0
 63142  1  0  0  0
 64143  1  0  0  0
 65144  1  0  0  0
 68 82  1  0  0  0
 71 73  2  0  0  0
 71 74  1  0  0  0
 71145  1  0  0  0
 72 73  1  0  0  0
 72 84  2  0  0  0
 72146  1  0  0  0
 73 78  1  0  0  0
 74 75  2  0  0  0
 74 79  1  0  0  0
 75 83  1  0  0  0
 75 84  1  0  0  0
 76147  1  0  0  0
 76148  1  0  0  0
 76149  1  0  0  0
 76 83  1  0  0  0
 77 83  1  0  0  0
 77150  1  0  0  0
 77151  1  0  0  0
 77152  1  0  0  0
 78 80  1  0  0  0
 78153  1  0  0  0
 78154  1  0  0  0
 79 85  1  0  0  0
 79155  1  0  0  0
 79156  1  0  0  0
 80 81  1  0  0  0
 80157  1  0  0  0
 80158  1  0  0  0
 81 82  1  0  0  0
 81159  1  0  0  0
 81160  1  0  0  0
 82161  1  0  0  0
 82162  1  0  0  0
 83163  1  0  0  0
 85164  1  0  0  0
M  ISO  4   1 100  68 101  82 101  85 100
M  END
> <chiral flag>
0

> <version>
0

> <s_m_source_file>
/data/baiqing/PycharmProjects/Reinvent-master-3.2/result/LINK_invent/BTK/process_docking_weight1_custom_sum_contain_oxygen_bond_distance_aromatic_linkinvent_7_9_3/rearranged_h_0105.sdf

> <i_m_source_file_index>
8

> <r_mmod_Potential_Energy-OPLS-2005>
-111.031867980957

> <r_mmod_Stretch_Energy-OPLS-2005>
57.6452560424805

> <r_mmod_Bend_Energy-OPLS-2005>
132.492660522461

> <r_mmod_Torsional_Energy-OPLS-2005>
238.060836791992

> <r_mmod_Improper_Torsional_Energy-OPLS-2005>
6.54197788238525

> <r_mmod_Van_der_Waal_Energy-OPLS-2005>
156.658828735352

> <r_mmod_Electrostatic_Energy-OPLS-2005>
-514.908996582031

> <r_mmod_Solvation_Energy-OPLS-2005>
-224.06086730957

> <b_mmod_Minimization_Converged-OPLS-2005>
0

> <r_mmod_RMS_Derivative-OPLS-2005>
7.21511936187744

$$$$
8
                    3D
 Structure written by MMmdl.
164171  0  0  1  0            999 V2000
  -30.4344  -15.2583   20.3795 C   0  0  0  0  0  0
  -30.4461  -12.8108   19.4975 C   0  0  0  0  0  0
  -29.5347  -12.5753   18.2672 C   0  0  0  0  0  0
  -28.0818  -12.3012   18.7018 C   0  0  0  0  0  0
  -27.6118  -13.2730   19.8140 C   0  0  2  0  0  0
  -28.6545  -13.4390   20.9378 C   0  0  0  0  0  0
  -25.2403  -13.8240   20.5743 C   0  0  0  0  0  0
  -24.1756  -13.0430   20.9258 C   0  0  0  0  0  0
  -24.6411  -11.6929   20.8754 C   0  0  0  0  0  0
  -23.9107  -10.4288   21.0400 C   0  0  0  0  0  0
  -24.3649   -9.4202   21.9181 C   0  0  0  0  0  0
  -23.6307   -8.2241   22.0761 C   0  0  0  0  0  0
  -22.4278   -8.0287   21.3554 C   0  0  0  0  0  0
  -21.9923   -9.0263   20.4652 C   0  0  0  0  0  0
  -22.7270  -10.2131   20.3053 C   0  0  0  0  0  0
  -21.6851   -6.0741   22.5280 C   0  0  0  0  0  0
  -21.4024   -6.5648   23.8218 C   0  0  0  0  0  0
  -21.3660   -5.6797   24.9177 C   0  0  0  0  0  0
  -21.6036   -4.3058   24.7221 C   0  0  0  0  0  0
  -21.8817   -3.8154   23.4344 C   0  0  0  0  0  0
  -21.9195   -4.6972   22.3401 C   0  0  0  0  0  0
  -22.7768  -13.5186   21.1900 C   0  0  0  0  0  0
  -22.1657   -4.2164   21.0977 F   0  0  0  0  0  0
  -21.5621   -3.4539   25.7734 F   0  0  0  0  0  0
  -29.8769  -13.9532   20.2955 N   0  0  0  0  0  0
  -26.2831  -12.9518   20.3193 N   0  0  0  0  0  0
  -25.9349  -11.6620   20.5695 N   0  0  0  0  0  0
  -22.0423  -12.8178   22.0458 N   0  0  0  0  0  0
  -25.4007  -15.1981   20.4182 N   0  0  0  0  0  0
  -31.6674  -15.2716   20.2794 O   0  0  0  0  0  0
  -21.6640   -6.8882   21.4240 O   0  0  0  0  0  0
  -22.3447  -14.5477   20.6725 O   0  0  0  0  0  0
  -24.6657  -31.8238   23.1702 C   0  0  0  0  0  0
  -25.9332  -32.4593   23.8177 C   0  0  1  0  0  0
  -27.2207  -26.9233   20.1708 C   0  0  0  0  0  0
  -25.5987  -33.8408   24.2079 N   0  0  0  0  0  0
  -23.4793  -30.4384   21.5208 C   0  0  2  0  0  0
  -24.9293  -28.8266   20.1161 C   0  0  0  0  0  0
  -22.7680  -29.4451   22.4772 C   0  0  0  0  0  0
  -18.0331  -28.1411   22.8462 C   0  0  0  0  0  0
  -24.1491  -36.7212   23.2646 C   0  0  0  0  0  0
  -26.0517  -30.6310   21.3984 C   0  0  0  0  0  0
  -26.1197  -29.2228   20.7366 C   0  0  0  0  0  0
  -27.2608  -28.2969   20.7306 C   0  0  0  0  0  0
  -25.9775  -26.6702   19.5436 C   0  0  0  0  0  0
  -24.8834  -27.5687   19.5001 C   0  0  0  0  0  0
  -23.7197  -29.7585   20.1466 C   0  0  0  0  0  0
  -25.4133  -36.2971   24.0296 C   0  0  1  0  0  0
  -20.5953  -28.3767   23.1175 C   0  0  2  0  0  0
  -20.6808  -26.9445   22.5398 C   0  0  0  0  0  0
  -19.5783  -26.6375   21.5213 C   0  0  0  0  0  0
  -18.1964  -26.7944   22.1617 C   0  0  0  0  0  0
  -19.1591  -28.8911   23.2807 C   0  0  0  0  0  0
  -18.9498  -30.1494   23.8855 C   0  0  0  0  0  0
  -17.6491  -30.6598   24.0556 C   0  0  0  0  0  0
  -25.9103  -34.9352   23.5009 C   0  0  0  0  0  0
  -16.5384  -29.9087   23.6338 C   0  0  0  0  0  0
  -16.7311  -28.6504   23.0364 C   0  0  0  0  0  0
  -26.4558  -31.6542   25.0715 C   0  0  0  0  0  0
  -25.3674  -31.3809   26.1365 C   0  0  0  0  0  0
  -27.0460  -30.2905   24.6467 C   0  0  0  0  0  0
  -27.6039  -32.4361   25.7530 C   0  0  0  0  0  0
  -27.5573  -37.1766   24.8463 C   0  0  0  0  0  0
  -21.4350  -29.3063   22.3528 N   0  0  0  0  0  0
  -26.4280  -37.3704   23.9405 N   0  0  0  0  0  0
  -24.7543  -30.9904   22.0837 N   0  0  0  0  0  0
  -23.4226  -28.8017   23.3014 O   0  0  0  0  0  0
  -28.2433  -25.8281   20.2331 O   0  0  0  0  0  0
  -26.5705  -34.8889   22.4604 O   0  0  0  0  0  0
  -23.5720  -32.1206   23.6788 O   0  0  0  0  0  0
  -27.9253  -24.0913   18.4540 C   0  0  0  0  0  0
  -29.3695  -19.1873   16.0543 C   0  0  0  0  0  0
  -31.1022  -18.3672   17.6470 C   0  0  0  0  0  0
  -30.7550  -20.8440   17.2971 C   0  0  0  0  0  0
  -28.9637  -19.4704   18.5147 C   0  0  0  0  0  0
  -29.6276  -18.1223   20.8056 C   0  0  0  0  0  0
  -29.1045  -22.7463   20.3127 C   0  0  0  0  0  0
  -29.4357  -19.7128   19.9723 C   0  0  2  0  0  0
  -28.0721  -24.1929   19.9851 C   0  0  1  0  0  0
  -30.0544  -19.4713   17.4053 C   0  0  0  0  0  0
  -29.6310  -16.5041   20.3599 N   0  0  0  0  0  0
  -28.7377  -21.1286   20.5302 N   0  3  0  0  0  0
  -31.4613  -13.0306   19.1635 H   0  0  0  0  0  0
  -30.5238  -11.9077   20.1049 H   0  0  0  0  0  0
  -29.9117  -11.7477   17.6646 H   0  0  0  0  0  0
  -29.5625  -13.4570   17.6243 H   0  0  0  0  0  0
  -28.0379  -11.2762   19.0707 H   0  0  0  0  0  0
  -27.4099  -12.3470   17.8433 H   0  0  0  0  0  0
  -27.5250  -14.2415   19.3200 H   0  0  0  0  0  0
  -28.8272  -12.4999   21.4669 H   0  0  0  0  0  0
  -28.3026  -14.1552   21.6823 H   0  0  0  0  0  0
  -25.2796   -9.5677   22.4759 H   0  0  0  0  0  0
  -24.0018   -7.4629   22.7481 H   0  0  0  0  0  0
  -21.0849   -8.8786   19.8964 H   0  0  0  0  0  0
  -22.3730  -10.9670   19.6162 H   0  0  0  0  0  0
  -21.2032   -7.6161   23.9722 H   0  0  0  0  0  0
  -21.1473   -6.0529   25.9078 H   0  0  0  0  0  0
  -22.0596   -2.7618   23.2831 H   0  0  0  0  0  0
  -22.4046  -11.9862   22.4885 H   0  0  0  0  0  0
  -21.1029  -13.1187   22.2634 H   0  0  0  0  0  0
  -24.6239  -15.8413   20.5287 H   0  0  0  0  0  0
  -26.2354  -15.6454   20.0653 H   0  0  0  0  0  0
  -26.7411  -32.5123   23.0900 H   0  0  0  0  0  0
  -25.0093  -33.9476   25.0200 H   0  0  0  0  0  0
  -22.7943  -31.2709   21.3512 H   0  0  0  0  0  0
  -23.3762  -35.9533   23.3279 H   0  0  0  0  0  0
  -24.3566  -36.8891   22.2067 H   0  0  0  0  0  0
  -23.7241  -37.6389   23.6724 H   0  0  0  0  0  0
  -26.2362  -31.3754   20.6228 H   0  0  0  0  0  0
  -26.9095  -30.6827   22.0569 H   0  0  0  0  0  0
  -28.1677  -28.6055   21.2310 H   0  0  0  0  0  0
  -25.7801  -25.7002   19.1213 H   0  0  0  0  0  0
  -23.9694  -27.2468   19.0204 H   0  0  0  0  0  0
  -23.8850  -30.5289   19.3923 H   0  0  0  0  0  0
  -22.8268  -29.2212   19.8228 H   0  0  0  0  0  0
  -25.1331  -36.1767   25.0785 H   0  0  0  0  0  0
  -21.0041  -28.3380   24.1296 H   0  0  0  0  0  0
  -20.5687  -26.2390   23.3646 H   0  0  0  0  0  0
  -21.6674  -26.7424   22.1210 H   0  0  0  0  0  0
  -19.6944  -25.6267   21.1291 H   0  0  0  0  0  0
  -19.6715  -27.3142   20.6708 H   0  0  0  0  0  0
  -17.4231  -26.6682   21.4025 H   0  0  0  0  0  0
  -18.0360  -26.0101   22.9028 H   0  0  0  0  0  0
  -19.7974  -30.7318   24.2211 H   0  0  0  0  0  0
  -17.5046  -31.6273   24.5169 H   0  0  0  0  0  0
  -15.5385  -30.2980   23.7682 H   0  0  0  0  0  0
  -15.8709  -28.0806   22.7113 H   0  0  0  0  0  0
  -24.5836  -30.7189   25.7663 H   0  0  0  0  0  0
  -24.8884  -32.3024   26.4688 H   0  0  0  0  0  0
  -25.7877  -30.9023   27.0219 H   0  0  0  0  0  0
  -26.3133  -29.6574   24.1451 H   0  0  0  0  0  0
  -27.3957  -29.7282   25.5137 H   0  0  0  0  0  0
  -27.9089  -30.4079   23.9911 H   0  0  0  0  0  0
  -27.2584  -33.3689   26.2003 H   0  0  0  0  0  0
  -28.3907  -32.6890   25.0414 H   0  0  0  0  0  0
  -28.0651  -31.8573   26.5542 H   0  0  0  0  0  0
  -28.2565  -38.0083   24.7510 H   0  0  0  0  0  0
  -28.1092  -36.2612   24.6287 H   0  0  0  0  0  0
  -27.2295  -37.1410   25.8865 H   0  0  0  0  0  0
  -20.9603  -29.8759   21.6663 H   0  0  0  0  0  0
  -26.0130  -38.2764   24.1404 H   0  0  0  0  0  0
  -27.5948  -23.0950   18.1598 H   0  0  0  0  0  0
  -28.8883  -24.2671   17.9746 H   0  0  0  0  0  0
  -27.2357  -24.8006   18.0106 H   0  0  0  0  0  0
  -30.0891  -19.1744   15.2346 H   0  0  0  0  0  0
  -28.6224  -19.9465   15.8170 H   0  0  0  0  0  0
  -28.8613  -18.2220   16.0571 H   0  0  0  0  0  0
  -31.8389  -18.3383   16.8432 H   0  0  0  0  0  0
  -30.6374  -17.3816   17.6940 H   0  0  0  0  0  0
  -31.6528  -18.5138   18.5761 H   0  0  0  0  0  0
  -31.4626  -20.8595   16.4671 H   0  0  0  0  0  0
  -31.3262  -21.1016   18.1889 H   0  0  0  0  0  0
  -30.0390  -21.6486   17.1242 H   0  0  0  0  0  0
  -28.2101  -20.2137   18.2510 H   0  0  0  0  0  0
  -28.4255  -18.5217   18.4863 H   0  0  0  0  0  0
  -28.8514  -18.1375   21.5703 H   0  0  0  0  0  0
  -30.5439  -18.2247   21.3888 H   0  0  0  0  0  0
  -29.6101  -22.9960   21.2458 H   0  0  0  0  0  0
  -29.9176  -22.7629   19.5876 H   0  0  0  0  0  0
  -30.4727  -20.0394   19.9177 H   0  0  0  0  0  0
  -27.1108  -23.9665   20.4468 H   0  0  0  0  0  0
  -28.6770  -16.2261   20.1859 H   0  0  0  0  0  0
  -27.7545  -21.0402   20.3258 H   0  0  0  0  0  0
  -28.7824  -21.0294   21.5316 H   0  0  0  0  0  0
  1 25  1  0  0  0
  1 30  2  0  0  0
  1 81  1  0  0  0
  2  3  1  0  0  0
  2 25  1  0  0  0
  2 83  1  0  0  0
  2 84  1  0  0  0
  3  4  1  0  0  0
  3 85  1  0  0  0
  3 86  1  0  0  0
  4  5  1  0  0  0
  4 87  1  0  0  0
  4 88  1  0  0  0
  5  6  1  0  0  0
  5 26  1  0  0  0
  5 89  1  0  0  0
  6 25  1  0  0  0
  6 90  1  0  0  0
  6 91  1  0  0  0
  7  8  2  0  0  0
  7 26  1  0  0  0
  7 29  1  0  0  0
  8  9  1  0  0  0
  8 22  1  0  0  0
  9 10  1  0  0  0
  9 27  2  0  0  0
 10 11  2  0  0  0
 10 15  1  0  0  0
 11 12  1  0  0  0
 11 92  1  0  0  0
 12 13  2  0  0  0
 12 93  1  0  0  0
 13 14  1  0  0  0
 13 31  1  0  0  0
 14 15  2  0  0  0
 14 94  1  0  0  0
 15 95  1  0  0  0
 16 17  2  0  0  0
 16 21  1  0  0  0
 16 31  1  0  0  0
 17 18  1  0  0  0
 17 96  1  0  0  0
 18 19  2  0  0  0
 18 97  1  0  0  0
 19 20  1  0  0  0
 19 24  1  0  0  0
 20 21  2  0  0  0
 20 98  1  0  0  0
 21 23  1  0  0  0
 22 28  1  0  0  0
 22 32  2  0  0  0
 26 27  1  0  0  0
 28 99  1  0  0  0
 28100  1  0  0  0
 29101  1  0  0  0
 29102  1  0  0  0
 33 34  1  0  0  0
 33 66  1  0  0  0
 33 70  2  0  0  0
 34 36  1  0  0  0
 34 59  1  0  0  0
 34103  1  0  0  0
 35 44  2  0  0  0
 35 45  1  0  0  0
 35 68  1  0  0  0
 36 56  1  0  0  0
 36104  1  0  0  0
 37 39  1  0  0  0
 37 47  1  0  0  0
 37 66  1  0  0  0
 37105  1  0  0  0
 38 43  2  0  0  0
 38 46  1  0  0  0
 38 47  1  0  0  0
 39 64  1  0  0  0
 39 67  2  0  0  0
 40 52  1  0  0  0
 40 53  2  0  0  0
 40 58  1  0  0  0
 41106  1  0  0  0
 41107  1  0  0  0
 41108  1  0  0  0
 41 48  1  0  0  0
 42 43  1  0  0  0
 42 66  1  0  0  0
 42109  1  0  0  0
 42110  1  0  0  0
 43 44  1  0  0  0
 44111  1  0  0  0
 45 46  2  0  0  0
 45112  1  0  0  0
 46113  1  0  0  0
 47114  1  0  0  0
 47115  1  0  0  0
 48 56  1  0  0  0
 48 65  1  0  0  0
 48116  1  0  0  0
 49 50  1  0  0  0
 49 53  1  0  0  0
 49 64  1  0  0  0
 49117  1  0  0  0
 50 51  1  0  0  0
 50118  1  0  0  0
 50119  1  0  0  0
 51 52  1  0  0  0
 51120  1  0  0  0
 51121  1  0  0  0
 52122  1  0  0  0
 52123  1  0  0  0
 53 54  1  0  0  0
 54 55  2  0  0  0
 54124  1  0  0  0
 55 57  1  0  0  0
 55125  1  0  0  0
 56 69  2  0  0  0
 57 58  2  0  0  0
 57126  1  0  0  0
 58127  1  0  0  0
 59 60  1  0  0  0
 59 61  1  0  0  0
 59 62  1  0  0  0
 60128  1  0  0  0
 60129  1  0  0  0
 60130  1  0  0  0
 61131  1  0  0  0
 61132  1  0  0  0
 61133  1  0  0  0
 62134  1  0  0  0
 62135  1  0  0  0
 62136  1  0  0  0
 63 65  1  0  0  0
 63137  1  0  0  0
 63138  1  0  0  0
 63139  1  0  0  0
 64140  1  0  0  0
 65141  1  0  0  0
 68 79  1  0  0  0
 71142  1  0  0  0
 71143  1  0  0  0
 71144  1  0  0  0
 71 79  1  0  0  0
 72145  1  0  0  0
 72146  1  0  0  0
 72147  1  0  0  0
 72 80  1  0  0  0
 73 80  1  0  0  0
 73148  1  0  0  0
 73149  1  0  0  0
 73150  1  0  0  0
 74 80  1  0  0  0
 74151  1  0  0  0
 74152  1  0  0  0
 74153  1  0  0  0
 75 80  1  0  0  0
 75154  1  0  0  0
 75155  1  0  0  0
 75 78  1  0  0  0
 76 78  1  0  0  0
 76 81  1  0  0  0
 76156  1  0  0  0
 76157  1  0  0  0
 77 79  1  0  0  0
 77 82  1  0  0  0
 77158  1  0  0  0
 77159  1  0  0  0
 78 82  1  0  0  0
 78160  1  0  0  0
 79161  1  0  0  0
 81162  1  0  0  0
 82163  1  0  0  0
 82164  1  0  0  0
M  CHG  1  82   1
M  ISO  4   1 100  68 101  79 101  81 100
M  END
> <chiral flag>
0

> <version>
0

> <s_m_source_file>
/data/baiqing/PycharmProjects/Reinvent-master-3.2/result/LINK_invent/BTK/process_docking_weight1_custom_sum_contain_oxygen_bond_distance_aromatic_linkinvent_7_9_3/rearranged_h_0105.sdf

> <i_m_source_file_index>
9

> <r_mmod_Potential_Energy-OPLS-2005>
1213.84814453125

> <r_mmod_Stretch_Energy-OPLS-2005>
619.894775390625

> <r_mmod_Bend_Energy-OPLS-2005>
497.914794921875

> <r_mmod_Torsional_Energy-OPLS-2005>
278.718170166016

> <r_mmod_Improper_Torsional_Energy-OPLS-2005>
5.28300619125366

> <r_mmod_Van_der_Waal_Energy-OPLS-2005>
105.59105682373

> <r_mmod_Electrostatic_Energy-OPLS-2005>
-290.216461181641

> <r_mmod_Solvation_Energy-OPLS-2005>
-461.271179199219

> <b_mmod_Minimization_Converged-OPLS-2005>
0

> <r_mmod_RMS_Derivative-OPLS-2005>
1.82621610164642

$$$$
9
                    3D
 Structure written by MMmdl.
146153  0  0  1  0            999 V2000
  -30.3224  -15.5833   20.3418 C   0  0  0  0  0  0
  -30.4328  -13.0489   19.5272 C   0  0  0  0  0  0
  -29.5458  -12.6315   18.3203 C   0  0  0  0  0  0
  -28.1238  -12.2709   18.7778 C   0  0  0  0  0  0
  -27.6000  -13.2799   19.8214 C   0  0  2  0  0  0
  -28.6290  -13.5794   20.9376 C   0  0  0  0  0  0
  -25.2329  -13.8179   20.5822 C   0  0  0  0  0  0
  -24.1694  -13.0367   20.9288 C   0  0  0  0  0  0
  -24.6375  -11.6880   20.8781 C   0  0  0  0  0  0
  -23.9071  -10.4251   21.0409 C   0  0  0  0  0  0
  -24.3617   -9.4176   21.9187 C   0  0  0  0  0  0
  -23.6289   -8.2213   22.0748 C   0  0  0  0  0  0
  -22.4267   -8.0259   21.3535 C   0  0  0  0  0  0
  -21.9909   -9.0233   20.4634 C   0  0  0  0  0  0
  -22.7245  -10.2107   20.3049 C   0  0  0  0  0  0
  -21.6851   -6.0716   22.5276 C   0  0  0  0  0  0
  -21.4003   -6.5629   23.8212 C   0  0  0  0  0  0
  -21.3662   -5.6789   24.9173 C   0  0  0  0  0  0
  -21.6045   -4.3049   24.7233 C   0  0  0  0  0  0
  -21.8821   -3.8136   23.4355 C   0  0  0  0  0  0
  -21.9195   -4.6949   22.3407 C   0  0  0  0  0  0
  -22.7723  -13.5147   21.1917 C   0  0  0  0  0  0
  -22.1674   -4.2134   21.0983 F   0  0  0  0  0  0
  -21.5629   -3.4534   25.7745 F   0  0  0  0  0  0
  -29.7952  -14.2201   20.2771 N   0  0  0  0  0  0
  -26.2777  -12.9478   20.3304 N   0  0  0  0  0  0
  -25.9318  -11.6576   20.5758 N   0  0  0  0  0  0
  -22.0382  -12.8126   22.0470 N   0  0  0  0  0  0
  -25.3861  -15.1895   20.4280 N   0  0  0  0  0  0
  -31.5598  -15.5197   20.1983 O   0  0  0  0  0  0
  -21.6626   -6.8857   21.4239 O   0  0  0  0  0  0
  -22.3408  -14.5460   20.6772 O   0  0  0  0  0  0
  -24.6788  -31.8050   23.1546 C   0  0  0  0  0  0
  -25.9393  -32.4493   23.8082 C   0  0  1  0  0  0
  -27.2302  -26.7511   20.2115 C   0  0  0  0  0  0
  -25.6001  -33.8314   24.1987 N   0  0  0  0  0  0
  -23.5023  -30.4069   21.5093 C   0  0  2  0  0  0
  -24.9586  -28.7545   20.1207 C   0  0  0  0  0  0
  -22.7744  -29.4324   22.4730 C   0  0  0  0  0  0
  -18.0325  -28.1401   22.8428 C   0  0  0  0  0  0
  -24.1494  -36.7170   23.2647 C   0  0  0  0  0  0
  -26.0799  -30.5540   21.4092 C   0  0  0  0  0  0
  -26.1476  -29.1226   20.7613 C   0  0  0  0  0  0
  -27.2702  -28.1485   20.7734 C   0  0  0  0  0  0
  -26.0054  -26.5759   19.5196 C   0  0  0  0  0  0
  -24.9228  -27.5046   19.4782 C   0  0  0  0  0  0
  -23.7542  -29.7058   20.1442 C   0  0  0  0  0  0
  -25.4139  -36.2912   24.0287 C   0  0  1  0  0  0
  -20.5958  -28.3750   23.1141 C   0  0  2  0  0  0
  -20.6792  -26.9407   22.5395 C   0  0  0  0  0  0
  -19.5779  -26.6357   21.5192 C   0  0  0  0  0  0
  -18.1956  -26.7931   22.1595 C   0  0  0  0  0  0
  -19.1592  -28.8894   23.2764 C   0  0  0  0  0  0
  -18.9509  -30.1475   23.8807 C   0  0  0  0  0  0
  -17.6503  -30.6583   24.0532 C   0  0  0  0  0  0
  -25.9119  -34.9300   23.4971 C   0  0  0  0  0  0
  -16.5385  -29.9069   23.6338 C   0  0  0  0  0  0
  -16.7307  -28.6491   23.0354 C   0  0  0  0  0  0
  -26.4582  -31.6492   25.0677 C   0  0  0  0  0  0
  -25.3663  -31.3780   26.1300 C   0  0  0  0  0  0
  -27.0489  -30.2837   24.6508 C   0  0  0  0  0  0
  -27.6054  -32.4326   25.7487 C   0  0  0  0  0  0
  -27.5571  -37.1725   24.8466 C   0  0  0  0  0  0
  -21.4395  -29.3023   22.3487 N   0  0  0  0  0  0
  -26.4269  -37.3676   23.9422 N   0  0  0  0  0  0
  -24.7767  -30.9542   22.0773 N   0  0  0  0  0  0
  -23.4211  -28.7914   23.3046 O   0  0  0  0  0  0
  -28.2202  -25.5705   20.2665 O   0  0  0  0  0  0
  -26.5750  -34.8867   22.4582 O   0  0  0  0  0  0
  -23.5822  -32.1107   23.6537 O   0  0  0  0  0  0
  -28.1134  -16.8398   20.3960 C   0  0  0  0  0  0
  -28.8140  -20.3076   20.3286 C   0  0  0  0  0  0
  -29.0422  -22.2125   20.2550 C   0  0  0  0  0  0
  -29.8482  -18.6893   20.3077 C   0  0  0  0  0  0
  -28.0265  -23.8410   20.2496 C   0  0  0  0  0  0
  -29.5656  -16.9524   20.3664 N   0  0  0  0  0  0
  -31.4193  -13.3218   19.1511 H   0  0  0  0  0  0
  -30.6090  -12.2019   20.1923 H   0  0  0  0  0  0
  -29.9952  -11.7899   17.7912 H   0  0  0  0  0  0
  -29.4994  -13.4556   17.6069 H   0  0  0  0  0  0
  -28.1658  -11.2795   19.2325 H   0  0  0  0  0  0
  -27.4457  -12.1930   17.9278 H   0  0  0  0  0  0
  -27.4651  -14.1940   19.2478 H   0  0  0  0  0  0
  -28.8972  -12.6722   21.4810 H   0  0  0  0  0  0
  -28.2081  -14.2447   21.6893 H   0  0  0  0  0  0
  -25.2756   -9.5655   22.4775 H   0  0  0  0  0  0
  -23.9991   -7.4601   22.7470 H   0  0  0  0  0  0
  -21.0836   -8.8756   19.8941 H   0  0  0  0  0  0
  -22.3706  -10.9648   19.6163 H   0  0  0  0  0  0
  -21.1984   -7.6135   23.9711 H   0  0  0  0  0  0
  -21.1487   -6.0513   25.9079 H   0  0  0  0  0  0
  -22.0596   -2.7597   23.2863 H   0  0  0  0  0  0
  -22.4017  -11.9806   22.4871 H   0  0  0  0  0  0
  -21.0993  -13.1132   22.2670 H   0  0  0  0  0  0
  -24.6214  -15.8418   20.5626 H   0  0  0  0  0  0
  -26.2468  -15.6402   20.1517 H   0  0  0  0  0  0
  -26.7465  -32.4985   23.0784 H   0  0  0  0  0  0
  -25.0086  -33.9365   25.0099 H   0  0  0  0  0  0
  -22.8239  -31.2423   21.3234 H   0  0  0  0  0  0
  -23.3779  -35.9477   23.3261 H   0  0  0  0  0  0
  -24.3557  -36.8884   22.2070 H   0  0  0  0  0  0
  -23.7235  -37.6326   23.6756 H   0  0  0  0  0  0
  -26.2708  -31.2790   20.6172 H   0  0  0  0  0  0
  -26.9348  -30.6253   22.0690 H   0  0  0  0  0  0
  -28.1692  -28.4364   21.3010 H   0  0  0  0  0  0
  -25.8486  -25.6298   19.0208 H   0  0  0  0  0  0
  -24.0237  -27.2136   18.9535 H   0  0  0  0  0  0
  -23.9256  -30.4667   19.3822 H   0  0  0  0  0  0
  -22.8592  -29.1717   19.8209 H   0  0  0  0  0  0
  -25.1338  -36.1685   25.0778 H   0  0  0  0  0  0
  -21.0015  -28.3373   24.1277 H   0  0  0  0  0  0
  -20.5635  -26.2369   23.3655 H   0  0  0  0  0  0
  -21.6658  -26.7351   22.1218 H   0  0  0  0  0  0
  -19.6941  -25.6256   21.1250 H   0  0  0  0  0  0
  -19.6733  -27.3131   20.6692 H   0  0  0  0  0  0
  -17.4227  -26.6637   21.4000 H   0  0  0  0  0  0
  -18.0352  -26.0095   22.9014 H   0  0  0  0  0  0
  -19.7991  -30.7281   24.2162 H   0  0  0  0  0  0
  -17.5066  -31.6257   24.5142 H   0  0  0  0  0  0
  -15.5377  -30.2943   23.7723 H   0  0  0  0  0  0
  -15.8706  -28.0778   22.7134 H   0  0  0  0  0  0
  -24.5891  -30.7087   25.7596 H   0  0  0  0  0  0
  -24.8793  -32.2979   26.4541 H   0  0  0  0  0  0
  -25.7849  -30.9070   27.0206 H   0  0  0  0  0  0
  -26.3180  -29.6481   24.1495 H   0  0  0  0  0  0
  -27.3935  -29.7240   25.5214 H   0  0  0  0  0  0
  -27.9158  -30.3972   24.0000 H   0  0  0  0  0  0
  -27.2626  -33.3705   26.1870 H   0  0  0  0  0  0
  -28.3957  -32.6753   25.0370 H   0  0  0  0  0  0
  -28.0614  -31.8574   26.5555 H   0  0  0  0  0  0
  -28.2534  -38.0074   24.7553 H   0  0  0  0  0  0
  -28.1123  -36.2595   24.6246 H   0  0  0  0  0  0
  -27.2287  -37.1299   25.8868 H   0  0  0  0  0  0
  -20.9699  -29.8745   21.6608 H   0  0  0  0  0  0
  -26.0103  -38.2721   24.1478 H   0  0  0  0  0  0
  -27.7643  -16.3301   19.5004 H   0  0  0  0  0  0
  -27.6113  -17.8063   20.4105 H   0  0  0  0  0  0
  -27.7779  -16.3148   21.2878 H   0  0  0  0  0  0
  -28.0882  -20.1322   19.5354 H   0  0  0  0  0  0
  -28.2242  -20.1865   21.2382 H   0  0  0  0  0  0
  -29.6536  -22.3343   19.3603 H   0  0  0  0  0  0
  -29.7510  -22.3868   21.0651 H   0  0  0  0  0  0
  -30.5643  -18.8258   21.1192 H   0  0  0  0  0  0
  -30.4641  -18.7858   19.4129 H   0  0  0  0  0  0
  -27.3786  -23.7132   21.1168 H   0  0  0  0  0  0
  -27.3481  -23.7002   19.4085 H   0  0  0  0  0  0
  1 25  1  0  0  0
  1 30  2  0  0  0
  1 76  1  0  0  0
  2  3  1  0  0  0
  2 25  1  0  0  0
  2 77  1  0  0  0
  2 78  1  0  0  0
  3  4  1  0  0  0
  3 79  1  0  0  0
  3 80  1  0  0  0
  4  5  1  0  0  0
  4 81  1  0  0  0
  4 82  1  0  0  0
  5  6  1  0  0  0
  5 26  1  0  0  0
  5 83  1  0  0  0
  6 25  1  0  0  0
  6 84  1  0  0  0
  6 85  1  0  0  0
  7  8  2  0  0  0
  7 26  1  0  0  0
  7 29  1  0  0  0
  8  9  1  0  0  0
  8 22  1  0  0  0
  9 10  1  0  0  0
  9 27  2  0  0  0
 10 11  2  0  0  0
 10 15  1  0  0  0
 11 12  1  0  0  0
 11 86  1  0  0  0
 12 13  2  0  0  0
 12 87  1  0  0  0
 13 14  1  0  0  0
 13 31  1  0  0  0
 14 15  2  0  0  0
 14 88  1  0  0  0
 15 89  1  0  0  0
 16 17  2  0  0  0
 16 21  1  0  0  0
 16 31  1  0  0  0
 17 18  1  0  0  0
 17 90  1  0  0  0
 18 19  2  0  0  0
 18 91  1  0  0  0
 19 20  1  0  0  0
 19 24  1  0  0  0
 20 21  2  0  0  0
 20 92  1  0  0  0
 21 23  1  0  0  0
 22 28  1  0  0  0
 22 32  2  0  0  0
 26 27  1  0  0  0
 28 93  1  0  0  0
 28 94  1  0  0  0
 29 95  1  0  0  0
 29 96  1  0  0  0
 33 34  1  0  0  0
 33 66  1  0  0  0
 33 70  2  0  0  0
 34 36  1  0  0  0
 34 59  1  0  0  0
 34 97  1  0  0  0
 35 44  2  0  0  0
 35 45  1  0  0  0
 35 68  1  0  0  0
 36 56  1  0  0  0
 36 98  1  0  0  0
 37 39  1  0  0  0
 37 47  1  0  0  0
 37 66  1  0  0  0
 37 99  1  0  0  0
 38 43  2  0  0  0
 38 46  1  0  0  0
 38 47  1  0  0  0
 39 64  1  0  0  0
 39 67  2  0  0  0
 40 52  1  0  0  0
 40 53  2  0  0  0
 40 58  1  0  0  0
 41100  1  0  0  0
 41101  1  0  0  0
 41102  1  0  0  0
 41 48  1  0  0  0
 42 43  1  0  0  0
 42 66  1  0  0  0
 42103  1  0  0  0
 42104  1  0  0  0
 43 44  1  0  0  0
 44105  1  0  0  0
 45 46  2  0  0  0
 45106  1  0  0  0
 46107  1  0  0  0
 47108  1  0  0  0
 47109  1  0  0  0
 48 56  1  0  0  0
 48 65  1  0  0  0
 48110  1  0  0  0
 49 50  1  0  0  0
 49 53  1  0  0  0
 49 64  1  0  0  0
 49111  1  0  0  0
 50 51  1  0  0  0
 50112  1  0  0  0
 50113  1  0  0  0
 51 52  1  0  0  0
 51114  1  0  0  0
 51115  1  0  0  0
 52116  1  0  0  0
 52117  1  0  0  0
 53 54  1  0  0  0
 54 55  2  0  0  0
 54118  1  0  0  0
 55 57  1  0  0  0
 55119  1  0  0  0
 56 69  2  0  0  0
 57 58  2  0  0  0
 57120  1  0  0  0
 58121  1  0  0  0
 59 60  1  0  0  0
 59 61  1  0  0  0
 59 62  1  0  0  0
 60122  1  0  0  0
 60123  1  0  0  0
 60124  1  0  0  0
 61125  1  0  0  0
 61126  1  0  0  0
 61127  1  0  0  0
 62128  1  0  0  0
 62129  1  0  0  0
 62130  1  0  0  0
 63 65  1  0  0  0
 63131  1  0  0  0
 63132  1  0  0  0
 63133  1  0  0  0
 64134  1  0  0  0
 65135  1  0  0  0
 68 75  1  0  0  0
 71 76  1  0  0  0
 71136  1  0  0  0
 71137  1  0  0  0
 71138  1  0  0  0
 72 73  1  0  0  0
 72 74  1  0  0  0
 72139  1  0  0  0
 72140  1  0  0  0
 73 75  1  0  0  0
 73141  1  0  0  0
 73142  1  0  0  0
 74 76  1  0  0  0
 74143  1  0  0  0
 74144  1  0  0  0
 75145  1  0  0  0
 75146  1  0  0  0
M  ISO  4   1 100  68 101  75 101  76 100
M  END
> <chiral flag>
0

> <version>
0

> <s_m_source_file>
/data/baiqing/PycharmProjects/Reinvent-master-3.2/result/LINK_invent/BTK/process_docking_weight1_custom_sum_contain_oxygen_bond_distance_aromatic_linkinvent_7_9_3/rearranged_h_0105.sdf

> <i_m_source_file_index>
10

> <r_mmod_Potential_Energy-OPLS-2005>
2394.60620117188

> <r_mmod_Stretch_Energy-OPLS-2005>
1089.49169921875

> <r_mmod_Bend_Energy-OPLS-2005>
600.165954589844

> <r_mmod_Torsional_Energy-OPLS-2005>
262.956756591797

> <r_mmod_Improper_Torsional_Energy-OPLS-2005>
3.83639168739319

> <r_mmod_Van_der_Waal_Energy-OPLS-2005>
114.869972229004

> <r_mmod_Electrostatic_Energy-OPLS-2005>
-274.106903076172

> <r_mmod_Solvation_Energy-OPLS-2005>
-208.84977722168

> <b_mmod_Minimization_Converged-OPLS-2005>
0

> <r_mmod_RMS_Derivative-OPLS-2005>
1.83712780475616

$$$$
10
                    3D
 Structure written by MMmdl.
162170  0  0  1  0            999 V2000
  -30.6316  -14.7237   20.4820 C   0  0  0  0  0  0
  -30.4313  -12.4493   19.4649 C   0  0  0  0  0  0
  -29.5075  -12.5073   18.2294 C   0  0  0  0  0  0
  -28.0335  -12.3344   18.6446 C   0  0  0  0  0  0
  -27.6415  -13.2328   19.8485 C   0  0  2  0  0  0
  -28.6875  -13.1620   20.9815 C   0  0  0  0  0  0
  -25.2507  -13.8198   20.5698 C   0  0  0  0  0  0
  -24.1800  -13.0438   20.9205 C   0  0  0  0  0  0
  -24.6394  -11.6916   20.8742 C   0  0  0  0  0  0
  -23.9073  -10.4288   21.0400 C   0  0  0  0  0  0
  -24.3623   -9.4203   21.9180 C   0  0  0  0  0  0
  -23.6296   -8.2239   22.0754 C   0  0  0  0  0  0
  -22.4277   -8.0280   21.3543 C   0  0  0  0  0  0
  -21.9910   -9.0254   20.4647 C   0  0  0  0  0  0
  -22.7243  -10.2130   20.3052 C   0  0  0  0  0  0
  -21.6855   -6.0736   22.5276 C   0  0  0  0  0  0
  -21.4019   -6.5642   23.8210 C   0  0  0  0  0  0
  -21.3658   -5.6794   24.9173 C   0  0  0  0  0  0
  -21.6042   -4.3056   24.7224 C   0  0  0  0  0  0
  -21.8819   -3.8147   23.4345 C   0  0  0  0  0  0
  -21.9191   -4.6964   22.3400 C   0  0  0  0  0  0
  -22.7820  -13.5217   21.1860 C   0  0  0  0  0  0
  -22.1660   -4.2149   21.0977 F   0  0  0  0  0  0
  -21.5623   -3.4540   25.7736 F   0  0  0  0  0  0
  -29.9881  -13.5105   20.3962 N   0  0  0  0  0  0
  -26.2939  -12.9411   20.3277 N   0  0  0  0  0  0
  -25.9327  -11.6551   20.5750 N   0  0  0  0  0  0
  -22.0466  -12.8212   22.0419 N   0  0  0  0  0  0
  -25.4178  -15.1925   20.4129 N   0  0  0  0  0  0
  -31.8241  -14.8102   20.1789 O   0  0  0  0  0  0
  -21.6640   -6.8879   21.4239 O   0  0  0  0  0  0
  -22.3498  -14.5516   20.6700 O   0  0  0  0  0  0
  -24.6322  -31.8561   23.1998 C   0  0  0  0  0  0
  -25.9147  -32.4759   23.8340 C   0  0  1  0  0  0
  -27.2141  -27.2603   20.1239 C   0  0  0  0  0  0
  -25.5940  -33.8561   24.2262 N   0  0  0  0  0  0
  -23.4280  -30.4816   21.5441 C   0  0  2  0  0  0
  -24.8733  -28.9335   20.1110 C   0  0  0  0  0  0
  -22.7507  -29.4613   22.4912 C   0  0  0  0  0  0
  -18.0293  -28.1390   22.8485 C   0  0  0  0  0  0
  -24.1489  -36.7285   23.2639 C   0  0  0  0  0  0
  -25.9760  -30.7698   21.3801 C   0  0  0  0  0  0
  -26.0481  -29.3937   20.7193 C   0  0  0  0  0  0
  -27.2223  -28.5712   20.7133 C   0  0  0  0  0  0
  -26.0117  -26.8756   19.4842 C   0  0  0  0  0  0
  -24.8608  -27.6825   19.4825 C   0  0  0  0  0  0
  -23.6457  -29.8208   20.1593 C   0  0  0  0  0  0
  -25.4115  -36.3071   24.0326 C   0  0  1  0  0  0
  -20.5897  -28.3703   23.1264 C   0  0  2  0  0  0
  -20.6782  -26.9421   22.5405 C   0  0  0  0  0  0
  -19.5755  -26.6386   21.5211 C   0  0  0  0  0  0
  -18.1936  -26.7932   22.1626 C   0  0  0  0  0  0
  -19.1547  -28.8863   23.2870 C   0  0  0  0  0  0
  -18.9469  -30.1462   23.8889 C   0  0  0  0  0  0
  -17.6467  -30.6590   24.0562 C   0  0  0  0  0  0
  -25.9058  -34.9441   23.5096 C   0  0  0  0  0  0
  -16.5358  -29.9087   23.6332 C   0  0  0  0  0  0
  -16.7279  -28.6506   23.0354 C   0  0  0  0  0  0
  -26.4506  -31.6583   25.0731 C   0  0  0  0  0  0
  -25.3722  -31.3736   26.1446 C   0  0  0  0  0  0
  -27.0356  -30.2998   24.6225 C   0  0  0  0  0  0
  -27.6056  -32.4325   25.7508 C   0  0  0  0  0  0
  -27.5577  -37.1801   24.8465 C   0  0  0  0  0  0
  -21.4214  -29.3053   22.3656 N   0  0  0  0  0  0
  -26.4289  -37.3770   23.9406 N   0  0  0  0  0  0
  -24.6980  -31.0532   22.0974 N   0  0  0  0  0  0
  -23.4208  -28.8147   23.3005 O   0  0  0  0  0  0
  -28.2988  -26.3478   20.1831 O   0  0  0  0  0  0
  -26.5629  -34.8915   22.4664 O   0  0  0  0  0  0
  -23.5472  -32.1380   23.7296 O   0  0  0  0  0  0
  -29.4829  -19.8341   21.1178 C   0  0  0  0  0  0
  -29.7142  -18.6190   20.4618 C   0  0  0  0  0  0
  -29.2858  -18.9305   19.1372 C   0  0  0  0  0  0
  -28.8201  -20.2273   19.0243 C   0  0  0  0  0  0
  -28.2501  -20.9447   17.8344 C   0  0  0  0  0  0
  -30.0824  -23.6120   19.2374 C   0  0  0  0  0  0
  -28.1483  -17.7640   17.3476 C   0  0  0  0  0  0
  -30.3809  -17.2783   21.0207 C   0  0  0  0  0  0
  -28.3671  -22.2101   20.6804 C   0  0  0  0  0  0
  -27.9820  -24.8756   20.1132 C   0  0  0  0  0  0
  -29.0289  -23.6616   20.3554 C   0  0  2  0  0  0
  -28.9315  -20.8407   20.2761 N   0  0  0  0  0  0
  -29.3769  -18.0070   18.0917 N   0  0  0  0  0  0
  -29.8858  -15.8636   20.7315 N   0  0  0  0  0  0
  -31.4721  -12.5719   19.1617 H   0  0  0  0  0  0
  -30.3740  -11.4726   19.9480 H   0  0  0  0  0  0
  -29.7882  -11.7349   17.5122 H   0  0  0  0  0  0
  -29.6355  -13.4623   17.7172 H   0  0  0  0  0  0
  -27.8878  -11.2857   18.9063 H   0  0  0  0  0  0
  -27.3762  -12.5293   17.7965 H   0  0  0  0  0  0
  -27.6373  -14.2557   19.4710 H   0  0  0  0  0  0
  -28.7203  -12.1636   21.4189 H   0  0  0  0  0  0
  -28.4261  -13.8430   21.7929 H   0  0  0  0  0  0
  -25.2768   -9.5681   22.4760 H   0  0  0  0  0  0
  -24.0003   -7.4632   22.7481 H   0  0  0  0  0  0
  -21.0835   -8.8774   19.8961 H   0  0  0  0  0  0
  -22.3695  -10.9670   19.6164 H   0  0  0  0  0  0
  -21.2019   -7.6152   23.9715 H   0  0  0  0  0  0
  -21.1479   -6.0524   25.9076 H   0  0  0  0  0  0
  -22.0600   -2.7610   23.2842 H   0  0  0  0  0  0
  -22.4088  -11.9885   22.4823 H   0  0  0  0  0  0
  -21.1083  -13.1234   22.2627 H   0  0  0  0  0  0
  -24.6484  -15.8434   20.5272 H   0  0  0  0  0  0
  -26.2636  -15.6356   20.0782 H   0  0  0  0  0  0
  -26.7214  -32.5408   23.1082 H   0  0  0  0  0  0
  -25.0075  -33.9695   25.0399 H   0  0  0  0  0  0
  -22.7246  -31.3044   21.4011 H   0  0  0  0  0  0
  -23.3750  -35.9619   23.3300 H   0  0  0  0  0  0
  -24.3579  -36.8910   22.2054 H   0  0  0  0  0  0
  -23.7245  -37.6486   23.6666 H   0  0  0  0  0  0
  -26.1160  -31.5322   20.6126 H   0  0  0  0  0  0
  -26.8530  -30.8163   22.0140 H   0  0  0  0  0  0
  -28.1196  -28.9184   21.2060 H   0  0  0  0  0  0
  -25.9143  -25.9254   18.9844 H   0  0  0  0  0  0
  -23.9619  -27.3256   18.9985 H   0  0  0  0  0  0
  -23.7714  -30.5991   19.4059 H   0  0  0  0  0  0
  -22.7631  -29.2571   19.8522 H   0  0  0  0  0  0
  -25.1297  -36.1917   25.0819 H   0  0  0  0  0  0
  -20.9991  -28.3283   24.1384 H   0  0  0  0  0  0
  -20.5683  -26.2315   23.3611 H   0  0  0  0  0  0
  -21.6650  -26.7446   22.1197 H   0  0  0  0  0  0
  -19.6917  -25.6295   21.1246 H   0  0  0  0  0  0
  -19.6687  -27.3191   20.6736 H   0  0  0  0  0  0
  -17.4204  -26.6674   21.4031 H   0  0  0  0  0  0
  -18.0341  -26.0075   22.9026 H   0  0  0  0  0  0
  -19.7943  -30.7281   24.2257 H   0  0  0  0  0  0
  -17.5021  -31.6268   24.5168 H   0  0  0  0  0  0
  -15.5358  -30.2988   23.7658 H   0  0  0  0  0  0
  -15.8680  -28.0821   22.7074 H   0  0  0  0  0  0
  -24.5901  -30.7083   25.7771 H   0  0  0  0  0  0
  -24.8911  -32.2908   26.4853 H   0  0  0  0  0  0
  -25.8032  -30.8924   27.0235 H   0  0  0  0  0  0
  -26.2947  -29.6745   24.1229 H   0  0  0  0  0  0
  -27.4010  -29.7261   25.4753 H   0  0  0  0  0  0
  -27.8836  -30.4268   23.9492 H   0  0  0  0  0  0
  -27.2662  -33.3631   26.2068 H   0  0  0  0  0  0
  -28.3877  -32.6875   25.0345 H   0  0  0  0  0  0
  -28.0712  -31.8461   26.5440 H   0  0  0  0  0  0
  -28.2595  -38.0097   24.7507 H   0  0  0  0  0  0
  -28.1073  -36.2628   24.6296 H   0  0  0  0  0  0
  -27.2296  -37.1456   25.8869 H   0  0  0  0  0  0
  -20.9399  -29.8782   21.6865 H   0  0  0  0  0  0
  -26.0166  -38.2844   24.1405 H   0  0  0  0  0  0
  -29.6511  -20.0755   22.1592 H   0  0  0  0  0  0
  -27.3748  -20.4222   17.4513 H   0  0  0  0  0  0
  -28.9853  -20.9951   17.0317 H   0  0  0  0  0  0
  -27.9322  -21.9604   18.0582 H   0  0  0  0  0  0
  -30.8060  -22.8150   19.4100 H   0  0  0  0  0  0
  -30.6352  -24.5509   19.1877 H   0  0  0  0  0  0
  -29.6316  -23.4512   18.2595 H   0  0  0  0  0  0
  -28.0916  -16.7148   17.0539 H   0  0  0  0  0  0
  -28.1215  -18.3655   16.4382 H   0  0  0  0  0  0
  -27.2603  -17.9892   17.9416 H   0  0  0  0  0  0
  -30.3973  -17.3734   22.1068 H   0  0  0  0  0  0
  -31.4294  -17.3314   20.7240 H   0  0  0  0  0  0
  -27.3531  -22.2324   20.2800 H   0  0  0  0  0  0
  -28.2024  -22.1704   21.7579 H   0  0  0  0  0  0
  -27.1639  -24.7132   20.8167 H   0  0  0  0  0  0
  -27.5703  -24.6778   19.1244 H   0  0  0  0  0  0
  -29.5789  -23.9208   21.2607 H   0  0  0  0  0  0
  -29.8591  -17.1523   18.3590 H   0  0  0  0  0  0
  -28.8998  -15.7125   20.8768 H   0  0  0  0  0  0
  1 25  1  0  0  0
  1 30  2  0  0  0
  1 84  1  0  0  0
  2  3  1  0  0  0
  2 25  1  0  0  0
  2 85  1  0  0  0
  2 86  1  0  0  0
  3  4  1  0  0  0
  3 87  1  0  0  0
  3 88  1  0  0  0
  4  5  1  0  0  0
  4 89  1  0  0  0
  4 90  1  0  0  0
  5  6  1  0  0  0
  5 26  1  0  0  0
  5 91  1  0  0  0
  6 25  1  0  0  0
  6 92  1  0  0  0
  6 93  1  0  0  0
  7  8  2  0  0  0
  7 26  1  0  0  0
  7 29  1  0  0  0
  8  9  1  0  0  0
  8 22  1  0  0  0
  9 10  1  0  0  0
  9 27  2  0  0  0
 10 11  2  0  0  0
 10 15  1  0  0  0
 11 12  1  0  0  0
 11 94  1  0  0  0
 12 13  2  0  0  0
 12 95  1  0  0  0
 13 14  1  0  0  0
 13 31  1  0  0  0
 14 15  2  0  0  0
 14 96  1  0  0  0
 15 97  1  0  0  0
 16 17  2  0  0  0
 16 21  1  0  0  0
 16 31  1  0  0  0
 17 18  1  0  0  0
 17 98  1  0  0  0
 18 19  2  0  0  0
 18 99  1  0  0  0
 19 20  1  0  0  0
 19 24  1  0  0  0
 20 21  2  0  0  0
 20100  1  0  0  0
 21 23  1  0  0  0
 22 28  1  0  0  0
 22 32  2  0  0  0
 26 27  1  0  0  0
 28101  1  0  0  0
 28102  1  0  0  0
 29103  1  0  0  0
 29104  1  0  0  0
 33 34  1  0  0  0
 33 66  1  0  0  0
 33 70  2  0  0  0
 34 36  1  0  0  0
 34 59  1  0  0  0
 34105  1  0  0  0
 35 44  2  0  0  0
 35 45  1  0  0  0
 35 68  1  0  0  0
 36 56  1  0  0  0
 36106  1  0  0  0
 37 39  1  0  0  0
 37 47  1  0  0  0
 37 66  1  0  0  0
 37107  1  0  0  0
 38 43  2  0  0  0
 38 46  1  0  0  0
 38 47  1  0  0  0
 39 64  1  0  0  0
 39 67  2  0  0  0
 40 52  1  0  0  0
 40 53  2  0  0  0
 40 58  1  0  0  0
 41108  1  0  0  0
 41109  1  0  0  0
 41110  1  0  0  0
 41 48  1  0  0  0
 42 43  1  0  0  0
 42 66  1  0  0  0
 42111  1  0  0  0
 42112  1  0  0  0
 43 44  1  0  0  0
 44113  1  0  0  0
 45 46  2  0  0  0
 45114  1  0  0  0
 46115  1  0  0  0
 47116  1  0  0  0
 47117  1  0  0  0
 48 56  1  0  0  0
 48 65  1  0  0  0
 48118  1  0  0  0
 49 50  1  0  0  0
 49 53  1  0  0  0
 49 64  1  0  0  0
 49119  1  0  0  0
 50 51  1  0  0  0
 50120  1  0  0  0
 50121  1  0  0  0
 51 52  1  0  0  0
 51122  1  0  0  0
 51123  1  0  0  0
 52124  1  0  0  0
 52125  1  0  0  0
 53 54  1  0  0  0
 54 55  2  0  0  0
 54126  1  0  0  0
 55 57  1  0  0  0
 55127  1  0  0  0
 56 69  2  0  0  0
 57 58  2  0  0  0
 57128  1  0  0  0
 58129  1  0  0  0
 59 60  1  0  0  0
 59 61  1  0  0  0
 59 62  1  0  0  0
 60130  1  0  0  0
 60131  1  0  0  0
 60132  1  0  0  0
 61133  1  0  0  0
 61134  1  0  0  0
 61135  1  0  0  0
 62136  1  0  0  0
 62137  1  0  0  0
 62138  1  0  0  0
 63 65  1  0  0  0
 63139  1  0  0  0
 63140  1  0  0  0
 63141  1  0  0  0
 64142  1  0  0  0
 65143  1  0  0  0
 68 80  1  0  0  0
 71 72  2  0  0  0
 71 82  1  0  0  0
 71144  1  0  0  0
 72 73  1  0  0  0
 72 78  1  0  0  0
 73 74  2  0  0  0
 73 83  1  0  0  0
 74 75  1  0  0  0
 74 82  1  0  0  0
 75145  1  0  0  0
 75146  1  0  0  0
 75147  1  0  0  0
 76148  1  0  0  0
 76149  1  0  0  0
 76150  1  0  0  0
 76 81  1  0  0  0
 77 83  1  0  0  0
 77151  1  0  0  0
 77152  1  0  0  0
 77153  1  0  0  0
 78 84  1  0  0  0
 78154  1  0  0  0
 78155  1  0  0  0
 79 81  1  0  0  0
 79 82  1  0  0  0
 79156  1  0  0  0
 79157  1  0  0  0
 80 81  1  0  0  0
 80158  1  0  0  0
 80159  1  0  0  0
 81160  1  0  0  0
 83161  1  0  0  0
 84162  1  0  0  0
M  ISO  4   1 100  68 101  80 101  84 100
M  END
> <chiral flag>
0

> <version>
0

> <s_m_source_file>
/data/baiqing/PycharmProjects/Reinvent-master-3.2/result/LINK_invent/BTK/process_docking_weight1_custom_sum_contain_oxygen_bond_distance_aromatic_linkinvent_7_9_3/rearranged_h_0105.sdf

> <i_m_source_file_index>
11

> <r_mmod_Potential_Energy-OPLS-2005>
87.8829193115234

> <r_mmod_Stretch_Energy-OPLS-2005>
119.964309692383

> <r_mmod_Bend_Energy-OPLS-2005>
187.94255065918

> <r_mmod_Torsional_Energy-OPLS-2005>
233.51872253418

> <r_mmod_Improper_Torsional_Energy-OPLS-2005>
9.9747257232666

> <r_mmod_Van_der_Waal_Energy-OPLS-2005>
117.48770904541

> <r_mmod_Electrostatic_Energy-OPLS-2005>
-436.593383789062

> <r_mmod_Solvation_Energy-OPLS-2005>
-227.407180786133

> <b_mmod_Minimization_Converged-OPLS-2005>
0

> <r_mmod_RMS_Derivative-OPLS-2005>
0.710465133190155

$$$$
11
                    3D
 Structure written by MMmdl.
164172  0  0  1  0            999 V2000
  -30.5705  -14.7790   20.4272 C   0  0  0  0  0  0
  -30.4561  -12.4709   19.4575 C   0  0  0  0  0  0
  -29.5116  -12.4942   18.2301 C   0  0  0  0  0  0
  -28.0328  -12.3197   18.6443 C   0  0  0  0  0  0
  -27.6422  -13.1912   19.8659 C   0  0  2  0  0  0
  -28.7099  -13.0729   20.9765 C   0  0  0  0  0  0
  -25.2493  -13.8059   20.5692 C   0  0  0  0  0  0
  -24.1769  -13.0347   20.9217 C   0  0  0  0  0  0
  -24.6338  -11.6825   20.8785 C   0  0  0  0  0  0
  -23.9019  -10.4238   21.0449 C   0  0  0  0  0  0
  -24.3595   -9.4161   21.9212 C   0  0  0  0  0  0
  -23.6272   -8.2201   22.0765 C   0  0  0  0  0  0
  -22.4252   -8.0254   21.3555 C   0  0  0  0  0  0
  -21.9881   -9.0230   20.4656 C   0  0  0  0  0  0
  -22.7208  -10.2101   20.3081 C   0  0  0  0  0  0
  -21.6838   -6.0716   22.5286 C   0  0  0  0  0  0
  -21.4015   -6.5627   23.8221 C   0  0  0  0  0  0
  -21.3660   -5.6788   24.9185 C   0  0  0  0  0  0
  -21.6051   -4.3049   24.7242 C   0  0  0  0  0  0
  -21.8826   -3.8134   23.4367 C   0  0  0  0  0  0
  -21.9185   -4.6946   22.3410 C   0  0  0  0  0  0
  -22.7799  -13.5164   21.1845 C   0  0  0  0  0  0
  -22.1645   -4.2126   21.0987 F   0  0  0  0  0  0
  -21.5635   -3.4533   25.7751 F   0  0  0  0  0  0
  -29.9944  -13.5143   20.4071 N   0  0  0  0  0  0
  -26.2929  -12.9188   20.3413 N   0  0  0  0  0  0
  -25.9260  -11.6372   20.5847 N   0  0  0  0  0  0
  -22.0442  -12.8191   22.0422 N   0  0  0  0  0  0
  -25.4083  -15.1779   20.4017 N   0  0  0  0  0  0
  -31.7724  -14.8584   20.1561 O   0  0  0  0  0  0
  -21.6624   -6.8850   21.4243 O   0  0  0  0  0  0
  -22.3513  -14.5477   20.6678 O   0  0  0  0  0  0
  -24.6283  -31.8567   23.2010 C   0  0  0  0  0  0
  -25.9122  -32.4765   23.8344 C   0  0  1  0  0  0
  -27.2353  -27.2936   20.1178 C   0  0  0  0  0  0
  -25.5931  -33.8567   24.2279 N   0  0  0  0  0  0
  -23.4245  -30.4788   21.5433 C   0  0  2  0  0  0
  -24.8755  -28.9316   20.1090 C   0  0  0  0  0  0
  -22.7484  -29.4610   22.4929 C   0  0  0  0  0  0
  -18.0280  -28.1381   22.8484 C   0  0  0  0  0  0
  -24.1491  -36.7290   23.2641 C   0  0  0  0  0  0
  -25.9680  -30.7793   21.3778 C   0  0  0  0  0  0
  -26.0447  -29.4049   20.7184 C   0  0  0  0  0  0
  -27.2255  -28.5981   20.7129 C   0  0  0  0  0  0
  -26.0421  -26.8860   19.4750 C   0  0  0  0  0  0
  -24.8787  -27.6790   19.4771 C   0  0  0  0  0  0
  -23.6421  -29.8122   20.1591 C   0  0  0  0  0  0
  -25.4117  -36.3076   24.0326 C   0  0  1  0  0  0
  -20.5883  -28.3690   23.1273 C   0  0  2  0  0  0
  -20.6771  -26.9412   22.5404 C   0  0  0  0  0  0
  -19.5748  -26.6377   21.5205 C   0  0  0  0  0  0
  -18.1927  -26.7922   22.1616 C   0  0  0  0  0  0
  -19.1534  -28.8850   23.2875 C   0  0  0  0  0  0
  -18.9462  -30.1449   23.8895 C   0  0  0  0  0  0
  -17.6464  -30.6585   24.0557 C   0  0  0  0  0  0
  -25.9053  -34.9443   23.5106 C   0  0  0  0  0  0
  -16.5354  -29.9086   23.6325 C   0  0  0  0  0  0
  -16.7270  -28.6499   23.0358 C   0  0  0  0  0  0
  -26.4502  -31.6582   25.0724 C   0  0  0  0  0  0
  -25.3738  -31.3712   26.1455 C   0  0  0  0  0  0
  -27.0359  -30.3006   24.6197 C   0  0  0  0  0  0
  -27.6062  -32.4319   25.7496 C   0  0  0  0  0  0
  -27.5581  -37.1798   24.8464 C   0  0  0  0  0  0
  -21.4194  -29.3045   22.3672 N   0  0  0  0  0  0
  -26.4295  -37.3772   23.9408 N   0  0  0  0  0  0
  -24.6921  -31.0550   22.0976 N   0  0  0  0  0  0
  -23.4190  -28.8148   23.3018 O   0  0  0  0  0  0
  -28.3480  -26.4243   20.1807 O   0  0  0  0  0  0
  -26.5620  -34.8915   22.4670 O   0  0  0  0  0  0
  -23.5438  -32.1382   23.7315 O   0  0  0  0  0  0
  -31.4679  -19.4477   17.7706 C   0  0  0  0  0  0
  -30.7744  -20.4957   18.4231 C   0  0  0  0  0  0
  -31.4263  -18.3637   18.5895 C   0  0  0  0  0  0
  -30.3068  -20.0559   19.6355 C   0  0  0  0  0  0
  -29.3942  -24.0013   21.9771 C   0  0  0  0  0  0
  -28.7153  -16.1526   21.6576 C   0  0  0  0  0  0
  -28.9200  -16.3274   19.1547 C   0  0  0  0  0  0
  -29.5874  -20.9959   20.6415 C   0  0  0  0  0  0
  -28.8117  -22.3145   20.0913 C   0  0  0  0  0  0
  -30.5538  -17.5792   20.7791 C   0  0  0  0  0  0
  -28.1360  -24.9597   19.9651 C   0  0  0  0  0  0
  -29.1881  -23.8437   20.4619 C   0  0  1  0  0  0
  -29.7318  -16.1879   20.4855 C   0  0  0  0  0  0
  -30.6921  -18.6606   19.7306 N   0  0  0  0  0  0
  -31.4851  -12.6328   19.1321 H   0  0  0  0  0  0
  -30.4531  -11.4871   19.9305 H   0  0  0  0  0  0
  -29.7911  -11.7059   17.5295 H   0  0  0  0  0  0
  -29.6372  -13.4312   17.6888 H   0  0  0  0  0  0
  -27.8831  -11.2670   18.8885 H   0  0  0  0  0  0
  -27.3734  -12.5327   17.8025 H   0  0  0  0  0  0
  -27.6156  -14.2081   19.5076 H   0  0  0  0  0  0
  -28.7783  -12.0329   21.2978 H   0  0  0  0  0  0
  -28.4591  -13.5953   21.8936 H   0  0  0  0  0  0
  -25.2742   -9.5639   22.4780 H   0  0  0  0  0  0
  -23.9981   -7.4591   22.7474 H   0  0  0  0  0  0
  -21.0820   -8.8777   19.8945 H   0  0  0  0  0  0
  -22.3706  -10.9665   19.6199 H   0  0  0  0  0  0
  -21.2017   -7.6136   23.9718 H   0  0  0  0  0  0
  -21.1474   -6.0523   25.9091 H   0  0  0  0  0  0
  -22.0605   -2.7595   23.2887 H   0  0  0  0  0  0
  -22.4050  -11.9850   22.4812 H   0  0  0  0  0  0
  -21.1072  -13.1248   22.2626 H   0  0  0  0  0  0
  -24.6307  -15.8206   20.5032 H   0  0  0  0  0  0
  -26.2551  -15.6283   20.0841 H   0  0  0  0  0  0
  -26.7191  -32.5430   23.1091 H   0  0  0  0  0  0
  -25.0077  -33.9706   25.0423 H   0  0  0  0  0  0
  -22.7195  -31.3000   21.3977 H   0  0  0  0  0  0
  -23.3754  -35.9622   23.3296 H   0  0  0  0  0  0
  -24.3581  -36.8920   22.2056 H   0  0  0  0  0  0
  -23.7240  -37.6488   23.6671 H   0  0  0  0  0  0
  -26.1032  -31.5431   20.6105 H   0  0  0  0  0  0
  -26.8463  -30.8280   22.0095 H   0  0  0  0  0  0
  -28.1203  -28.9563   21.2029 H   0  0  0  0  0  0
  -25.9795  -25.9331   18.9710 H   0  0  0  0  0  0
  -23.9861  -27.3137   18.9881 H   0  0  0  0  0  0
  -23.7598  -30.5889   19.4021 H   0  0  0  0  0  0
  -22.7620  -29.2399   19.8582 H   0  0  0  0  0  0
  -25.1294  -36.1930   25.0817 H   0  0  0  0  0  0
  -20.9967  -28.3267   24.1397 H   0  0  0  0  0  0
  -20.5663  -26.2301   23.3608 H   0  0  0  0  0  0
  -21.6644  -26.7431   22.1211 H   0  0  0  0  0  0
  -19.6915  -25.6285   21.1246 H   0  0  0  0  0  0
  -19.6690  -27.3172   20.6725 H   0  0  0  0  0  0
  -17.4196  -26.6663   21.4024 H   0  0  0  0  0  0
  -18.0335  -26.0065   22.9012 H   0  0  0  0  0  0
  -19.7940  -30.7257   24.2279 H   0  0  0  0  0  0
  -17.5023  -31.6272   24.5150 H   0  0  0  0  0  0
  -15.5357  -30.2994   23.7647 H   0  0  0  0  0  0
  -15.8668  -28.0814   22.7090 H   0  0  0  0  0  0
  -24.5921  -30.7051   25.7785 H   0  0  0  0  0  0
  -24.8921  -32.2870   26.4888 H   0  0  0  0  0  0
  -25.8071  -30.8890   27.0228 H   0  0  0  0  0  0
  -26.2945  -29.6738   24.1232 H   0  0  0  0  0  0
  -27.4064  -29.7277   25.4709 H   0  0  0  0  0  0
  -27.8809  -30.4287   23.9429 H   0  0  0  0  0  0
  -27.2683  -33.3625   26.2064 H   0  0  0  0  0  0
  -28.3881  -32.6866   25.0329 H   0  0  0  0  0  0
  -28.0729  -31.8451   26.5416 H   0  0  0  0  0  0
  -28.2594  -38.0102   24.7517 H   0  0  0  0  0  0
  -28.1083  -36.2628   24.6285 H   0  0  0  0  0  0
  -27.2297  -37.1443   25.8868 H   0  0  0  0  0  0
  -20.9373  -29.8787   21.6900 H   0  0  0  0  0  0
  -26.0174  -38.2847   24.1409 H   0  0  0  0  0  0
  -31.9641  -19.4889   16.8094 H   0  0  0  0  0  0
  -30.6568  -21.5008   18.0429 H   0  0  0  0  0  0
  -31.8522  -17.3759   18.4560 H   0  0  0  0  0  0
  -30.2159  -23.3849   22.3399 H   0  0  0  0  0  0
  -28.4971  -23.7271   22.5322 H   0  0  0  0  0  0
  -29.6365  -25.0344   22.2302 H   0  0  0  0  0  0
  -28.2738  -17.1318   21.8452 H   0  0  0  0  0  0
  -29.1800  -15.8227   22.5867 H   0  0  0  0  0  0
  -27.8536  -15.5255   21.4619 H   0  0  0  0  0  0
  -27.8528  -16.4435   19.3366 H   0  0  0  0  0  0
  -29.0503  -15.4747   18.4893 H   0  0  0  0  0  0
  -29.1688  -17.1807   18.5360 H   0  0  0  0  0  0
  -30.3099  -21.2957   21.3998 H   0  0  0  0  0  0
  -28.8609  -20.3919   21.1870 H   0  0  0  0  0  0
  -27.7818  -22.1909   20.4299 H   0  0  0  0  0  0
  -28.7178  -22.2426   19.0081 H   0  0  0  0  0  0
  -31.5694  -17.3069   21.0677 H   0  0  0  0  0  0
  -30.1819  -18.0817   21.6721 H   0  0  0  0  0  0
  -27.1871  -24.6904   20.4317 H   0  0  0  0  0  0
  -27.9948  -24.8153   18.8928 H   0  0  0  0  0  0
  -30.1406  -24.0663   19.9788 H   0  0  0  0  0  0
  1 25  1  0  0  0
  1 30  2  0  0  0
  1 83  1  0  0  0
  2  3  1  0  0  0
  2 25  1  0  0  0
  2 85  1  0  0  0
  2 86  1  0  0  0
  3  4  1  0  0  0
  3 87  1  0  0  0
  3 88  1  0  0  0
  4  5  1  0  0  0
  4 89  1  0  0  0
  4 90  1  0  0  0
  5  6  1  0  0  0
  5 26  1  0  0  0
  5 91  1  0  0  0
  6 25  1  0  0  0
  6 92  1  0  0  0
  6 93  1  0  0  0
  7  8  2  0  0  0
  7 26  1  0  0  0
  7 29  1  0  0  0
  8  9  1  0  0  0
  8 22  1  0  0  0
  9 10  1  0  0  0
  9 27  2  0  0  0
 10 11  2  0  0  0
 10 15  1  0  0  0
 11 12  1  0  0  0
 11 94  1  0  0  0
 12 13  2  0  0  0
 12 95  1  0  0  0
 13 14  1  0  0  0
 13 31  1  0  0  0
 14 15  2  0  0  0
 14 96  1  0  0  0
 15 97  1  0  0  0
 16 17  2  0  0  0
 16 21  1  0  0  0
 16 31  1  0  0  0
 17 18  1  0  0  0
 17 98  1  0  0  0
 18 19  2  0  0  0
 18 99  1  0  0  0
 19 20  1  0  0  0
 19 24  1  0  0  0
 20 21  2  0  0  0
 20100  1  0  0  0
 21 23  1  0  0  0
 22 28  1  0  0  0
 22 32  2  0  0  0
 26 27  1  0  0  0
 28101  1  0  0  0
 28102  1  0  0  0
 29103  1  0  0  0
 29104  1  0  0  0
 33 34  1  0  0  0
 33 66  1  0  0  0
 33 70  2  0  0  0
 34 36  1  0  0  0
 34 59  1  0  0  0
 34105  1  0  0  0
 35 44  2  0  0  0
 35 45  1  0  0  0
 35 68  1  0  0  0
 36 56  1  0  0  0
 36106  1  0  0  0
 37 39  1  0  0  0
 37 47  1  0  0  0
 37 66  1  0  0  0
 37107  1  0  0  0
 38 43  2  0  0  0
 38 46  1  0  0  0
 38 47  1  0  0  0
 39 64  1  0  0  0
 39 67  2  0  0  0
 40 52  1  0  0  0
 40 53  2  0  0  0
 40 58  1  0  0  0
 41108  1  0  0  0
 41109  1  0  0  0
 41110  1  0  0  0
 41 48  1  0  0  0
 42 43  1  0  0  0
 42 66  1  0  0  0
 42111  1  0  0  0
 42112  1  0  0  0
 43 44  1  0  0  0
 44113  1  0  0  0
 45 46  2  0  0  0
 45114  1  0  0  0
 46115  1  0  0  0
 47116  1  0  0  0
 47117  1  0  0  0
 48 56  1  0  0  0
 48 65  1  0  0  0
 48118  1  0  0  0
 49 50  1  0  0  0
 49 53  1  0  0  0
 49 64  1  0  0  0
 49119  1  0  0  0
 50 51  1  0  0  0
 50120  1  0  0  0
 50121  1  0  0  0
 51 52  1  0  0  0
 51122  1  0  0  0
 51123  1  0  0  0
 52124  1  0  0  0
 52125  1  0  0  0
 53 54  1  0  0  0
 54 55  2  0  0  0
 54126  1  0  0  0
 55 57  1  0  0  0
 55127  1  0  0  0
 56 69  2  0  0  0
 57 58  2  0  0  0
 57128  1  0  0  0
 58129  1  0  0  0
 59 60  1  0  0  0
 59 61  1  0  0  0
 59 62  1  0  0  0
 60130  1  0  0  0
 60131  1  0  0  0
 60132  1  0  0  0
 61133  1  0  0  0
 61134  1  0  0  0
 61135  1  0  0  0
 62136  1  0  0  0
 62137  1  0  0  0
 62138  1  0  0  0
 63 65  1  0  0  0
 63139  1  0  0  0
 63140  1  0  0  0
 63141  1  0  0  0
 64142  1  0  0  0
 65143  1  0  0  0
 68 81  1  0  0  0
 71 72  1  0  0  0
 71 73  2  0  0  0
 71144  1  0  0  0
 72 74  2  0  0  0
 72145  1  0  0  0
 73 84  1  0  0  0
 73146  1  0  0  0
 74 78  1  0  0  0
 74 84  1  0  0  0
 75147  1  0  0  0
 75148  1  0  0  0
 75149  1  0  0  0
 75 82  1  0  0  0
 76150  1  0  0  0
 76151  1  0  0  0
 76152  1  0  0  0
 76 83  1  0  0  0
 77 83  1  0  0  0
 77153  1  0  0  0
 77154  1  0  0  0
 77155  1  0  0  0
 78 79  1  0  0  0
 78156  1  0  0  0
 78157  1  0  0  0
 79 82  1  0  0  0
 79158  1  0  0  0
 79159  1  0  0  0
 80 83  1  0  0  0
 80 84  1  0  0  0
 80160  1  0  0  0
 80161  1  0  0  0
 81 82  1  0  0  0
 81162  1  0  0  0
 81163  1  0  0  0
 82164  1  0  0  0
M  ISO  4   1 100  68 101  81 101  83 100
M  END
> <chiral flag>
0

> <version>
0

> <s_m_source_file>
/data/baiqing/PycharmProjects/Reinvent-master-3.2/result/LINK_invent/BTK/process_docking_weight1_custom_sum_contain_oxygen_bond_distance_aromatic_linkinvent_7_9_3/rearranged_h_0105.sdf

> <i_m_source_file_index>
12

> <r_mmod_Potential_Energy-OPLS-2005>
319.924530029297

> <r_mmod_Stretch_Energy-OPLS-2005>
137.736129760742

> <r_mmod_Bend_Energy-OPLS-2005>
205.999313354492

> <r_mmod_Torsional_Energy-OPLS-2005>
241.526031494141

> <r_mmod_Improper_Torsional_Energy-OPLS-2005>
6.74508190155029

> <r_mmod_Van_der_Waal_Energy-OPLS-2005>
140.539794921875

> <r_mmod_Electrostatic_Energy-OPLS-2005>
-308.202270507812

> <r_mmod_Solvation_Energy-OPLS-2005>
-185.32698059082

> <b_mmod_Minimization_Converged-OPLS-2005>
0

> <r_mmod_RMS_Derivative-OPLS-2005>
1.77052640914917

$$$$
12
                    3D
 Structure written by MMmdl.
170177  0  0  1  0            999 V2000
  -30.6893  -14.4543   20.4284 C   0  0  0  0  0  0
  -30.4156  -12.2457   19.4406 C   0  0  0  0  0  0
  -29.4930  -12.4304   18.2159 C   0  0  0  0  0  0
  -28.0099  -12.3301   18.6255 C   0  0  0  0  0  0
  -27.6563  -13.1987   19.8631 C   0  0  2  0  0  0
  -28.7042  -13.0219   20.9908 C   0  0  0  0  0  0
  -25.2579  -13.8153   20.5685 C   0  0  0  0  0  0
  -24.1835  -13.0430   20.9204 C   0  0  0  0  0  0
  -24.6390  -11.6901   20.8768 C   0  0  0  0  0  0
  -23.9057  -10.4289   21.0430 C   0  0  0  0  0  0
  -24.3614   -9.4200   21.9202 C   0  0  0  0  0  0
  -23.6293   -8.2230   22.0755 C   0  0  0  0  0  0
  -22.4273   -8.0288   21.3548 C   0  0  0  0  0  0
  -21.9911   -9.0271   20.4653 C   0  0  0  0  0  0
  -22.7240  -10.2144   20.3068 C   0  0  0  0  0  0
  -21.6852   -6.0737   22.5283 C   0  0  0  0  0  0
  -21.4023   -6.5640   23.8220 C   0  0  0  0  0  0
  -21.3654   -5.6792   24.9180 C   0  0  0  0  0  0
  -21.6033   -4.3050   24.7231 C   0  0  0  0  0  0
  -21.8815   -3.8150   23.4353 C   0  0  0  0  0  0
  -21.9189   -4.6964   22.3408 C   0  0  0  0  0  0
  -22.7860  -13.5229   21.1857 C   0  0  0  0  0  0
  -22.1653   -4.2144   21.0986 F   0  0  0  0  0  0
  -21.5623   -3.4539   25.7745 F   0  0  0  0  0  0
  -30.0412  -13.2647   20.4263 N   0  0  0  0  0  0
  -26.3005  -12.9305   20.3346 N   0  0  0  0  0  0
  -25.9311  -11.6478   20.5810 N   0  0  0  0  0  0
  -22.0470  -12.8242   22.0408 N   0  0  0  0  0  0
  -25.4276  -15.1884   20.4068 N   0  0  0  0  0  0
  -31.8937  -14.5810   20.2034 O   0  0  0  0  0  0
  -21.6637   -6.8888   21.4245 O   0  0  0  0  0  0
  -22.3541  -14.5530   20.6693 O   0  0  0  0  0  0
  -24.6107  -31.8708   23.2125 C   0  0  0  0  0  0
  -25.9020  -32.4833   23.8403 C   0  0  1  0  0  0
  -27.2429  -27.4714   20.0730 C   0  0  0  0  0  0
  -25.5897  -33.8629   24.2335 N   0  0  0  0  0  0
  -23.3958  -30.4945   21.5526 C   0  0  2  0  0  0
  -24.8397  -28.9581   20.1200 C   0  0  0  0  0  0
  -22.7378  -29.4678   22.5015 C   0  0  0  0  0  0
  -18.0271  -28.1381   22.8490 C   0  0  0  0  0  0
  -24.1487  -36.7319   23.2634 C   0  0  0  0  0  0
  -25.9205  -30.8425   21.3604 C   0  0  0  0  0  0
  -25.9962  -29.4767   20.7132 C   0  0  0  0  0  0
  -27.1943  -28.7348   20.6984 C   0  0  0  0  0  0
  -26.0592  -26.9432   19.5059 C   0  0  0  0  0  0
  -24.8619  -27.6846   19.5235 C   0  0  0  0  0  0
  -23.6023  -29.8247   20.1672 C   0  0  0  0  0  0
  -25.4108  -36.3109   24.0331 C   0  0  1  0  0  0
  -20.5850  -28.3656   23.1336 C   0  0  2  0  0  0
  -20.6758  -26.9401   22.5418 C   0  0  0  0  0  0
  -19.5745  -26.6393   21.5204 C   0  0  0  0  0  0
  -18.1923  -26.7934   22.1616 C   0  0  0  0  0  0
  -19.1516  -28.8836   23.2912 C   0  0  0  0  0  0
  -18.9446  -30.1447   23.8919 C   0  0  0  0  0  0
  -17.6448  -30.6587   24.0571 C   0  0  0  0  0  0
  -25.9035  -34.9479   23.5127 C   0  0  0  0  0  0
  -16.5340  -29.9092   23.6323 C   0  0  0  0  0  0
  -16.7258  -28.6510   23.0339 C   0  0  0  0  0  0
  -26.4466  -31.6605   25.0718 C   0  0  0  0  0  0
  -25.3759  -31.3683   26.1483 C   0  0  0  0  0  0
  -27.0282  -30.3058   24.6052 C   0  0  0  0  0  0
  -27.6053  -32.4318   25.7477 C   0  0  0  0  0  0
  -27.5578  -37.1813   24.8466 C   0  0  0  0  0  0
  -21.4116  -29.3036   22.3747 N   0  0  0  0  0  0
  -26.4294  -37.3792   23.9406 N   0  0  0  0  0  0
  -24.6604  -31.0829   22.1010 N   0  0  0  0  0  0
  -23.4171  -28.8228   23.3048 O   0  0  0  0  0  0
  -28.4515  -26.8125   20.0639 O   0  0  0  0  0  0
  -26.5592  -34.8923   22.4684 O   0  0  0  0  0  0
  -23.5314  -32.1453   23.7541 O   0  0  0  0  0  0
  -30.1612  -19.5796   18.0823 C   0  0  0  0  0  0
  -32.4209  -20.2430   20.2830 C   0  0  0  0  0  0
  -30.8411  -16.3323   18.0856 C   0  0  0  0  0  0
  -31.6135  -23.0329   21.9079 C   0  0  0  0  0  0
  -28.9391  -24.4967   19.5441 C   0  0  0  0  0  0
  -30.3415  -17.9496   20.1654 C   0  0  0  0  0  0
  -30.2282  -24.3565   20.3904 C   0  0  0  0  0  0
  -30.5188  -21.9359   19.9345 C   0  0  0  0  0  0
  -28.7500  -25.9180   18.9956 C   0  0  0  0  0  0
  -30.0664  -19.4224   19.6290 C   0  0  1  0  0  0
  -30.8993  -20.4956   20.3991 C   0  0  1  0  0  0
  -29.9855  -16.6445   19.3567 C   0  0  2  0  0  0
  -29.8434  -15.4828   20.2580 N   0  0  0  0  0  0
  -30.4596  -23.0035   20.9757 N   0  3  1  0  0  0
  -31.4649  -12.3122   19.1477 H   0  0  0  0  0  0
  -30.2869  -11.2510   19.8700 H   0  0  0  0  0  0
  -29.7194  -11.6735   17.4634 H   0  0  0  0  0  0
  -29.6777  -13.3897   17.7381 H   0  0  0  0  0  0
  -27.8055  -11.2818   18.8433 H   0  0  0  0  0  0
  -27.3682  -12.5952   17.7841 H   0  0  0  0  0  0
  -27.6779  -14.2334   19.5236 H   0  0  0  0  0  0
  -28.6599  -12.0117   21.4003 H   0  0  0  0  0  0
  -28.5010  -13.6962   21.8254 H   0  0  0  0  0  0
  -25.2760   -9.5665   22.4781 H   0  0  0  0  0  0
  -24.0002   -7.4609   22.7464 H   0  0  0  0  0  0
  -21.0835   -8.8805   19.8961 H   0  0  0  0  0  0
  -22.3717  -10.9694   19.6175 H   0  0  0  0  0  0
  -21.2034   -7.6150   23.9728 H   0  0  0  0  0  0
  -21.1470   -6.0520   25.9080 H   0  0  0  0  0  0
  -22.0600   -2.7607   23.2858 H   0  0  0  0  0  0
  -22.4056  -11.9901   22.4819 H   0  0  0  0  0  0
  -21.1088  -13.1278   22.2571 H   0  0  0  0  0  0
  -24.6586  -15.8406   20.5170 H   0  0  0  0  0  0
  -26.2703  -15.6326   20.0675 H   0  0  0  0  0  0
  -26.7089  -32.5548   23.1168 H   0  0  0  0  0  0
  -25.0053  -33.9806   25.0481 H   0  0  0  0  0  0
  -22.6836  -31.3108   21.4145 H   0  0  0  0  0  0
  -23.3736  -35.9667   23.3318 H   0  0  0  0  0  0
  -24.3576  -36.8915   22.2045 H   0  0  0  0  0  0
  -23.7263  -37.6538   23.6640 H   0  0  0  0  0  0
  -26.0250  -31.6061   20.5885 H   0  0  0  0  0  0
  -26.8120  -30.9003   21.9726 H   0  0  0  0  0  0
  -28.0911  -29.1371   21.1480 H   0  0  0  0  0  0
  -26.0408  -25.9598   19.0584 H   0  0  0  0  0  0
  -23.9657  -27.2711   19.0817 H   0  0  0  0  0  0
  -23.7148  -30.5998   19.4082 H   0  0  0  0  0  0
  -22.7252  -29.2476   19.8688 H   0  0  0  0  0  0
  -25.1285  -36.1969   25.0823 H   0  0  0  0  0  0
  -20.9943  -28.3213   24.1456 H   0  0  0  0  0  0
  -20.5652  -26.2263   23.3594 H   0  0  0  0  0  0
  -21.6635  -26.7453   22.1219 H   0  0  0  0  0  0
  -19.6906  -25.6307   21.1231 H   0  0  0  0  0  0
  -19.6693  -27.3207   20.6737 H   0  0  0  0  0  0
  -17.4192  -26.6683   21.4019 H   0  0  0  0  0  0
  -18.0333  -26.0073   22.9011 H   0  0  0  0  0  0
  -19.7919  -30.7260   24.2300 H   0  0  0  0  0  0
  -17.5002  -31.6267   24.5171 H   0  0  0  0  0  0
  -15.5343  -30.3000   23.7636 H   0  0  0  0  0  0
  -15.8662  -28.0840   22.7036 H   0  0  0  0  0  0
  -24.5933  -30.7026   25.7825 H   0  0  0  0  0  0
  -24.8949  -32.2825   26.4973 H   0  0  0  0  0  0
  -25.8144  -30.8831   27.0214 H   0  0  0  0  0  0
  -26.2792  -29.6833   24.1141 H   0  0  0  0  0  0
  -27.4109  -29.7276   25.4472 H   0  0  0  0  0  0
  -27.8607  -30.4392   23.9139 H   0  0  0  0  0  0
  -27.2676  -33.3602   26.2097 H   0  0  0  0  0  0
  -28.3842  -32.6907   25.0293 H   0  0  0  0  0  0
  -28.0747  -31.8420   26.5362 H   0  0  0  0  0  0
  -28.2605  -38.0099   24.7493 H   0  0  0  0  0  0
  -28.1062  -36.2630   24.6313 H   0  0  0  0  0  0
  -27.2295  -37.1491   25.8869 H   0  0  0  0  0  0
  -20.9265  -29.8752   21.6973 H   0  0  0  0  0  0
  -26.0180  -38.2868   24.1404 H   0  0  0  0  0  0
  -29.4747  -18.8970   17.5811 H   0  0  0  0  0  0
  -31.1646  -19.3855   17.7024 H   0  0  0  0  0  0
  -29.8814  -20.5747   17.7383 H   0  0  0  0  0  0
  -33.0097  -20.9877   20.8151 H   0  0  0  0  0  0
  -32.7534  -20.2585   19.2456 H   0  0  0  0  0  0
  -32.7013  -19.2766   20.7028 H   0  0  0  0  0  0
  -30.7180  -17.0823   17.3074 H   0  0  0  0  0  0
  -30.5523  -15.3902   17.6260 H   0  0  0  0  0  0
  -31.9085  -16.2775   18.3026 H   0  0  0  0  0  0
  -31.7171  -22.1017   22.4627 H   0  0  0  0  0  0
  -31.4845  -23.8166   22.6545 H   0  0  0  0  0  0
  -32.5478  -23.2310   21.3819 H   0  0  0  0  0  0
  -28.0620  -24.2061   20.1232 H   0  0  0  0  0  0
  -28.9812  -23.8321   18.6821 H   0  0  0  0  0  0
  -31.1760  -18.0656   19.4874 H   0  0  0  0  0  0
  -29.2670  -17.9743   20.3421 H   0  0  0  0  0  0
  -30.1870  -25.0850   21.2016 H   0  0  0  0  0  0
  -31.0941  -24.6322   19.7858 H   0  0  0  0  0  0
  -29.5120  -21.8924   19.5237 H   0  0  0  0  0  0
  -31.1649  -22.2445   19.1112 H   0  0  0  0  0  0
  -28.0168  -25.9304   18.1898 H   0  0  0  0  0  0
  -29.6761  -26.2556   18.5285 H   0  0  0  0  0  0
  -29.0306  -19.7247   19.8308 H   0  0  0  0  0  0
  -30.6208  -20.3874   21.4475 H   0  0  0  0  0  0
  -28.9813  -16.7396   18.9263 H   0  0  0  0  0  0
  -28.8925  -15.2594   20.5099 H   0  0  0  0  0  0
  -29.6576  -22.7976   21.5530 H   0  0  0  0  0  0
  1 25  1  0  0  0
  1 30  2  0  0  0
  1 83  1  0  0  0
  2  3  1  0  0  0
  2 25  1  0  0  0
  2 85  1  0  0  0
  2 86  1  0  0  0
  3  4  1  0  0  0
  3 87  1  0  0  0
  3 88  1  0  0  0
  4  5  1  0  0  0
  4 89  1  0  0  0
  4 90  1  0  0  0
  5  6  1  0  0  0
  5 26  1  0  0  0
  5 91  1  0  0  0
  6 25  1  0  0  0
  6 92  1  0  0  0
  6 93  1  0  0  0
  7  8  2  0  0  0
  7 26  1  0  0  0
  7 29  1  0  0  0
  8  9  1  0  0  0
  8 22  1  0  0  0
  9 10  1  0  0  0
  9 27  2  0  0  0
 10 11  2  0  0  0
 10 15  1  0  0  0
 11 12  1  0  0  0
 11 94  1  0  0  0
 12 13  2  0  0  0
 12 95  1  0  0  0
 13 14  1  0  0  0
 13 31  1  0  0  0
 14 15  2  0  0  0
 14 96  1  0  0  0
 15 97  1  0  0  0
 16 17  2  0  0  0
 16 21  1  0  0  0
 16 31  1  0  0  0
 17 18  1  0  0  0
 17 98  1  0  0  0
 18 19  2  0  0  0
 18 99  1  0  0  0
 19 20  1  0  0  0
 19 24  1  0  0  0
 20 21  2  0  0  0
 20100  1  0  0  0
 21 23  1  0  0  0
 22 28  1  0  0  0
 22 32  2  0  0  0
 26 27  1  0  0  0
 28101  1  0  0  0
 28102  1  0  0  0
 29103  1  0  0  0
 29104  1  0  0  0
 33 34  1  0  0  0
 33 66  1  0  0  0
 33 70  2  0  0  0
 34 36  1  0  0  0
 34 59  1  0  0  0
 34105  1  0  0  0
 35 44  2  0  0  0
 35 45  1  0  0  0
 35 68  1  0  0  0
 36 56  1  0  0  0
 36106  1  0  0  0
 37 39  1  0  0  0
 37 47  1  0  0  0
 37 66  1  0  0  0
 37107  1  0  0  0
 38 43  2  0  0  0
 38 46  1  0  0  0
 38 47  1  0  0  0
 39 64  1  0  0  0
 39 67  2  0  0  0
 40 52  1  0  0  0
 40 53  2  0  0  0
 40 58  1  0  0  0
 41108  1  0  0  0
 41109  1  0  0  0
 41110  1  0  0  0
 41 48  1  0  0  0
 42 43  1  0  0  0
 42 66  1  0  0  0
 42111  1  0  0  0
 42112  1  0  0  0
 43 44  1  0  0  0
 44113  1  0  0  0
 45 46  2  0  0  0
 45114  1  0  0  0
 46115  1  0  0  0
 47116  1  0  0  0
 47117  1  0  0  0
 48 56  1  0  0  0
 48 65  1  0  0  0
 48118  1  0  0  0
 49 50  1  0  0  0
 49 53  1  0  0  0
 49 64  1  0  0  0
 49119  1  0  0  0
 50 51  1  0  0  0
 50120  1  0  0  0
 50121  1  0  0  0
 51 52  1  0  0  0
 51122  1  0  0  0
 51123  1  0  0  0
 52124  1  0  0  0
 52125  1  0  0  0
 53 54  1  0  0  0
 54 55  2  0  0  0
 54126  1  0  0  0
 55 57  1  0  0  0
 55127  1  0  0  0
 56 69  2  0  0  0
 57 58  2  0  0  0
 57128  1  0  0  0
 58129  1  0  0  0
 59 60  1  0  0  0
 59 61  1  0  0  0
 59 62  1  0  0  0
 60130  1  0  0  0
 60131  1  0  0  0
 60132  1  0  0  0
 61133  1  0  0  0
 61134  1  0  0  0
 61135  1  0  0  0
 62136  1  0  0  0
 62137  1  0  0  0
 62138  1  0  0  0
 63 65  1  0  0  0
 63139  1  0  0  0
 63140  1  0  0  0
 63141  1  0  0  0
 64142  1  0  0  0
 65143  1  0  0  0
 68 79  1  0  0  0
 71144  1  0  0  0
 71145  1  0  0  0
 71146  1  0  0  0
 71 80  1  0  0  0
 72147  1  0  0  0
 72148  1  0  0  0
 72149  1  0  0  0
 72 81  1  0  0  0
 73150  1  0  0  0
 73151  1  0  0  0
 73152  1  0  0  0
 73 82  1  0  0  0
 74153  1  0  0  0
 74154  1  0  0  0
 74155  1  0  0  0
 74 84  1  0  0  0
 75 77  1  0  0  0
 75 79  1  0  0  0
 75156  1  0  0  0
 75157  1  0  0  0
 76 80  1  0  0  0
 76 82  1  0  0  0
 76158  1  0  0  0
 76159  1  0  0  0
 77 84  1  0  0  0
 77160  1  0  0  0
 77161  1  0  0  0
 78 81  1  0  0  0
 78 84  1  0  0  0
 78162  1  0  0  0
 78163  1  0  0  0
 79164  1  0  0  0
 79165  1  0  0  0
 80 81  1  0  0  0
 80166  1  0  0  0
 81167  1  0  0  0
 82 83  1  0  0  0
 82168  1  0  0  0
 83169  1  0  0  0
 84170  1  0  0  0
M  CHG  1  84   1
M  ISO  4   1 100  68 101  79 101  83 100
M  END
> <chiral flag>
0

> <version>
0

> <s_m_source_file>
/data/baiqing/PycharmProjects/Reinvent-master-3.2/result/LINK_invent/BTK/process_docking_weight1_custom_sum_contain_oxygen_bond_distance_aromatic_linkinvent_7_9_3/rearranged_h_0105.sdf

> <i_m_source_file_index>
13

> <r_mmod_Potential_Energy-OPLS-2005>
215.724456787109

> <r_mmod_Stretch_Energy-OPLS-2005>
43.7889099121094

> <r_mmod_Bend_Energy-OPLS-2005>
350.896087646484

> <r_mmod_Torsional_Energy-OPLS-2005>
272.258056640625

> <r_mmod_Improper_Torsional_Energy-OPLS-2005>
14.0677909851074

> <r_mmod_Van_der_Waal_Energy-OPLS-2005>
180.609237670898

> <r_mmod_Electrostatic_Energy-OPLS-2005>
-238.150085449219

> <r_mmod_Solvation_Energy-OPLS-2005>
-429.100677490234

> <b_mmod_Minimization_Converged-OPLS-2005>
0

> <r_mmod_RMS_Derivative-OPLS-2005>
1.73896837234497

$$$$
13
                    3D
 Structure written by MMmdl.
158166  0  0  1  0            999 V2000
  -30.4534  -15.1951   20.4110 C   0  0  0  0  0  0
  -30.4375  -12.7651   19.5285 C   0  0  0  0  0  0
  -29.5309  -12.5777   18.2865 C   0  0  0  0  0  0
  -28.0775  -12.3048   18.7114 C   0  0  0  0  0  0
  -27.6134  -13.2680   19.8319 C   0  0  2  0  0  0
  -28.6455  -13.4044   20.9706 C   0  0  0  0  0  0
  -25.2390  -13.8234   20.5732 C   0  0  0  0  0  0
  -24.1739  -13.0432   20.9237 C   0  0  0  0  0  0
  -24.6384  -11.6924   20.8753 C   0  0  0  0  0  0
  -23.9084  -10.4287   21.0394 C   0  0  0  0  0  0
  -24.3627   -9.4204   21.9174 C   0  0  0  0  0  0
  -23.6292   -8.2245   22.0758 C   0  0  0  0  0  0
  -22.4278   -8.0278   21.3540 C   0  0  0  0  0  0
  -21.9911   -9.0253   20.4647 C   0  0  0  0  0  0
  -22.7250  -10.2123   20.3055 C   0  0  0  0  0  0
  -21.6863   -6.0728   22.5270 C   0  0  0  0  0  0
  -21.4014   -6.5633   23.8196 C   0  0  0  0  0  0
  -21.3660   -5.6791   24.9162 C   0  0  0  0  0  0
  -21.6050   -4.3055   24.7215 C   0  0  0  0  0  0
  -21.8822   -3.8141   23.4340 C   0  0  0  0  0  0
  -21.9189   -4.6956   22.3395 C   0  0  0  0  0  0
  -22.7762  -13.5192   21.1874 C   0  0  0  0  0  0
  -22.1666   -4.2148   21.0974 F   0  0  0  0  0  0
  -21.5624   -3.4541   25.7723 F   0  0  0  0  0  0
  -29.8849  -13.8978   20.3529 N   0  0  0  0  0  0
  -26.2812  -12.9491   20.3231 N   0  0  0  0  0  0
  -25.9323  -11.6605   20.5740 N   0  0  0  0  0  0
  -22.0435  -12.8171   22.0437 N   0  0  0  0  0  0
  -25.4029  -15.1967   20.4160 N   0  0  0  0  0  0
  -31.6723  -15.2076   20.1882 O   0  0  0  0  0  0
  -21.6646   -6.8873   21.4237 O   0  0  0  0  0  0
  -22.3435  -14.5494   20.6711 O   0  0  0  0  0  0
  -24.6580  -31.8259   23.1765 C   0  0  0  0  0  0
  -25.9285  -32.4604   23.8207 C   0  0  1  0  0  0
  -27.1942  -26.9571   20.1961 C   0  0  0  0  0  0
  -25.5962  -33.8430   24.2096 N   0  0  0  0  0  0
  -23.4718  -30.4437   21.5238 C   0  0  2  0  0  0
  -24.9207  -28.8380   20.1153 C   0  0  0  0  0  0
  -22.7643  -29.4454   22.4779 C   0  0  0  0  0  0
  -18.0314  -28.1421   22.8444 C   0  0  0  0  0  0
  -24.1485  -36.7224   23.2654 C   0  0  0  0  0  0
  -26.0388  -30.6441   21.4016 C   0  0  0  0  0  0
  -26.1048  -29.2378   20.7494 C   0  0  0  0  0  0
  -27.2428  -28.3177   20.7635 C   0  0  0  0  0  0
  -25.9907  -26.7047   19.5041 C   0  0  0  0  0  0
  -24.8852  -27.5917   19.4741 C   0  0  0  0  0  0
  -23.7103  -29.7694   20.1466 C   0  0  0  0  0  0
  -25.4122  -36.2978   24.0298 C   0  0  1  0  0  0
  -20.5941  -28.3748   23.1190 C   0  0  2  0  0  0
  -20.6789  -26.9434   22.5410 C   0  0  0  0  0  0
  -19.5766  -26.6374   21.5235 C   0  0  0  0  0  0
  -18.1941  -26.7951   22.1622 C   0  0  0  0  0  0
  -19.1573  -28.8903   23.2806 C   0  0  0  0  0  0
  -18.9495  -30.1483   23.8845 C   0  0  0  0  0  0
  -17.6495  -30.6600   24.0556 C   0  0  0  0  0  0
  -25.9087  -34.9363   23.5009 C   0  0  0  0  0  0
  -16.5380  -29.9092   23.6355 C   0  0  0  0  0  0
  -16.7303  -28.6525   23.0353 C   0  0  0  0  0  0
  -26.4548  -31.6552   25.0736 C   0  0  0  0  0  0
  -25.3676  -31.3797   26.1389 C   0  0  0  0  0  0
  -27.0453  -30.2929   24.6450 C   0  0  0  0  0  0
  -27.6036  -32.4370   25.7522 C   0  0  0  0  0  0
  -27.5550  -37.1761   24.8460 C   0  0  0  0  0  0
  -21.4317  -29.3038   22.3539 N   0  0  0  0  0  0
  -26.4255  -37.3720   23.9414 N   0  0  0  0  0  0
  -24.7445  -30.9967   22.0885 N   0  0  0  0  0  0
  -23.4208  -28.8004   23.3003 O   0  0  0  0  0  0
  -28.1866  -25.8544   20.2057 O   0  0  0  0  0  0
  -26.5710  -34.8877   22.4615 O   0  0  0  0  0  0
  -23.5657  -32.1232   23.6859 O   0  0  0  0  0  0
  -28.1561  -20.1684   19.9301 C   0  0  0  0  0  0
  -30.0548  -20.8332   20.9996 C   0  0  0  0  0  0
  -29.3802  -19.6396   20.5036 C   0  0  0  0  0  0
  -27.7301  -21.6002   19.8965 C   0  0  0  0  0  0
  -28.5073  -22.7303   20.4302 C   0  0  0  0  0  0
  -25.2282  -21.3273   20.1942 C   0  0  0  0  0  0
  -26.2097  -21.3577   17.8563 C   0  0  0  0  0  0
  -26.6408  -24.3180   21.5979 C   0  0  0  0  0  0
  -30.1102  -18.0525   20.5479 C   0  0  0  0  0  0
  -26.3505  -21.8778   19.2963 C   0  0  0  0  0  0
  -27.9729  -24.3568   20.8226 C   0  0  2  0  0  0
  -29.6661  -22.1974   20.9878 N   0  0  0  0  0  0
  -29.6949  -16.4552   20.5233 N   0  0  0  0  0  0
  -31.4592  -12.9676   19.2030 H   0  0  0  0  0  0
  -30.4929  -11.8473   20.1165 H   0  0  0  0  0  0
  -29.9033  -11.7653   17.6628 H   0  0  0  0  0  0
  -29.5678  -13.4784   17.6726 H   0  0  0  0  0  0
  -28.0252  -11.2758   19.0667 H   0  0  0  0  0  0
  -27.4087  -12.3648   17.8529 H   0  0  0  0  0  0
  -27.5412  -14.2453   19.3543 H   0  0  0  0  0  0
  -28.7969  -12.4561   21.4893 H   0  0  0  0  0  0
  -28.2943  -14.1150   21.7221 H   0  0  0  0  0  0
  -25.2773   -9.5679   22.4749 H   0  0  0  0  0  0
  -23.9998   -7.4645   22.7485 H   0  0  0  0  0  0
  -21.0844   -8.8769   19.8961 H   0  0  0  0  0  0
  -22.3704  -10.9655   19.6169 H   0  0  0  0  0  0
  -21.2021   -7.6141   23.9696 H   0  0  0  0  0  0
  -21.1483   -6.0520   25.9055 H   0  0  0  0  0  0
  -22.0606   -2.7606   23.2833 H   0  0  0  0  0  0
  -22.4087  -11.9846   22.4808 H   0  0  0  0  0  0
  -21.1061  -13.1180   22.2697 H   0  0  0  0  0  0
  -24.6251  -15.8410   20.5094 H   0  0  0  0  0  0
  -26.2429  -15.6369   20.0640 H   0  0  0  0  0  0
  -26.7356  -32.5133   23.0914 H   0  0  0  0  0  0
  -25.0066  -33.9541   25.0208 H   0  0  0  0  0  0
  -22.7855  -31.2777   21.3580 H   0  0  0  0  0  0
  -23.3749  -35.9552   23.3290 H   0  0  0  0  0  0
  -24.3566  -36.8908   22.2082 H   0  0  0  0  0  0
  -23.7262  -37.6410   23.6726 H   0  0  0  0  0  0
  -26.2198  -31.3870   20.6224 H   0  0  0  0  0  0
  -26.9006  -30.6948   22.0548 H   0  0  0  0  0  0
  -28.1430  -28.6230   21.2805 H   0  0  0  0  0  0
  -25.8768  -25.7545   19.0026 H   0  0  0  0  0  0
  -23.9853  -27.2836   18.9596 H   0  0  0  0  0  0
  -23.8733  -30.5450   19.3974 H   0  0  0  0  0  0
  -22.8157  -29.2348   19.8217 H   0  0  0  0  0  0
  -25.1322  -36.1767   25.0789 H   0  0  0  0  0  0
  -21.0024  -28.3341   24.1317 H   0  0  0  0  0  0
  -20.5714  -26.2354   23.3635 H   0  0  0  0  0  0
  -21.6646  -26.7421   22.1200 H   0  0  0  0  0  0
  -19.6942  -25.6288   21.1281 H   0  0  0  0  0  0
  -19.6733  -27.3145   20.6738 H   0  0  0  0  0  0
  -17.4229  -26.6700   21.4012 H   0  0  0  0  0  0
  -18.0294  -26.0127   22.9039 H   0  0  0  0  0  0
  -19.7976  -30.7295   24.2196 H   0  0  0  0  0  0
  -17.5057  -31.6284   24.5153 H   0  0  0  0  0  0
  -15.5379  -30.2979   23.7713 H   0  0  0  0  0  0
  -15.8699  -28.0828   22.7091 H   0  0  0  0  0  0
  -24.5877  -30.7123   25.7704 H   0  0  0  0  0  0
  -24.8847  -32.2992   26.4696 H   0  0  0  0  0  0
  -25.7903  -30.9062   27.0255 H   0  0  0  0  0  0
  -26.3121  -29.6605   24.1427 H   0  0  0  0  0  0
  -27.3982  -29.7295   25.5102 H   0  0  0  0  0  0
  -27.9052  -30.4159   23.9866 H   0  0  0  0  0  0
  -27.2617  -33.3719   26.1955 H   0  0  0  0  0  0
  -28.3897  -32.6852   25.0389 H   0  0  0  0  0  0
  -28.0627  -31.8619   26.5565 H   0  0  0  0  0  0
  -28.2533  -38.0083   24.7492 H   0  0  0  0  0  0
  -28.1080  -36.2608   24.6279 H   0  0  0  0  0  0
  -27.2273  -37.1394   25.8864 H   0  0  0  0  0  0
  -20.9540  -29.8791   21.6739 H   0  0  0  0  0  0
  -26.0097  -38.2765   24.1456 H   0  0  0  0  0  0
  -27.4885  -19.4357   19.4981 H   0  0  0  0  0  0
  -31.0197  -20.6868   21.4636 H   0  0  0  0  0  0
  -25.2645  -21.7594   21.1943 H   0  0  0  0  0  0
  -25.2904  -20.2445   20.3033 H   0  0  0  0  0  0
  -24.2449  -21.5567   19.7809 H   0  0  0  0  0  0
  -26.9640  -21.7985   17.2015 H   0  0  0  0  0  0
  -25.2320  -21.6242   17.4515 H   0  0  0  0  0  0
  -26.2961  -20.2734   17.7902 H   0  0  0  0  0  0
  -26.6475  -23.5070   22.3258 H   0  0  0  0  0  0
  -25.7793  -24.1750   20.9480 H   0  0  0  0  0  0
  -26.4692  -25.2390   22.1547 H   0  0  0  0  0  0
  -30.6835  -18.1107   21.4733 H   0  0  0  0  0  0
  -30.8746  -18.1131   19.7739 H   0  0  0  0  0  0
  -26.2238  -22.9565   19.2191 H   0  0  0  0  0  0
  -28.6757  -24.5038   21.6417 H   0  0  0  0  0  0
  -28.7061  -16.2932   20.6509 H   0  0  0  0  0  0
  1 25  1  0  0  0
  1 30  2  0  0  0
  1 83  1  0  0  0
  2  3  1  0  0  0
  2 25  1  0  0  0
  2 84  1  0  0  0
  2 85  1  0  0  0
  3  4  1  0  0  0
  3 86  1  0  0  0
  3 87  1  0  0  0
  4  5  1  0  0  0
  4 88  1  0  0  0
  4 89  1  0  0  0
  5  6  1  0  0  0
  5 26  1  0  0  0
  5 90  1  0  0  0
  6 25  1  0  0  0
  6 91  1  0  0  0
  6 92  1  0  0  0
  7  8  2  0  0  0
  7 26  1  0  0  0
  7 29  1  0  0  0
  8  9  1  0  0  0
  8 22  1  0  0  0
  9 10  1  0  0  0
  9 27  2  0  0  0
 10 11  2  0  0  0
 10 15  1  0  0  0
 11 12  1  0  0  0
 11 93  1  0  0  0
 12 13  2  0  0  0
 12 94  1  0  0  0
 13 14  1  0  0  0
 13 31  1  0  0  0
 14 15  2  0  0  0
 14 95  1  0  0  0
 15 96  1  0  0  0
 16 17  2  0  0  0
 16 21  1  0  0  0
 16 31  1  0  0  0
 17 18  1  0  0  0
 17 97  1  0  0  0
 18 19  2  0  0  0
 18 98  1  0  0  0
 19 20  1  0  0  0
 19 24  1  0  0  0
 20 21  2  0  0  0
 20 99  1  0  0  0
 21 23  1  0  0  0
 22 28  1  0  0  0
 22 32  2  0  0  0
 26 27  1  0  0  0
 28100  1  0  0  0
 28101  1  0  0  0
 29102  1  0  0  0
 29103  1  0  0  0
 33 34  1  0  0  0
 33 66  1  0  0  0
 33 70  2  0  0  0
 34 36  1  0  0  0
 34 59  1  0  0  0
 34104  1  0  0  0
 35 44  2  0  0  0
 35 45  1  0  0  0
 35 68  1  0  0  0
 36 56  1  0  0  0
 36105  1  0  0  0
 37 39  1  0  0  0
 37 47  1  0  0  0
 37 66  1  0  0  0
 37106  1  0  0  0
 38 43  2  0  0  0
 38 46  1  0  0  0
 38 47  1  0  0  0
 39 64  1  0  0  0
 39 67  2  0  0  0
 40 52  1  0  0  0
 40 53  2  0  0  0
 40 58  1  0  0  0
 41107  1  0  0  0
 41108  1  0  0  0
 41109  1  0  0  0
 41 48  1  0  0  0
 42 43  1  0  0  0
 42 66  1  0  0  0
 42110  1  0  0  0
 42111  1  0  0  0
 43 44  1  0  0  0
 44112  1  0  0  0
 45 46  2  0  0  0
 45113  1  0  0  0
 46114  1  0  0  0
 47115  1  0  0  0
 47116  1  0  0  0
 48 56  1  0  0  0
 48 65  1  0  0  0
 48117  1  0  0  0
 49 50  1  0  0  0
 49 53  1  0  0  0
 49 64  1  0  0  0
 49118  1  0  0  0
 50 51  1  0  0  0
 50119  1  0  0  0
 50120  1  0  0  0
 51 52  1  0  0  0
 51121  1  0  0  0
 51122  1  0  0  0
 52123  1  0  0  0
 52124  1  0  0  0
 53 54  1  0  0  0
 54 55  2  0  0  0
 54125  1  0  0  0
 55 57  1  0  0  0
 55126  1  0  0  0
 56 69  2  0  0  0
 57 58  2  0  0  0
 57127  1  0  0  0
 58128  1  0  0  0
 59 60  1  0  0  0
 59 61  1  0  0  0
 59 62  1  0  0  0
 60129  1  0  0  0
 60130  1  0  0  0
 60131  1  0  0  0
 61132  1  0  0  0
 61133  1  0  0  0
 61134  1  0  0  0
 62135  1  0  0  0
 62136  1  0  0  0
 62137  1  0  0  0
 63 65  1  0  0  0
 63138  1  0  0  0
 63139  1  0  0  0
 63140  1  0  0  0
 64141  1  0  0  0
 65142  1  0  0  0
 68 81  1  0  0  0
 71 73  2  0  0  0
 71 74  1  0  0  0
 71143  1  0  0  0
 72 73  1  0  0  0
 72 82  2  0  0  0
 72144  1  0  0  0
 73 79  1  0  0  0
 74 75  2  0  0  0
 74 80  1  0  0  0
 75 81  1  0  0  0
 75 82  1  0  0  0
 76145  1  0  0  0
 76146  1  0  0  0
 76147  1  0  0  0
 76 80  1  0  0  0
 77 80  1  0  0  0
 77148  1  0  0  0
 77149  1  0  0  0
 77150  1  0  0  0
 78151  1  0  0  0
 78152  1  0  0  0
 78153  1  0  0  0
 78 81  1  0  0  0
 79 83  1  0  0  0
 79154  1  0  0  0
 79155  1  0  0  0
 80156  1  0  0  0
 81157  1  0  0  0
 83158  1  0  0  0
M  ISO  4   1 100  68 101  81 101  83 100
M  END
> <chiral flag>
0

> <version>
0

> <s_m_source_file>
/data/baiqing/PycharmProjects/Reinvent-master-3.2/result/LINK_invent/BTK/process_docking_weight1_custom_sum_contain_oxygen_bond_distance_aromatic_linkinvent_7_9_3/rearranged_h_0105.sdf

> <i_m_source_file_index>
14

> <r_mmod_Potential_Energy-OPLS-2005>
1012.20886230469

> <r_mmod_Stretch_Energy-OPLS-2005>
477.260314941406

> <r_mmod_Bend_Energy-OPLS-2005>
459.494506835938

> <r_mmod_Torsional_Energy-OPLS-2005>
238.251388549805

> <r_mmod_Improper_Torsional_Energy-OPLS-2005>
7.19062614440918

> <r_mmod_Van_der_Waal_Energy-OPLS-2005>
131.401596069336

> <r_mmod_Electrostatic_Energy-OPLS-2005>
-477.447601318359

> <r_mmod_Solvation_Energy-OPLS-2005>
-224.257919311523

> <b_mmod_Minimization_Converged-OPLS-2005>
0

> <r_mmod_RMS_Derivative-OPLS-2005>
3.02726459503174

$$$$
14
                    3D
 Structure written by MMmdl.
174182  0  0  1  0            999 V2000
  -30.7178  -14.4972   20.5084 C   0  0  0  0  0  0
  -30.4076  -12.3033   19.4415 C   0  0  0  0  0  0
  -29.4920  -12.4842   18.2142 C   0  0  0  0  0  0
  -28.0139  -12.3525   18.6260 C   0  0  0  0  0  0
  -27.6537  -13.2164   19.8651 C   0  0  2  0  0  0
  -28.6969  -13.0553   20.9946 C   0  0  0  0  0  0
  -25.2555  -13.8187   20.5678 C   0  0  0  0  0  0
  -24.1829  -13.0449   20.9188 C   0  0  0  0  0  0
  -24.6395  -11.6917   20.8750 C   0  0  0  0  0  0
  -23.9068  -10.4297   21.0410 C   0  0  0  0  0  0
  -24.3619   -9.4208   21.9186 C   0  0  0  0  0  0
  -23.6292   -8.2247   22.0757 C   0  0  0  0  0  0
  -22.4278   -8.0284   21.3545 C   0  0  0  0  0  0
  -21.9912   -9.0260   20.4649 C   0  0  0  0  0  0
  -22.7242  -10.2137   20.3058 C   0  0  0  0  0  0
  -21.6852   -6.0736   22.5278 C   0  0  0  0  0  0
  -21.4018   -6.5638   23.8212 C   0  0  0  0  0  0
  -21.3659   -5.6792   24.9175 C   0  0  0  0  0  0
  -21.6044   -4.3056   24.7225 C   0  0  0  0  0  0
  -21.8820   -3.8146   23.4347 C   0  0  0  0  0  0
  -21.9194   -4.6963   22.3402 C   0  0  0  0  0  0
  -22.7848  -13.5236   21.1845 C   0  0  0  0  0  0
  -22.1662   -4.2146   21.0980 F   0  0  0  0  0  0
  -21.5627   -3.4540   25.7739 F   0  0  0  0  0  0
  -30.0232  -13.3294   20.4259 N   0  0  0  0  0  0
  -26.2990  -12.9372   20.3336 N   0  0  0  0  0  0
  -25.9324  -11.6524   20.5781 N   0  0  0  0  0  0
  -22.0495  -12.8226   22.0401 N   0  0  0  0  0  0
  -25.4274  -15.1909   20.4080 N   0  0  0  0  0  0
  -31.8957  -14.5552   20.1574 O   0  0  0  0  0  0
  -21.6644   -6.8880   21.4240 O   0  0  0  0  0  0
  -22.3531  -14.5539   20.6688 O   0  0  0  0  0  0
  -24.6144  -31.8675   23.2089 C   0  0  0  0  0  0
  -25.9042  -32.4815   23.8389 C   0  0  1  0  0  0
  -27.2307  -27.4315   20.1065 C   0  0  0  0  0  0
  -25.5896  -33.8614   24.2322 N   0  0  0  0  0  0
  -23.4034  -30.4901   21.5487 C   0  0  2  0  0  0
  -24.8513  -28.9532   20.1141 C   0  0  0  0  0  0
  -22.7410  -29.4663   22.4987 C   0  0  0  0  0  0
  -18.0275  -28.1380   22.8498 C   0  0  0  0  0  0
  -24.1485  -36.7319   23.2640 C   0  0  0  0  0  0
  -25.9312  -30.8349   21.3597 C   0  0  0  0  0  0
  -26.0103  -29.4687   20.7083 C   0  0  0  0  0  0
  -27.2073  -28.7166   20.6968 C   0  0  0  0  0  0
  -26.0618  -26.9306   19.5011 C   0  0  0  0  0  0
  -24.8717  -27.6842   19.5066 C   0  0  0  0  0  0
  -23.6125  -29.8195   20.1642 C   0  0  0  0  0  0
  -25.4105  -36.3108   24.0335 C   0  0  1  0  0  0
  -20.5868  -28.3673   23.1317 C   0  0  2  0  0  0
  -20.6767  -26.9407   22.5421 C   0  0  0  0  0  0
  -19.5747  -26.6393   21.5214 C   0  0  0  0  0  0
  -18.1924  -26.7928   22.1623 C   0  0  0  0  0  0
  -19.1526  -28.8839   23.2908 C   0  0  0  0  0  0
  -18.9453  -30.1439   23.8923 C   0  0  0  0  0  0
  -17.6460  -30.6589   24.0566 C   0  0  0  0  0  0
  -25.9033  -34.9473   23.5130 C   0  0  0  0  0  0
  -16.5351  -29.9095   23.6321 C   0  0  0  0  0  0
  -16.7266  -28.6507   23.0352 C   0  0  0  0  0  0
  -26.4476  -31.6595   25.0717 C   0  0  0  0  0  0
  -25.3745  -31.3689   26.1470 C   0  0  0  0  0  0
  -27.0309  -30.3039   24.6080 C   0  0  0  0  0  0
  -27.6061  -32.4307   25.7476 C   0  0  0  0  0  0
  -27.5581  -37.1809   24.8460 C   0  0  0  0  0  0
  -21.4139  -29.3039   22.3715 N   0  0  0  0  0  0
  -26.4295  -37.3792   23.9404 N   0  0  0  0  0  0
  -24.6679  -31.0784   22.0981 N   0  0  0  0  0  0
  -23.4174  -28.8206   23.3035 O   0  0  0  0  0  0
  -28.3814  -26.6721   20.1093 O   0  0  0  0  0  0
  -26.5606  -34.8931   22.4698 O   0  0  0  0  0  0
  -23.5334  -32.1431   23.7487 O   0  0  0  0  0  0
  -30.9809  -19.7596   20.3069 C   0  0  0  0  0  0
  -29.4813  -18.0143   21.1229 C   0  0  0  0  0  0
  -31.5036  -17.4243   19.9122 C   0  0  0  0  0  0
  -29.7908  -19.3941   20.9689 C   0  0  0  0  0  0
  -31.8423  -18.7886   19.7559 C   0  0  0  0  0  0
  -30.3446  -17.0030   20.6187 C   0  0  0  0  0  0
  -34.0460  -19.9768   20.0144 C   0  0  0  0  0  0
  -32.7527  -20.1945   17.8689 C   0  0  0  0  0  0
  -33.9287  -18.0729   18.4151 C   0  0  0  0  0  0
  -27.5600  -25.7656   22.3032 C   0  0  0  0  0  0
  -29.9689  -25.8595   21.6006 C   0  0  0  0  0  0
  -28.9112  -20.4982   21.5741 C   0  0  0  0  0  0
  -28.4013  -24.2172   20.4227 C   0  0  0  0  0  0
  -28.5610  -22.9779   21.3661 C   0  0  0  0  0  0
  -33.1224  -19.2419   19.0234 C   0  0  0  0  0  0
  -28.5309  -25.6239   21.1027 C   0  0  0  0  0  0
  -30.0040  -15.6091   20.8207 N   0  0  0  0  0  0
  -28.7009  -21.6649   20.6701 N   0  3  0  0  0  0
  -31.4551  -12.3700   19.1417 H   0  0  0  0  0  0
  -30.2859  -11.3072   19.8703 H   0  0  0  0  0  0
  -29.7333  -11.7435   17.4506 H   0  0  0  0  0  0
  -29.6647  -13.4611   17.7596 H   0  0  0  0  0  0
  -27.8272  -11.3002   18.8422 H   0  0  0  0  0  0
  -27.3643  -12.6083   17.7879 H   0  0  0  0  0  0
  -27.6823  -14.2548   19.5346 H   0  0  0  0  0  0
  -28.6727  -12.0432   21.4013 H   0  0  0  0  0  0
  -28.4715  -13.7188   21.8310 H   0  0  0  0  0  0
  -25.2761   -9.5683   22.4761 H   0  0  0  0  0  0
  -23.9999   -7.4640   22.7480 H   0  0  0  0  0  0
  -21.0841   -8.8781   19.8957 H   0  0  0  0  0  0
  -22.3699  -10.9678   19.6170 H   0  0  0  0  0  0
  -21.2014   -7.6146   23.9712 H   0  0  0  0  0  0
  -21.1478   -6.0525   25.9076 H   0  0  0  0  0  0
  -22.0600   -2.7607   23.2852 H   0  0  0  0  0  0
  -22.4110  -11.9881   22.4779 H   0  0  0  0  0  0
  -21.1116  -13.1250   22.2616 H   0  0  0  0  0  0
  -24.6592  -15.8452   20.5113 H   0  0  0  0  0  0
  -26.2752  -15.6267   20.0679 H   0  0  0  0  0  0
  -26.7122  -32.5536   23.1163 H   0  0  0  0  0  0
  -25.0024  -33.9771   25.0449 H   0  0  0  0  0  0
  -22.6925  -31.3073   21.4069 H   0  0  0  0  0  0
  -23.3743  -35.9658   23.3298 H   0  0  0  0  0  0
  -24.3578  -36.8937   22.2055 H   0  0  0  0  0  0
  -23.7249  -37.6523   23.6661 H   0  0  0  0  0  0
  -26.0418  -31.5992   20.5890 H   0  0  0  0  0  0
  -26.8197  -30.8909   21.9769 H   0  0  0  0  0  0
  -28.1056  -29.1062   21.1558 H   0  0  0  0  0  0
  -26.0700  -25.9553   19.0366 H   0  0  0  0  0  0
  -23.9798  -27.2814   19.0466 H   0  0  0  0  0  0
  -23.7194  -30.5925   19.4023 H   0  0  0  0  0  0
  -22.7361  -29.2380   19.8710 H   0  0  0  0  0  0
  -25.1279  -36.1980   25.0828 H   0  0  0  0  0  0
  -20.9967  -28.3251   24.1436 H   0  0  0  0  0  0
  -20.5668  -26.2282   23.3614 H   0  0  0  0  0  0
  -21.6642  -26.7452   22.1215 H   0  0  0  0  0  0
  -19.6908  -25.6308   21.1236 H   0  0  0  0  0  0
  -19.6686  -27.3208   20.6748 H   0  0  0  0  0  0
  -17.4196  -26.6688   21.4020 H   0  0  0  0  0  0
  -18.0311  -26.0062   22.9008 H   0  0  0  0  0  0
  -19.7929  -30.7241   24.2318 H   0  0  0  0  0  0
  -17.5023  -31.6269   24.5166 H   0  0  0  0  0  0
  -15.5354  -30.3011   23.7633 H   0  0  0  0  0  0
  -15.8665  -28.0834   22.7067 H   0  0  0  0  0  0
  -24.5918  -30.7040   25.7796 H   0  0  0  0  0  0
  -24.8936  -32.2836   26.4947 H   0  0  0  0  0  0
  -25.8105  -30.8836   27.0213 H   0  0  0  0  0  0
  -26.2848  -29.6789   24.1157 H   0  0  0  0  0  0
  -27.4110  -29.7282   25.4530 H   0  0  0  0  0  0
  -27.8663  -30.4352   23.9200 H   0  0  0  0  0  0
  -27.2696  -33.3599   26.2083 H   0  0  0  0  0  0
  -28.3854  -32.6877   25.0289 H   0  0  0  0  0  0
  -28.0751  -31.8416   26.5363 H   0  0  0  0  0  0
  -28.2596  -38.0110   24.7526 H   0  0  0  0  0  0
  -28.1084  -36.2648   24.6262 H   0  0  0  0  0  0
  -27.2307  -37.1427   25.8866 H   0  0  0  0  0  0
  -20.9303  -29.8764   21.6936 H   0  0  0  0  0  0
  -26.0183  -38.2869   24.1417 H   0  0  0  0  0  0
  -31.2487  -20.8028   20.2246 H   0  0  0  0  0  0
  -28.5841  -17.7329   21.6568 H   0  0  0  0  0  0
  -32.1626  -16.6997   19.4748 H   0  0  0  0  0  0
  -33.5771  -20.8680   20.4314 H   0  0  0  0  0  0
  -34.9702  -20.2988   19.5331 H   0  0  0  0  0  0
  -34.3208  -19.3316   20.8499 H   0  0  0  0  0  0
  -32.2744  -21.1085   18.2199 H   0  0  0  0  0  0
  -32.0696  -19.7156   17.1665 H   0  0  0  0  0  0
  -33.6367  -20.4991   17.3074 H   0  0  0  0  0  0
  -34.2779  -17.3778   19.1797 H   0  0  0  0  0  0
  -34.8153  -18.4332   17.8924 H   0  0  0  0  0  0
  -33.3407  -17.5107   17.6886 H   0  0  0  0  0  0
  -26.5239  -25.5933   22.0106 H   0  0  0  0  0  0
  -27.6180  -26.7562   22.7564 H   0  0  0  0  0  0
  -27.7925  -25.0537   23.0946 H   0  0  0  0  0  0
  -30.2490  -25.1793   22.4047 H   0  0  0  0  0  0
  -30.0859  -26.8727   21.9871 H   0  0  0  0  0  0
  -30.6938  -25.7375   20.7949 H   0  0  0  0  0  0
  -29.4029  -20.8228   22.4921 H   0  0  0  0  0  0
  -27.9425  -20.0957   21.8723 H   0  0  0  0  0  0
  -27.4346  -24.1517   19.9233 H   0  0  0  0  0  0
  -29.1444  -24.1567   19.6265 H   0  0  0  0  0  0
  -27.7068  -22.9200   22.0421 H   0  0  0  0  0  0
  -29.4420  -23.1108   21.9942 H   0  0  0  0  0  0
  -29.0706  -15.4259   21.1553 H   0  0  0  0  0  0
  -27.8879  -21.4797   20.1052 H   0  0  0  0  0  0
  -29.4940  -21.7102   20.0535 H   0  0  0  0  0  0
  1 25  1  0  0  0
  1 30  2  0  0  0
  1 87  1  0  0  0
  2  3  1  0  0  0
  2 25  1  0  0  0
  2 89  1  0  0  0
  2 90  1  0  0  0
  3  4  1  0  0  0
  3 91  1  0  0  0
  3 92  1  0  0  0
  4  5  1  0  0  0
  4 93  1  0  0  0
  4 94  1  0  0  0
  5  6  1  0  0  0
  5 26  1  0  0  0
  5 95  1  0  0  0
  6 25  1  0  0  0
  6 96  1  0  0  0
  6 97  1  0  0  0
  7  8  2  0  0  0
  7 26  1  0  0  0
  7 29  1  0  0  0
  8  9  1  0  0  0
  8 22  1  0  0  0
  9 10  1  0  0  0
  9 27  2  0  0  0
 10 11  2  0  0  0
 10 15  1  0  0  0
 11 12  1  0  0  0
 11 98  1  0  0  0
 12 13  2  0  0  0
 12 99  1  0  0  0
 13 14  1  0  0  0
 13 31  1  0  0  0
 14 15  2  0  0  0
 14100  1  0  0  0
 15101  1  0  0  0
 16 17  2  0  0  0
 16 21  1  0  0  0
 16 31  1  0  0  0
 17 18  1  0  0  0
 17102  1  0  0  0
 18 19  2  0  0  0
 18103  1  0  0  0
 19 20  1  0  0  0
 19 24  1  0  0  0
 20 21  2  0  0  0
 20104  1  0  0  0
 21 23  1  0  0  0
 22 28  1  0  0  0
 22 32  2  0  0  0
 26 27  1  0  0  0
 28105  1  0  0  0
 28106  1  0  0  0
 29107  1  0  0  0
 29108  1  0  0  0
 33 34  1  0  0  0
 33 66  1  0  0  0
 33 70  2  0  0  0
 34 36  1  0  0  0
 34 59  1  0  0  0
 34109  1  0  0  0
 35 44  2  0  0  0
 35 45  1  0  0  0
 35 68  1  0  0  0
 36 56  1  0  0  0
 36110  1  0  0  0
 37 39  1  0  0  0
 37 47  1  0  0  0
 37 66  1  0  0  0
 37111  1  0  0  0
 38 43  2  0  0  0
 38 46  1  0  0  0
 38 47  1  0  0  0
 39 64  1  0  0  0
 39 67  2  0  0  0
 40 52  1  0  0  0
 40 53  2  0  0  0
 40 58  1  0  0  0
 41112  1  0  0  0
 41113  1  0  0  0
 41114  1  0  0  0
 41 48  1  0  0  0
 42 43  1  0  0  0
 42 66  1  0  0  0
 42115  1  0  0  0
 42116  1  0  0  0
 43 44  1  0  0  0
 44117  1  0  0  0
 45 46  2  0  0  0
 45118  1  0  0  0
 46119  1  0  0  0
 47120  1  0  0  0
 47121  1  0  0  0
 48 56  1  0  0  0
 48 65  1  0  0  0
 48122  1  0  0  0
 49 50  1  0  0  0
 49 53  1  0  0  0
 49 64  1  0  0  0
 49123  1  0  0  0
 50 51  1  0  0  0
 50124  1  0  0  0
 50125  1  0  0  0
 51 52  1  0  0  0
 51126  1  0  0  0
 51127  1  0  0  0
 52128  1  0  0  0
 52129  1  0  0  0
 53 54  1  0  0  0
 54 55  2  0  0  0
 54130  1  0  0  0
 55 57  1  0  0  0
 55131  1  0  0  0
 56 69  2  0  0  0
 57 58  2  0  0  0
 57132  1  0  0  0
 58133  1  0  0  0
 59 60  1  0  0  0
 59 61  1  0  0  0
 59 62  1  0  0  0
 60134  1  0  0  0
 60135  1  0  0  0
 60136  1  0  0  0
 61137  1  0  0  0
 61138  1  0  0  0
 61139  1  0  0  0
 62140  1  0  0  0
 62141  1  0  0  0
 62142  1  0  0  0
 63 65  1  0  0  0
 63143  1  0  0  0
 63144  1  0  0  0
 63145  1  0  0  0
 64146  1  0  0  0
 65147  1  0  0  0
 68 86  1  0  0  0
 71 74  2  0  0  0
 71 75  1  0  0  0
 71148  1  0  0  0
 72 74  1  0  0  0
 72 76  2  0  0  0
 72149  1  0  0  0
 73 75  2  0  0  0
 73 76  1  0  0  0
 73150  1  0  0  0
 74 82  1  0  0  0
 75 85  1  0  0  0
 76 87  1  0  0  0
 77151  1  0  0  0
 77152  1  0  0  0
 77153  1  0  0  0
 77 85  1  0  0  0
 78 85  1  0  0  0
 78154  1  0  0  0
 78155  1  0  0  0
 78156  1  0  0  0
 79 85  1  0  0  0
 79157  1  0  0  0
 79158  1  0  0  0
 79159  1  0  0  0
 80160  1  0  0  0
 80161  1  0  0  0
 80162  1  0  0  0
 80 86  1  0  0  0
 81 86  1  0  0  0
 81163  1  0  0  0
 81164  1  0  0  0
 81165  1  0  0  0
 82 88  1  0  0  0
 82166  1  0  0  0
 82167  1  0  0  0
 83 84  1  0  0  0
 83 86  1  0  0  0
 83168  1  0  0  0
 83169  1  0  0  0
 84 88  1  0  0  0
 84170  1  0  0  0
 84171  1  0  0  0
 87172  1  0  0  0
 88173  1  0  0  0
 88174  1  0  0  0
M  CHG  1  88   1
M  ISO  4   1 100  68 101  86 101  87 100
M  END
> <chiral flag>
0

> <version>
0

> <s_m_source_file>
/data/baiqing/PycharmProjects/Reinvent-master-3.2/result/LINK_invent/BTK/process_docking_weight1_custom_sum_contain_oxygen_bond_distance_aromatic_linkinvent_7_9_3/rearranged_h_0105.sdf

> <i_m_source_file_index>
15

> <r_mmod_Potential_Energy-OPLS-2005>
-223.453109741211

> <r_mmod_Stretch_Energy-OPLS-2005>
47.8624687194824

> <r_mmod_Bend_Energy-OPLS-2005>
114.418655395508

> <r_mmod_Torsional_Energy-OPLS-2005>
243.634017944336

> <r_mmod_Improper_Torsional_Energy-OPLS-2005>
4.1501636505127

> <r_mmod_Van_der_Waal_Energy-OPLS-2005>
165.45832824707

> <r_mmod_Electrostatic_Energy-OPLS-2005>
-359.798767089844

> <r_mmod_Solvation_Energy-OPLS-2005>
-459.500122070312

> <b_mmod_Minimization_Converged-OPLS-2005>
0

> <r_mmod_RMS_Derivative-OPLS-2005>
0.97700423002243

$$$$
15
                    3D
 Structure written by MMmdl.
160168  0  0  1  0            999 V2000
  -30.5395  -14.9518   20.4385 C   0  0  0  0  0  0
  -30.4340  -12.5924   19.4964 C   0  0  0  0  0  0
  -29.5225  -12.5418   18.2494 C   0  0  0  0  0  0
  -28.0497  -12.3389   18.6549 C   0  0  0  0  0  0
  -27.6262  -13.2570   19.8322 C   0  0  2  0  0  0
  -28.6681  -13.2717   20.9695 C   0  0  0  0  0  0
  -25.2422  -13.8229   20.5640 C   0  0  0  0  0  0
  -24.1752  -13.0440   20.9195 C   0  0  0  0  0  0
  -24.6393  -11.6937   20.8720 C   0  0  0  0  0  0
  -23.9078  -10.4300   21.0367 C   0  0  0  0  0  0
  -24.3620   -9.4210   21.9144 C   0  0  0  0  0  0
  -23.6299   -8.2243   22.0730 C   0  0  0  0  0  0
  -22.4285   -8.0260   21.3525 C   0  0  0  0  0  0
  -21.9925   -9.0236   20.4632 C   0  0  0  0  0  0
  -22.7243  -10.2125   20.3030 C   0  0  0  0  0  0
  -21.6877   -6.0707   22.5258 C   0  0  0  0  0  0
  -21.4028   -6.5620   23.8185 C   0  0  0  0  0  0
  -21.3678   -5.6773   24.9155 C   0  0  0  0  0  0
  -21.6058   -4.3028   24.7213 C   0  0  0  0  0  0
  -21.8824   -3.8123   23.4334 C   0  0  0  0  0  0
  -21.9197   -4.6934   22.3393 C   0  0  0  0  0  0
  -22.7753  -13.5184   21.1855 C   0  0  0  0  0  0
  -22.1642   -4.2115   21.0968 F   0  0  0  0  0  0
  -21.5656   -3.4509   25.7724 F   0  0  0  0  0  0
  -29.9397  -13.6951   20.3720 N   0  0  0  0  0  0
  -26.2855  -12.9490   20.3177 N   0  0  0  0  0  0
  -25.9321  -11.6610   20.5668 N   0  0  0  0  0  0
  -22.0418  -12.8185   22.0436 N   0  0  0  0  0  0
  -25.4086  -15.1957   20.4046 N   0  0  0  0  0  0
  -31.7499  -14.9925   20.1913 O   0  0  0  0  0  0
  -21.6665   -6.8844   21.4213 O   0  0  0  0  0  0
  -22.3419  -14.5468   20.6675 O   0  0  0  0  0  0
  -24.6469  -31.8429   23.1845 C   0  0  0  0  0  0
  -25.9234  -32.4688   23.8248 C   0  0  1  0  0  0
  -27.2127  -27.1062   20.1515 C   0  0  0  0  0  0
  -25.5972  -33.8489   24.2156 N   0  0  0  0  0  0
  -23.4512  -30.4588   21.5328 C   0  0  2  0  0  0
  -24.8993  -28.8790   20.1070 C   0  0  0  0  0  0
  -22.7591  -29.4535   22.4877 C   0  0  0  0  0  0
  -18.0308  -28.1402   22.8466 C   0  0  0  0  0  0
  -24.1486  -36.7246   23.2632 C   0  0  0  0  0  0
  -26.0077  -30.7043   21.3881 C   0  0  0  0  0  0
  -26.0764  -29.3111   20.7300 C   0  0  0  0  0  0
  -27.2324  -28.4402   20.7358 C   0  0  0  0  0  0
  -26.0135  -26.7858   19.4797 C   0  0  0  0  0  0
  -24.8824  -27.6324   19.4630 C   0  0  0  0  0  0
  -23.6780  -29.7851   20.1516 C   0  0  0  0  0  0
  -25.4125  -36.3034   24.0309 C   0  0  1  0  0  0
  -20.5914  -28.3737   23.1244 C   0  0  2  0  0  0
  -20.6805  -26.9451   22.5405 C   0  0  0  0  0  0
  -19.5781  -26.6384   21.5220 C   0  0  0  0  0  0
  -18.1953  -26.7941   22.1616 C   0  0  0  0  0  0
  -19.1557  -28.8894   23.2837 C   0  0  0  0  0  0
  -18.9471  -30.1482   23.8874 C   0  0  0  0  0  0
  -17.6468  -30.6610   24.0548 C   0  0  0  0  0  0
  -25.9090  -34.9412   23.5044 C   0  0  0  0  0  0
  -16.5363  -29.9100   23.6326 C   0  0  0  0  0  0
  -16.7287  -28.6511   23.0359 C   0  0  0  0  0  0
  -26.4539  -31.6559   25.0707 C   0  0  0  0  0  0
  -25.3692  -31.3746   26.1376 C   0  0  0  0  0  0
  -27.0399  -30.2958   24.6279 C   0  0  0  0  0  0
  -27.6077  -32.4317   25.7500 C   0  0  0  0  0  0
  -27.5585  -37.1793   24.8470 C   0  0  0  0  0  0
  -21.4285  -29.3052   22.3631 N   0  0  0  0  0  0
  -26.4287  -37.3764   23.9420 N   0  0  0  0  0  0
  -24.7216  -31.0250   22.0899 N   0  0  0  0  0  0
  -23.4224  -28.8084   23.3039 O   0  0  0  0  0  0
  -28.2535  -26.1025   20.2388 O   0  0  0  0  0  0
  -26.5682  -34.8937   22.4629 O   0  0  0  0  0  0
  -23.5586  -32.1312   23.7068 O   0  0  0  0  0  0
  -27.8933  -21.3140   19.0128 C   0  0  0  0  0  0
  -27.7098  -19.9789   18.5670 C   0  0  0  0  0  0
  -29.4118  -20.4402   20.6632 C   0  0  0  0  0  0
  -28.7543  -21.6437   20.0779 C   0  0  0  0  0  0
  -29.2558  -19.0182   20.2299 C   0  0  0  0  0  0
  -28.3690  -18.8492   19.1377 C   0  0  0  0  0  0
  -30.4331  -23.5877   20.0701 C   0  0  0  0  0  0
  -31.5690  -17.9873   20.7472 C   0  0  0  0  0  0
  -27.5765  -17.3800   17.3907 C   0  0  0  0  0  0
  -28.0185  -24.5680   19.9766 C   0  0  0  0  0  0
  -28.9867  -23.2483   20.4579 C   0  0  1  0  0  0
  -30.0628  -17.6980   20.8434 C   0  0  2  0  0  0
  -29.7671  -16.1468   20.5936 N   0  0  0  0  0  0
  -28.1965  -17.5652   18.6601 O   0  0  0  0  0  0
  -31.4689  -12.7434   19.1878 H   0  0  0  0  0  0
  -30.4188  -11.6378   20.0252 H   0  0  0  0  0  0
  -29.8437  -11.7482   17.5729 H   0  0  0  0  0  0
  -29.6207  -13.4754   17.6930 H   0  0  0  0  0  0
  -27.9272  -11.2919   18.9347 H   0  0  0  0  0  0
  -27.3984  -12.4986   17.7949 H   0  0  0  0  0  0
  -27.5913  -14.2665   19.4177 H   0  0  0  0  0  0
  -28.7532  -12.2900   21.4415 H   0  0  0  0  0  0
  -28.3661  -13.9649   21.7549 H   0  0  0  0  0  0
  -25.2750   -9.5708   22.4709 H   0  0  0  0  0  0
  -24.0012   -7.4664   22.7477 H   0  0  0  0  0  0
  -21.0838   -8.8759   19.8957 H   0  0  0  0  0  0
  -22.3667  -10.9652   19.6143 H   0  0  0  0  0  0
  -21.2010   -7.6120   23.9678 H   0  0  0  0  0  0
  -21.1505   -6.0497   25.9058 H   0  0  0  0  0  0
  -22.0593   -2.7571   23.2844 H   0  0  0  0  0  0
  -22.4062  -11.9890   22.4900 H   0  0  0  0  0  0
  -21.1008  -13.1195   22.2597 H   0  0  0  0  0  0
  -24.6400  -15.8461   20.5218 H   0  0  0  0  0  0
  -26.2500  -15.6363   20.0577 H   0  0  0  0  0  0
  -26.7302  -32.5294   23.0982 H   0  0  0  0  0  0
  -25.0110  -33.9562   25.0302 H   0  0  0  0  0  0
  -22.7577  -31.2873   21.3763 H   0  0  0  0  0  0
  -23.3769  -35.9556   23.3277 H   0  0  0  0  0  0
  -24.3548  -36.8907   22.2048 H   0  0  0  0  0  0
  -23.7213  -37.6424   23.6682 H   0  0  0  0  0  0
  -26.1642  -31.4573   20.6145 H   0  0  0  0  0  0
  -26.8789  -30.7584   22.0289 H   0  0  0  0  0  0
  -28.1282  -28.7611   21.2490 H   0  0  0  0  0  0
  -25.9205  -25.8346   18.9794 H   0  0  0  0  0  0
  -23.9861  -27.3031   18.9553 H   0  0  0  0  0  0
  -23.8236  -30.5583   19.3967 H   0  0  0  0  0  0
  -22.7910  -29.2324   19.8371 H   0  0  0  0  0  0
  -25.1314  -36.1848   25.0803 H   0  0  0  0  0  0
  -20.9971  -28.3319   24.1380 H   0  0  0  0  0  0
  -20.5696  -26.2367   23.3619 H   0  0  0  0  0  0
  -21.6674  -26.7483   22.1199 H   0  0  0  0  0  0
  -19.6942  -25.6278   21.1285 H   0  0  0  0  0  0
  -19.6703  -27.3171   20.6727 H   0  0  0  0  0  0
  -17.4225  -26.6675   21.4012 H   0  0  0  0  0  0
  -18.0354  -26.0086   22.9014 H   0  0  0  0  0  0
  -19.7952  -30.7288   24.2240 H   0  0  0  0  0  0
  -17.5035  -31.6283   24.5171 H   0  0  0  0  0  0
  -15.5355  -30.2999   23.7673 H   0  0  0  0  0  0
  -15.8686  -28.0814   22.7106 H   0  0  0  0  0  0
  -24.5894  -30.7076   25.7682 H   0  0  0  0  0  0
  -24.8829  -32.2913   26.4727 H   0  0  0  0  0  0
  -25.7939  -30.8957   27.0206 H   0  0  0  0  0  0
  -26.2997  -29.6691   24.1283 H   0  0  0  0  0  0
  -27.4027  -29.7262   25.4849 H   0  0  0  0  0  0
  -27.8924  -30.4219   23.9594 H   0  0  0  0  0  0
  -27.2688  -33.3653   26.2012 H   0  0  0  0  0  0
  -28.3935  -32.6813   25.0352 H   0  0  0  0  0  0
  -28.0700  -31.8460   26.5462 H   0  0  0  0  0  0
  -28.2610  -38.0093   24.7553 H   0  0  0  0  0  0
  -28.1080  -36.2627   24.6258 H   0  0  0  0  0  0
  -27.2303  -37.1414   25.8875 H   0  0  0  0  0  0
  -20.9537  -29.8729   21.6753 H   0  0  0  0  0  0
  -26.0147  -38.2839   24.1407 H   0  0  0  0  0  0
  -27.3745  -22.1034   18.4890 H   0  0  0  0  0  0
  -27.0361  -19.8468   17.7347 H   0  0  0  0  0  0
  -30.0985  -20.6253   21.4791 H   0  0  0  0  0  0
  -31.1441  -22.8875   20.5090 H   0  0  0  0  0  0
  -30.7088  -24.5842   20.4138 H   0  0  0  0  0  0
  -30.5646  -23.5616   18.9884 H   0  0  0  0  0  0
  -31.8115  -18.9618   21.1681 H   0  0  0  0  0  0
  -31.8968  -17.9850   19.7080 H   0  0  0  0  0  0
  -32.1638  -17.2615   21.3008 H   0  0  0  0  0  0
  -27.6526  -16.3317   17.1027 H   0  0  0  0  0  0
  -28.0686  -17.9601   16.6073 H   0  0  0  0  0  0
  -26.5162  -17.6324   17.4206 H   0  0  0  0  0  0
  -27.0245  -24.3449   20.3657 H   0  0  0  0  0  0
  -27.9196  -24.4855   18.8939 H   0  0  0  0  0  0
  -28.9428  -23.2566   21.5480 H   0  0  0  0  0  0
  -29.8357  -17.7819   21.9069 H   0  0  0  0  0  0
  -28.7805  -15.9466   20.6483 H   0  0  0  0  0  0
  1 25  1  0  0  0
  1 30  2  0  0  0
  1 83  1  0  0  0
  2  3  1  0  0  0
  2 25  1  0  0  0
  2 85  1  0  0  0
  2 86  1  0  0  0
  3  4  1  0  0  0
  3 87  1  0  0  0
  3 88  1  0  0  0
  4  5  1  0  0  0
  4 89  1  0  0  0
  4 90  1  0  0  0
  5  6  1  0  0  0
  5 26  1  0  0  0
  5 91  1  0  0  0
  6 25  1  0  0  0
  6 92  1  0  0  0
  6 93  1  0  0  0
  7  8  2  0  0  0
  7 26  1  0  0  0
  7 29  1  0  0  0
  8  9  1  0  0  0
  8 22  1  0  0  0
  9 10  1  0  0  0
  9 27  2  0  0  0
 10 11  2  0  0  0
 10 15  1  0  0  0
 11 12  1  0  0  0
 11 94  1  0  0  0
 12 13  2  0  0  0
 12 95  1  0  0  0
 13 14  1  0  0  0
 13 31  1  0  0  0
 14 15  2  0  0  0
 14 96  1  0  0  0
 15 97  1  0  0  0
 16 17  2  0  0  0
 16 21  1  0  0  0
 16 31  1  0  0  0
 17 18  1  0  0  0
 17 98  1  0  0  0
 18 19  2  0  0  0
 18 99  1  0  0  0
 19 20  1  0  0  0
 19 24  1  0  0  0
 20 21  2  0  0  0
 20100  1  0  0  0
 21 23  1  0  0  0
 22 28  1  0  0  0
 22 32  2  0  0  0
 26 27  1  0  0  0
 28101  1  0  0  0
 28102  1  0  0  0
 29103  1  0  0  0
 29104  1  0  0  0
 33 34  1  0  0  0
 33 66  1  0  0  0
 33 70  2  0  0  0
 34 36  1  0  0  0
 34 59  1  0  0  0
 34105  1  0  0  0
 35 44  2  0  0  0
 35 45  1  0  0  0
 35 68  1  0  0  0
 36 56  1  0  0  0
 36106  1  0  0  0
 37 39  1  0  0  0
 37 47  1  0  0  0
 37 66  1  0  0  0
 37107  1  0  0  0
 38 43  2  0  0  0
 38 46  1  0  0  0
 38 47  1  0  0  0
 39 64  1  0  0  0
 39 67  2  0  0  0
 40 52  1  0  0  0
 40 53  2  0  0  0
 40 58  1  0  0  0
 41108  1  0  0  0
 41109  1  0  0  0
 41110  1  0  0  0
 41 48  1  0  0  0
 42 43  1  0  0  0
 42 66  1  0  0  0
 42111  1  0  0  0
 42112  1  0  0  0
 43 44  1  0  0  0
 44113  1  0  0  0
 45 46  2  0  0  0
 45114  1  0  0  0
 46115  1  0  0  0
 47116  1  0  0  0
 47117  1  0  0  0
 48 56  1  0  0  0
 48 65  1  0  0  0
 48118  1  0  0  0
 49 50  1  0  0  0
 49 53  1  0  0  0
 49 64  1  0  0  0
 49119  1  0  0  0
 50 51  1  0  0  0
 50120  1  0  0  0
 50121  1  0  0  0
 51 52  1  0  0  0
 51122  1  0  0  0
 51123  1  0  0  0
 52124  1  0  0  0
 52125  1  0  0  0
 53 54  1  0  0  0
 54 55  2  0  0  0
 54126  1  0  0  0
 55 57  1  0  0  0
 55127  1  0  0  0
 56 69  2  0  0  0
 57 58  2  0  0  0
 57128  1  0  0  0
 58129  1  0  0  0
 59 60  1  0  0  0
 59 61  1  0  0  0
 59 62  1  0  0  0
 60130  1  0  0  0
 60131  1  0  0  0
 60132  1  0  0  0
 61133  1  0  0  0
 61134  1  0  0  0
 61135  1  0  0  0
 62136  1  0  0  0
 62137  1  0  0  0
 62138  1  0  0  0
 63 65  1  0  0  0
 63139  1  0  0  0
 63140  1  0  0  0
 63141  1  0  0  0
 64142  1  0  0  0
 65143  1  0  0  0
 68 80  1  0  0  0
 71 72  2  0  0  0
 71 74  1  0  0  0
 71144  1  0  0  0
 72 76  1  0  0  0
 72145  1  0  0  0
 73 74  2  0  0  0
 73 75  1  0  0  0
 73146  1  0  0  0
 74 81  1  0  0  0
 75 76  2  0  0  0
 75 82  1  0  0  0
 76 84  1  0  0  0
 77147  1  0  0  0
 77148  1  0  0  0
 77149  1  0  0  0
 77 81  1  0  0  0
 78150  1  0  0  0
 78151  1  0  0  0
 78152  1  0  0  0
 78 82  1  0  0  0
 79 84  1  0  0  0
 79153  1  0  0  0
 79154  1  0  0  0
 79155  1  0  0  0
 80 81  1  0  0  0
 80156  1  0  0  0
 80157  1  0  0  0
 81158  1  0  0  0
 82 83  1  0  0  0
 82159  1  0  0  0
 83160  1  0  0  0
M  ISO  4   1 100  68 101  80 101  83 100
M  END
> <chiral flag>
0

> <version>
0

> <s_m_source_file>
/data/baiqing/PycharmProjects/Reinvent-master-3.2/result/LINK_invent/BTK/process_docking_weight1_custom_sum_contain_oxygen_bond_distance_aromatic_linkinvent_7_9_3/rearranged_h_0105.sdf

> <i_m_source_file_index>
16

> <r_mmod_Potential_Energy-OPLS-2005>
516.935363769531

> <r_mmod_Stretch_Energy-OPLS-2005>
288.541809082031

> <r_mmod_Bend_Energy-OPLS-2005>
271.166656494141

> <r_mmod_Torsional_Energy-OPLS-2005>
204.278778076172

> <r_mmod_Improper_Torsional_Energy-OPLS-2005>
4.29747533798218

> <r_mmod_Van_der_Waal_Energy-OPLS-2005>
129.299667358398

> <r_mmod_Electrostatic_Energy-OPLS-2005>
-383.250457763672

> <r_mmod_Solvation_Energy-OPLS-2005>
-203.897003173828

> <b_mmod_Minimization_Converged-OPLS-2005>
0

> <r_mmod_RMS_Derivative-OPLS-2005>
3.4049334526062

$$$$
16
                    3D
 Structure written by MMmdl.
167175  0  0  1  0            999 V2000
  -30.6281  -14.7409   20.4554 C   0  0  0  0  0  0
  -30.4233  -12.4492   19.4877 C   0  0  0  0  0  0
  -29.5074  -12.5167   18.2459 C   0  0  0  0  0  0
  -28.0340  -12.3403   18.6562 C   0  0  0  0  0  0
  -27.6415  -13.2376   19.8604 C   0  0  2  0  0  0
  -28.6846  -13.1779   20.9980 C   0  0  0  0  0  0
  -25.2484  -13.8207   20.5710 C   0  0  0  0  0  0
  -24.1780  -13.0439   20.9196 C   0  0  0  0  0  0
  -24.6393  -11.6917   20.8753 C   0  0  0  0  0  0
  -23.9077  -10.4293   21.0408 C   0  0  0  0  0  0
  -24.3620   -9.4208   21.9189 C   0  0  0  0  0  0
  -23.6290   -8.2243   22.0760 C   0  0  0  0  0  0
  -22.4273   -8.0281   21.3542 C   0  0  0  0  0  0
  -21.9919   -9.0250   20.4644 C   0  0  0  0  0  0
  -22.7250  -10.2131   20.3054 C   0  0  0  0  0  0
  -21.6855   -6.0736   22.5276 C   0  0  0  0  0  0
  -21.4015   -6.5636   23.8203 C   0  0  0  0  0  0
  -21.3660   -5.6793   24.9167 C   0  0  0  0  0  0
  -21.6042   -4.3058   24.7223 C   0  0  0  0  0  0
  -21.8817   -3.8144   23.4343 C   0  0  0  0  0  0
  -21.9189   -4.6963   22.3400 C   0  0  0  0  0  0
  -22.7796  -13.5215   21.1847 C   0  0  0  0  0  0
  -22.1659   -4.2148   21.0978 F   0  0  0  0  0  0
  -21.5632   -3.4539   25.7737 F   0  0  0  0  0  0
  -29.9883  -13.5198   20.4175 N   0  0  0  0  0  0
  -26.2932  -12.9430   20.3346 N   0  0  0  0  0  0
  -25.9334  -11.6563   20.5797 N   0  0  0  0  0  0
  -22.0454  -12.8190   22.0402 N   0  0  0  0  0  0
  -25.4137  -15.1930   20.4127 N   0  0  0  0  0  0
  -31.8104  -14.8122   20.1112 O   0  0  0  0  0  0
  -21.6636   -6.8876   21.4235 O   0  0  0  0  0  0
  -22.3481  -14.5527   20.6713 O   0  0  0  0  0  0
  -24.6326  -31.8545   23.2004 C   0  0  0  0  0  0
  -25.9149  -32.4753   23.8339 C   0  0  1  0  0  0
  -27.2133  -27.2484   20.1267 C   0  0  0  0  0  0
  -25.5935  -33.8553   24.2260 N   0  0  0  0  0  0
  -23.4285  -30.4781   21.5452 C   0  0  2  0  0  0
  -24.8750  -28.9284   20.1093 C   0  0  0  0  0  0
  -22.7510  -29.4581   22.4930 C   0  0  0  0  0  0
  -18.0285  -28.1375   22.8467 C   0  0  0  0  0  0
  -24.1485  -36.7271   23.2636 C   0  0  0  0  0  0
  -25.9756  -30.7605   21.3839 C   0  0  0  0  0  0
  -26.0459  -29.3806   20.7319 C   0  0  0  0  0  0
  -27.2136  -28.5478   20.7413 C   0  0  0  0  0  0
  -26.0250  -26.8834   19.4504 C   0  0  0  0  0  0
  -24.8703  -27.6877   19.4589 C   0  0  0  0  0  0
  -23.6467  -29.8166   20.1596 C   0  0  0  0  0  0
  -25.4109  -36.3061   24.0328 C   0  0  1  0  0  0
  -20.5889  -28.3678   23.1261 C   0  0  2  0  0  0
  -20.6778  -26.9397   22.5389 C   0  0  0  0  0  0
  -19.5758  -26.6372   21.5193 C   0  0  0  0  0  0
  -18.1931  -26.7919   22.1593 C   0  0  0  0  0  0
  -19.1541  -28.8846   23.2857 C   0  0  0  0  0  0
  -18.9470  -30.1445   23.8878 C   0  0  0  0  0  0
  -17.6473  -30.6578   24.0549 C   0  0  0  0  0  0
  -25.9057  -34.9435   23.5098 C   0  0  0  0  0  0
  -16.5361  -29.9070   23.6334 C   0  0  0  0  0  0
  -16.7272  -28.6494   23.0347 C   0  0  0  0  0  0
  -26.4522  -31.6571   25.0726 C   0  0  0  0  0  0
  -25.3728  -31.3668   26.1424 C   0  0  0  0  0  0
  -27.0399  -30.3011   24.6177 C   0  0  0  0  0  0
  -27.6066  -32.4316   25.7507 C   0  0  0  0  0  0
  -27.5573  -37.1790   24.8461 C   0  0  0  0  0  0
  -21.4215  -29.3042   22.3684 N   0  0  0  0  0  0
  -26.4273  -37.3774   23.9425 N   0  0  0  0  0  0
  -24.6986  -31.0489   22.0996 N   0  0  0  0  0  0
  -23.4212  -28.8102   23.3015 O   0  0  0  0  0  0
  -28.2901  -26.3255   20.1797 O   0  0  0  0  0  0
  -26.5632  -34.8922   22.4664 O   0  0  0  0  0  0
  -23.5476  -32.1365   23.7293 O   0  0  0  0  0  0
  -29.5388  -19.8644   19.8302 C   0  0  0  0  0  0
  -29.6512  -18.7009   20.6011 C   0  0  0  0  0  0
  -29.0995  -19.1543   21.8426 C   0  0  0  0  0  0
  -28.6539  -20.4614   21.7776 C   0  0  0  0  0  0
  -27.9504  -21.2884   22.8108 C   0  0  0  0  0  0
  -28.5493  -22.2658   18.3712 C   0  0  0  0  0  0
  -29.9440  -16.5556   24.3183 C   0  0  0  0  0  0
  -30.8899  -18.9050   24.4418 C   0  0  0  0  0  0
  -30.3133  -17.3025   20.1716 C   0  0  0  0  0  0
  -28.8485  -23.7883   20.4200 C   0  0  0  0  0  0
  -28.4092  -22.2999   19.9044 C   0  0  2  0  0  0
  -30.2144  -17.8544   23.5498 C   0  0  0  0  0  0
  -28.9102  -20.9605   20.4985 N   0  0  0  0  0  0
  -28.9706  -18.3735   22.9950 N   0  0  0  0  0  0
  -29.8925  -15.9042   20.6348 N   0  0  0  0  0  0
  -27.8270  -24.8612   20.0880 N   0  0  0  0  0  0
  -31.4682  -12.5515   19.1911 H   0  0  0  0  0  0
  -30.3477  -11.4732   19.9702 H   0  0  0  0  0  0
  -29.7905  -11.7518   17.5220 H   0  0  0  0  0  0
  -29.6345  -13.4786   17.7451 H   0  0  0  0  0  0
  -27.8920  -11.2904   18.9157 H   0  0  0  0  0  0
  -27.3765  -12.5372   17.8089 H   0  0  0  0  0  0
  -27.6345  -14.2608   19.4826 H   0  0  0  0  0  0
  -28.7132  -12.1832   21.4478 H   0  0  0  0  0  0
  -28.4239  -13.8693   21.8012 H   0  0  0  0  0  0
  -25.2761   -9.5688   22.4774 H   0  0  0  0  0  0
  -23.9991   -7.4642   22.7498 H   0  0  0  0  0  0
  -21.0844   -8.8774   19.8948 H   0  0  0  0  0  0
  -22.3710  -10.9671   19.6165 H   0  0  0  0  0  0
  -21.2006   -7.6150   23.9714 H   0  0  0  0  0  0
  -21.1487   -6.0523   25.9072 H   0  0  0  0  0  0
  -22.0595   -2.7606   23.2845 H   0  0  0  0  0  0
  -22.4068  -11.9828   22.4741 H   0  0  0  0  0  0
  -21.1087  -13.1220   22.2654 H   0  0  0  0  0  0
  -24.6453  -15.8442   20.5278 H   0  0  0  0  0  0
  -26.2678  -15.6415   20.1083 H   0  0  0  0  0  0
  -26.7203  -32.5404   23.1064 H   0  0  0  0  0  0
  -25.0138  -33.9700   25.0441 H   0  0  0  0  0  0
  -22.7249  -31.3005   21.4005 H   0  0  0  0  0  0
  -23.3772  -35.9572   23.3256 H   0  0  0  0  0  0
  -24.3582  -36.8931   22.2055 H   0  0  0  0  0  0
  -23.7208  -37.6442   23.6697 H   0  0  0  0  0  0
  -26.1088  -31.5127   20.6052 H   0  0  0  0  0  0
  -26.8583  -30.8153   22.0097 H   0  0  0  0  0  0
  -28.1057  -28.8815   21.2520 H   0  0  0  0  0  0
  -25.9540  -25.9455   18.9194 H   0  0  0  0  0  0
  -23.9791  -27.3416   18.9545 H   0  0  0  0  0  0
  -23.7723  -30.5946   19.4067 H   0  0  0  0  0  0
  -22.7646  -29.2521   19.8522 H   0  0  0  0  0  0
  -25.1278  -36.1898   25.0814 H   0  0  0  0  0  0
  -20.9958  -28.3244   24.1393 H   0  0  0  0  0  0
  -20.5667  -26.2284   23.3590 H   0  0  0  0  0  0
  -21.6650  -26.7420   22.1183 H   0  0  0  0  0  0
  -19.6930  -25.6283   21.1221 H   0  0  0  0  0  0
  -19.6702  -27.3185   20.6725 H   0  0  0  0  0  0
  -17.4199  -26.6661   21.3998 H   0  0  0  0  0  0
  -18.0324  -26.0049   22.8983 H   0  0  0  0  0  0
  -19.7945  -30.7254   24.2240 H   0  0  0  0  0  0
  -17.5027  -31.6261   24.5140 H   0  0  0  0  0  0
  -15.5364  -30.2969   23.7685 H   0  0  0  0  0  0
  -15.8668  -28.0819   22.7076 H   0  0  0  0  0  0
  -24.5979  -30.6943   25.7727 H   0  0  0  0  0  0
  -24.8846  -32.2808   26.4815 H   0  0  0  0  0  0
  -25.8040  -30.8880   27.0225 H   0  0  0  0  0  0
  -26.2992  -29.6740   24.1211 H   0  0  0  0  0  0
  -27.4140  -29.7275   25.4662 H   0  0  0  0  0  0
  -27.8823  -30.4339   23.9386 H   0  0  0  0  0  0
  -27.2700  -33.3677   26.1982 H   0  0  0  0  0  0
  -28.3944  -32.6767   25.0367 H   0  0  0  0  0  0
  -28.0660  -31.8496   26.5509 H   0  0  0  0  0  0
  -28.2537  -38.0140   24.7574 H   0  0  0  0  0  0
  -28.1127  -36.2671   24.6208 H   0  0  0  0  0  0
  -27.2301  -37.1323   25.8864 H   0  0  0  0  0  0
  -20.9422  -29.8789   21.6903 H   0  0  0  0  0  0
  -26.0135  -38.2832   24.1476 H   0  0  0  0  0  0
  -29.8384  -19.9896   18.7993 H   0  0  0  0  0  0
  -27.9762  -20.8077   23.7885 H   0  0  0  0  0  0
  -26.9042  -21.4358   22.5421 H   0  0  0  0  0  0
  -28.4162  -22.2644   22.9274 H   0  0  0  0  0  0
  -28.0760  -23.1321   17.9092 H   0  0  0  0  0  0
  -28.0744  -21.3808   17.9476 H   0  0  0  0  0  0
  -29.5978  -22.2678   18.0745 H   0  0  0  0  0  0
  -30.8681  -16.1481   24.7311 H   0  0  0  0  0  0
  -29.5167  -15.7919   23.6671 H   0  0  0  0  0  0
  -29.2529  -16.7105   25.1479 H   0  0  0  0  0  0
  -31.8272  -18.5243   24.8505 H   0  0  0  0  0  0
  -30.2576  -19.1920   25.2829 H   0  0  0  0  0  0
  -31.1296  -19.8092   23.8802 H   0  0  0  0  0  0
  -31.3757  -17.4078   20.3954 H   0  0  0  0  0  0
  -30.2664  -17.2745   19.0827 H   0  0  0  0  0  0
  -29.8053  -24.0501   19.9672 H   0  0  0  0  0  0
  -29.0146  -23.7936   21.4964 H   0  0  0  0  0  0
  -27.3357  -22.2644   20.0946 H   0  0  0  0  0  0
  -30.9079  -17.6174   22.7434 H   0  0  0  0  0  0
  -28.3685  -18.7946   23.6947 H   0  0  0  0  0  0
  -28.9335  -15.8026   20.9285 H   0  0  0  0  0  0
  -27.0335  -24.7838   20.7184 H   0  0  0  0  0  0
  1 25  1  0  0  0
  1 30  2  0  0  0
  1 85  1  0  0  0
  2  3  1  0  0  0
  2 25  1  0  0  0
  2 87  1  0  0  0
  2 88  1  0  0  0
  3  4  1  0  0  0
  3 89  1  0  0  0
  3 90  1  0  0  0
  4  5  1  0  0  0
  4 91  1  0  0  0
  4 92  1  0  0  0
  5  6  1  0  0  0
  5 26  1  0  0  0
  5 93  1  0  0  0
  6 25  1  0  0  0
  6 94  1  0  0  0
  6 95  1  0  0  0
  7  8  2  0  0  0
  7 26  1  0  0  0
  7 29  1  0  0  0
  8  9  1  0  0  0
  8 22  1  0  0  0
  9 10  1  0  0  0
  9 27  2  0  0  0
 10 11  2  0  0  0
 10 15  1  0  0  0
 11 12  1  0  0  0
 11 96  1  0  0  0
 12 13  2  0  0  0
 12 97  1  0  0  0
 13 14  1  0  0  0
 13 31  1  0  0  0
 14 15  2  0  0  0
 14 98  1  0  0  0
 15 99  1  0  0  0
 16 17  2  0  0  0
 16 21  1  0  0  0
 16 31  1  0  0  0
 17 18  1  0  0  0
 17100  1  0  0  0
 18 19  2  0  0  0
 18101  1  0  0  0
 19 20  1  0  0  0
 19 24  1  0  0  0
 20 21  2  0  0  0
 20102  1  0  0  0
 21 23  1  0  0  0
 22 28  1  0  0  0
 22 32  2  0  0  0
 26 27  1  0  0  0
 28103  1  0  0  0
 28104  1  0  0  0
 29105  1  0  0  0
 29106  1  0  0  0
 33 34  1  0  0  0
 33 66  1  0  0  0
 33 70  2  0  0  0
 34 36  1  0  0  0
 34 59  1  0  0  0
 34107  1  0  0  0
 35 44  2  0  0  0
 35 45  1  0  0  0
 35 68  1  0  0  0
 36 56  1  0  0  0
 36108  1  0  0  0
 37 39  1  0  0  0
 37 47  1  0  0  0
 37 66  1  0  0  0
 37109  1  0  0  0
 38 43  2  0  0  0
 38 46  1  0  0  0
 38 47  1  0  0  0
 39 64  1  0  0  0
 39 67  2  0  0  0
 40 52  1  0  0  0
 40 53  2  0  0  0
 40 58  1  0  0  0
 41110  1  0  0  0
 41111  1  0  0  0
 41112  1  0  0  0
 41 48  1  0  0  0
 42 43  1  0  0  0
 42 66  1  0  0  0
 42113  1  0  0  0
 42114  1  0  0  0
 43 44  1  0  0  0
 44115  1  0  0  0
 45 46  2  0  0  0
 45116  1  0  0  0
 46117  1  0  0  0
 47118  1  0  0  0
 47119  1  0  0  0
 48 56  1  0  0  0
 48 65  1  0  0  0
 48120  1  0  0  0
 49 50  1  0  0  0
 49 53  1  0  0  0
 49 64  1  0  0  0
 49121  1  0  0  0
 50 51  1  0  0  0
 50122  1  0  0  0
 50123  1  0  0  0
 51 52  1  0  0  0
 51124  1  0  0  0
 51125  1  0  0  0
 52126  1  0  0  0
 52127  1  0  0  0
 53 54  1  0  0  0
 54 55  2  0  0  0
 54128  1  0  0  0
 55 57  1  0  0  0
 55129  1  0  0  0
 56 69  2  0  0  0
 57 58  2  0  0  0
 57130  1  0  0  0
 58131  1  0  0  0
 59 60  1  0  0  0
 59 61  1  0  0  0
 59 62  1  0  0  0
 60132  1  0  0  0
 60133  1  0  0  0
 60134  1  0  0  0
 61135  1  0  0  0
 61136  1  0  0  0
 61137  1  0  0  0
 62138  1  0  0  0
 62139  1  0  0  0
 62140  1  0  0  0
 63 65  1  0  0  0
 63141  1  0  0  0
 63142  1  0  0  0
 63143  1  0  0  0
 64144  1  0  0  0
 65145  1  0  0  0
 68 86  1  0  0  0
 71 72  2  0  0  0
 71 83  1  0  0  0
 71146  1  0  0  0
 72 73  1  0  0  0
 72 79  1  0  0  0
 73 74  2  0  0  0
 73 84  1  0  0  0
 74 75  1  0  0  0
 74 83  1  0  0  0
 75147  1  0  0  0
 75148  1  0  0  0
 75149  1  0  0  0
 76150  1  0  0  0
 76151  1  0  0  0
 76152  1  0  0  0
 76 81  1  0  0  0
 77153  1  0  0  0
 77154  1  0  0  0
 77155  1  0  0  0
 77 82  1  0  0  0
 78 82  1  0  0  0
 78156  1  0  0  0
 78157  1  0  0  0
 78158  1  0  0  0
 79 85  1  0  0  0
 79159  1  0  0  0
 79160  1  0  0  0
 80 81  1  0  0  0
 80 86  1  0  0  0
 80161  1  0  0  0
 80162  1  0  0  0
 81 83  1  0  0  0
 81163  1  0  0  0
 82 84  1  0  0  0
 82164  1  0  0  0
 84165  1  0  0  0
 85166  1  0  0  0
 86167  1  0  0  0
M  ISO  4   1 100  68 101  85 100  86 101
M  END
> <chiral flag>
0

> <version>
0

> <s_m_source_file>
/data/baiqing/PycharmProjects/Reinvent-master-3.2/result/LINK_invent/BTK/process_docking_weight1_custom_sum_contain_oxygen_bond_distance_aromatic_linkinvent_7_9_3/rearranged_h_0105.sdf

> <i_m_source_file_index>
17

> <r_mmod_Potential_Energy-OPLS-2005>
102.416168212891

> <r_mmod_Stretch_Energy-OPLS-2005>
130.198486328125

> <r_mmod_Bend_Energy-OPLS-2005>
196.621597290039

> <r_mmod_Torsional_Energy-OPLS-2005>
254.670181274414

> <r_mmod_Improper_Torsional_Energy-OPLS-2005>
11.9751605987549

> <r_mmod_Van_der_Waal_Energy-OPLS-2005>
118.241333007812

> <r_mmod_Electrostatic_Energy-OPLS-2005>
-483.277770996094

> <r_mmod_Solvation_Energy-OPLS-2005>
-215.614028930664

> <b_mmod_Minimization_Converged-OPLS-2005>
0

> <r_mmod_RMS_Derivative-OPLS-2005>
1.81299102306366

$$$$
17
                    3D
 Structure written by MMmdl.
157164  0  0  1  0            999 V2000
  -30.4315  -15.2334   20.3347 C   0  0  0  0  0  0
  -30.4502  -12.7799   19.5187 C   0  0  0  0  0  0
  -29.5371  -12.5593   18.2846 C   0  0  0  0  0  0
  -28.0893  -12.2569   18.7185 C   0  0  0  0  0  0
  -27.6141  -13.2233   19.8253 C   0  0  2  0  0  0
  -28.6553  -13.3893   20.9527 C   0  0  0  0  0  0
  -25.2330  -13.8045   20.5655 C   0  0  0  0  0  0
  -24.1696  -13.0301   20.9299 C   0  0  0  0  0  0
  -24.6345  -11.6812   20.8826 C   0  0  0  0  0  0
  -23.9039  -10.4206   21.0459 C   0  0  0  0  0  0
  -24.3597   -9.4124   21.9225 C   0  0  0  0  0  0
  -23.6257   -8.2168   22.0768 C   0  0  0  0  0  0
  -22.4243   -8.0232   21.3549 C   0  0  0  0  0  0
  -21.9892   -9.0211   20.4657 C   0  0  0  0  0  0
  -22.7226  -10.2080   20.3082 C   0  0  0  0  0  0
  -21.6827   -6.0709   22.5278 C   0  0  0  0  0  0
  -21.3989   -6.5623   23.8210 C   0  0  0  0  0  0
  -21.3649   -5.6787   24.9177 C   0  0  0  0  0  0
  -21.6039   -4.3048   24.7241 C   0  0  0  0  0  0
  -21.8825   -3.8132   23.4363 C   0  0  0  0  0  0
  -21.9188   -4.6940   22.3414 C   0  0  0  0  0  0
  -22.7728  -13.5107   21.1932 C   0  0  0  0  0  0
  -22.1662   -4.2124   21.0991 F   0  0  0  0  0  0
  -21.5639   -3.4544   25.7760 F   0  0  0  0  0  0
  -29.8882  -13.9149   20.3346 N   0  0  0  0  0  0
  -26.2782  -12.9275   20.3203 N   0  0  0  0  0  0
  -25.9266  -11.6436   20.5786 N   0  0  0  0  0  0
  -22.0366  -12.8117   22.0493 N   0  0  0  0  0  0
  -25.3692  -15.1741   20.3903 N   0  0  0  0  0  0
  -31.6690  -15.2024   20.2493 O   0  0  0  0  0  0
  -21.6599   -6.8839   21.4237 O   0  0  0  0  0  0
  -22.3425  -14.5410   20.6751 O   0  0  0  0  0  0
  -24.6568  -31.8316   23.1743 C   0  0  0  0  0  0
  -25.9283  -32.4625   23.8189 C   0  0  1  0  0  0
  -27.2263  -26.9924   20.1967 C   0  0  0  0  0  0
  -25.5983  -33.8438   24.2103 N   0  0  0  0  0  0
  -23.4669  -30.4439   21.5235 C   0  0  2  0  0  0
  -24.9206  -28.8323   20.1235 C   0  0  0  0  0  0
  -22.7631  -29.4496   22.4820 C   0  0  0  0  0  0
  -18.0317  -28.1402   22.8461 C   0  0  0  0  0  0
  -24.1501  -36.7232   23.2645 C   0  0  0  0  0  0
  -26.0327  -30.6603   21.3928 C   0  0  0  0  0  0
  -26.1041  -29.2532   20.7443 C   0  0  0  0  0  0
  -27.2565  -28.3563   20.7485 C   0  0  0  0  0  0
  -26.0114  -26.6990   19.5396 C   0  0  0  0  0  0
  -24.8948  -27.5722   19.5021 C   0  0  0  0  0  0
  -23.7032  -29.7524   20.1523 C   0  0  0  0  0  0
  -25.4137  -36.2990   24.0298 C   0  0  1  0  0  0
  -20.5941  -28.3746   23.1200 C   0  0  2  0  0  0
  -20.6802  -26.9434   22.5402 C   0  0  0  0  0  0
  -19.5774  -26.6371   21.5216 C   0  0  0  0  0  0
  -18.1952  -26.7930   22.1619 C   0  0  0  0  0  0
  -19.1580  -28.8895   23.2812 C   0  0  0  0  0  0
  -18.9498  -30.1489   23.8835 C   0  0  0  0  0  0
  -17.6496  -30.6595   24.0543 C   0  0  0  0  0  0
  -25.9095  -34.9370   23.5014 C   0  0  0  0  0  0
  -16.5382  -29.9077   23.6345 C   0  0  0  0  0  0
  -16.7302  -28.6500   23.0352 C   0  0  0  0  0  0
  -26.4539  -31.6552   25.0703 C   0  0  0  0  0  0
  -25.3673  -31.3811   26.1369 C   0  0  0  0  0  0
  -27.0431  -30.2921   24.6419 C   0  0  0  0  0  0
  -27.6017  -32.4365   25.7513 C   0  0  0  0  0  0
  -27.5571  -37.1783   24.8459 C   0  0  0  0  0  0
  -21.4317  -29.3048   22.3560 N   0  0  0  0  0  0
  -26.4282  -37.3722   23.9403 N   0  0  0  0  0  0
  -24.7395  -31.0036   22.0845 N   0  0  0  0  0  0
  -23.4215  -28.8066   23.3041 O   0  0  0  0  0  0
  -28.2758  -25.9555   20.1922 O   0  0  0  0  0  0
  -26.5685  -34.8895   22.4597 O   0  0  0  0  0  0
  -23.5653  -32.1268   23.6877 O   0  0  0  0  0  0
  -27.8789  -22.5652   18.7226 C   0  0  0  0  0  0
  -30.0999  -17.0287   18.5493 C   0  0  0  0  0  0
  -29.0161  -21.2870   20.7396 C   0  0  0  0  0  0
  -29.8770  -18.4173   20.6953 C   0  0  0  0  0  0
  -28.1367  -24.3916   20.6039 C   0  0  0  0  0  0
  -28.1045  -16.6739   20.1020 C   0  0  0  0  0  0
  -28.7449  -22.8570   19.9549 C   0  0  2  0  0  0
  -29.6521  -16.7946   20.0189 C   0  0  2  0  0  0
  -29.3381  -19.8349   20.0364 N   0  3  0  0  0  0
  -27.4407  -16.4747   18.8565 O   0  0  0  0  0  0
  -31.4660  -12.9910   19.1820 H   0  0  0  0  0  0
  -30.5252  -11.8696   20.1153 H   0  0  0  0  0  0
  -29.9223  -11.7483   17.6654 H   0  0  0  0  0  0
  -29.5496  -13.4561   17.6634 H   0  0  0  0  0  0
  -28.0581  -11.2339   19.0949 H   0  0  0  0  0  0
  -27.4151  -12.2930   17.8626 H   0  0  0  0  0  0
  -27.5288  -14.1607   19.3019 H   0  0  0  0  0  0
  -28.8354  -12.4374   21.4540 H   0  0  0  0  0  0
  -28.3000  -14.0568   21.7362 H   0  0  0  0  0  0
  -25.2736   -9.5595   22.4812 H   0  0  0  0  0  0
  -23.9958   -7.4556   22.7485 H   0  0  0  0  0  0
  -21.0823   -8.8744   19.8960 H   0  0  0  0  0  0
  -22.3697  -10.9642   19.6207 H   0  0  0  0  0  0
  -21.1954   -7.6129   23.9709 H   0  0  0  0  0  0
  -21.1472   -6.0514   25.9083 H   0  0  0  0  0  0
  -22.0613   -2.7592   23.2878 H   0  0  0  0  0  0
  -22.3972  -11.9777   22.4890 H   0  0  0  0  0  0
  -21.0997  -13.1172   22.2708 H   0  0  0  0  0  0
  -24.5530  -15.7739   20.4196 H   0  0  0  0  0  0
  -26.1222  -15.5717   19.8205 H   0  0  0  0  0  0
  -26.7342  -32.5193   23.0898 H   0  0  0  0  0  0
  -25.0095  -33.9518   25.0233 H   0  0  0  0  0  0
  -22.7757  -31.2726   21.3520 H   0  0  0  0  0  0
  -23.3768  -35.9558   23.3280 H   0  0  0  0  0  0
  -24.3573  -36.8912   22.2065 H   0  0  0  0  0  0
  -23.7261  -37.6416   23.6711 H   0  0  0  0  0  0
  -26.2035  -31.4026   20.6118 H   0  0  0  0  0  0
  -26.8973  -30.7203   22.0425 H   0  0  0  0  0  0
  -28.1638  -28.6862   21.2362 H   0  0  0  0  0  0
  -25.9129  -25.7355   19.0596 H   0  0  0  0  0  0
  -23.9935  -27.2422   19.0032 H   0  0  0  0  0  0
  -23.8481  -30.5168   19.3887 H   0  0  0  0  0  0
  -22.8171  -29.1975   19.8394 H   0  0  0  0  0  0
  -25.1338  -36.1774   25.0788 H   0  0  0  0  0  0
  -21.0014  -28.3359   24.1332 H   0  0  0  0  0  0
  -20.5700  -26.2374   23.3646 H   0  0  0  0  0  0
  -21.6666  -26.7428   22.1206 H   0  0  0  0  0  0
  -19.6933  -25.6270   21.1281 H   0  0  0  0  0  0
  -19.6697  -27.3155   20.6725 H   0  0  0  0  0  0
  -17.4224  -26.6675   21.4015 H   0  0  0  0  0  0
  -18.0330  -26.0083   22.9025 H   0  0  0  0  0  0
  -19.7981  -30.7314   24.2168 H   0  0  0  0  0  0
  -17.5053  -31.6264   24.5160 H   0  0  0  0  0  0
  -15.5381  -30.2952   23.7713 H   0  0  0  0  0  0
  -15.8703  -28.0797   22.7091 H   0  0  0  0  0  0
  -24.5848  -30.7159   25.7700 H   0  0  0  0  0  0
  -24.8869  -32.3025   26.4672 H   0  0  0  0  0  0
  -25.7917  -30.9066   27.0227 H   0  0  0  0  0  0
  -26.3102  -29.6613   24.1384 H   0  0  0  0  0  0
  -27.3926  -29.7263   25.5066 H   0  0  0  0  0  0
  -27.9047  -30.4112   23.9850 H   0  0  0  0  0  0
  -27.2556  -33.3692   26.1979 H   0  0  0  0  0  0
  -28.3887  -32.6904   25.0400 H   0  0  0  0  0  0
  -28.0613  -31.8579   26.5536 H   0  0  0  0  0  0
  -28.2566  -38.0103   24.7506 H   0  0  0  0  0  0
  -28.1088  -36.2624   24.6275 H   0  0  0  0  0  0
  -27.2280  -37.1416   25.8861 H   0  0  0  0  0  0
  -20.9563  -29.8725   21.6680 H   0  0  0  0  0  0
  -26.0128  -38.2782   24.1406 H   0  0  0  0  0  0
  -28.3114  -21.7792   18.1043 H   0  0  0  0  0  0
  -27.7757  -23.4505   18.0945 H   0  0  0  0  0  0
  -26.8788  -22.2450   19.0206 H   0  0  0  0  0  0
  -29.5716  -17.8490   18.0661 H   0  0  0  0  0  0
  -29.9434  -16.1414   17.9323 H   0  0  0  0  0  0
  -31.1645  -17.2608   18.4982 H   0  0  0  0  0  0
  -28.1392  -21.0981   21.3602 H   0  0  0  0  0  0
  -29.8222  -21.4452   21.4555 H   0  0  0  0  0  0
  -30.9471  -18.5487   20.8558 H   0  0  0  0  0  0
  -29.4716  -18.3942   21.7078 H   0  0  0  0  0  0
  -28.5314  -24.4024   21.6211 H   0  0  0  0  0  0
  -27.0684  -24.2366   20.7563 H   0  0  0  0  0  0
  -27.6514  -17.5678   20.5315 H   0  0  0  0  0  0
  -27.8284  -15.9087   20.8167 H   0  0  0  0  0  0
  -29.7316  -23.1225   19.5743 H   0  0  0  0  0  0
  -30.0016  -20.0461   19.3085 H   0  0  0  0  0  0
  -28.4819  -19.6028   19.5623 H   0  0  0  0  0  0
  -27.6887  -17.1673   18.2540 H   0  0  0  0  0  0
  1 25  1  0  0  0
  1 30  2  0  0  0
  1 78  1  0  0  0
  2  3  1  0  0  0
  2 25  1  0  0  0
  2 81  1  0  0  0
  2 82  1  0  0  0
  3  4  1  0  0  0
  3 83  1  0  0  0
  3 84  1  0  0  0
  4  5  1  0  0  0
  4 85  1  0  0  0
  4 86  1  0  0  0
  5  6  1  0  0  0
  5 26  1  0  0  0
  5 87  1  0  0  0
  6 25  1  0  0  0
  6 88  1  0  0  0
  6 89  1  0  0  0
  7  8  2  0  0  0
  7 26  1  0  0  0
  7 29  1  0  0  0
  8  9  1  0  0  0
  8 22  1  0  0  0
  9 10  1  0  0  0
  9 27  2  0  0  0
 10 11  2  0  0  0
 10 15  1  0  0  0
 11 12  1  0  0  0
 11 90  1  0  0  0
 12 13  2  0  0  0
 12 91  1  0  0  0
 13 14  1  0  0  0
 13 31  1  0  0  0
 14 15  2  0  0  0
 14 92  1  0  0  0
 15 93  1  0  0  0
 16 17  2  0  0  0
 16 21  1  0  0  0
 16 31  1  0  0  0
 17 18  1  0  0  0
 17 94  1  0  0  0
 18 19  2  0  0  0
 18 95  1  0  0  0
 19 20  1  0  0  0
 19 24  1  0  0  0
 20 21  2  0  0  0
 20 96  1  0  0  0
 21 23  1  0  0  0
 22 28  1  0  0  0
 22 32  2  0  0  0
 26 27  1  0  0  0
 28 97  1  0  0  0
 28 98  1  0  0  0
 29 99  1  0  0  0
 29100  1  0  0  0
 33 34  1  0  0  0
 33 66  1  0  0  0
 33 70  2  0  0  0
 34 36  1  0  0  0
 34 59  1  0  0  0
 34101  1  0  0  0
 35 44  2  0  0  0
 35 45  1  0  0  0
 35 68  1  0  0  0
 36 56  1  0  0  0
 36102  1  0  0  0
 37 39  1  0  0  0
 37 47  1  0  0  0
 37 66  1  0  0  0
 37103  1  0  0  0
 38 43  2  0  0  0
 38 46  1  0  0  0
 38 47  1  0  0  0
 39 64  1  0  0  0
 39 67  2  0  0  0
 40 52  1  0  0  0
 40 53  2  0  0  0
 40 58  1  0  0  0
 41104  1  0  0  0
 41105  1  0  0  0
 41106  1  0  0  0
 41 48  1  0  0  0
 42 43  1  0  0  0
 42 66  1  0  0  0
 42107  1  0  0  0
 42108  1  0  0  0
 43 44  1  0  0  0
 44109  1  0  0  0
 45 46  2  0  0  0
 45110  1  0  0  0
 46111  1  0  0  0
 47112  1  0  0  0
 47113  1  0  0  0
 48 56  1  0  0  0
 48 65  1  0  0  0
 48114  1  0  0  0
 49 50  1  0  0  0
 49 53  1  0  0  0
 49 64  1  0  0  0
 49115  1  0  0  0
 50 51  1  0  0  0
 50116  1  0  0  0
 50117  1  0  0  0
 51 52  1  0  0  0
 51118  1  0  0  0
 51119  1  0  0  0
 52120  1  0  0  0
 52121  1  0  0  0
 53 54  1  0  0  0
 54 55  2  0  0  0
 54122  1  0  0  0
 55 57  1  0  0  0
 55123  1  0  0  0
 56 69  2  0  0  0
 57 58  2  0  0  0
 57124  1  0  0  0
 58125  1  0  0  0
 59 60  1  0  0  0
 59 61  1  0  0  0
 59 62  1  0  0  0
 60126  1  0  0  0
 60127  1  0  0  0
 60128  1  0  0  0
 61129  1  0  0  0
 61130  1  0  0  0
 61131  1  0  0  0
 62132  1  0  0  0
 62133  1  0  0  0
 62134  1  0  0  0
 63 65  1  0  0  0
 63135  1  0  0  0
 63136  1  0  0  0
 63137  1  0  0  0
 64138  1  0  0  0
 65139  1  0  0  0
 68 75  1  0  0  0
 71140  1  0  0  0
 71141  1  0  0  0
 71142  1  0  0  0
 71 77  1  0  0  0
 72143  1  0  0  0
 72144  1  0  0  0
 72145  1  0  0  0
 72 78  1  0  0  0
 73 77  1  0  0  0
 73 79  1  0  0  0
 73146  1  0  0  0
 73147  1  0  0  0
 74 78  1  0  0  0
 74 79  1  0  0  0
 74148  1  0  0  0
 74149  1  0  0  0
 75 77  1  0  0  0
 75150  1  0  0  0
 75151  1  0  0  0
 76 78  1  0  0  0
 76 80  1  0  0  0
 76152  1  0  0  0
 76153  1  0  0  0
 77154  1  0  0  0
 79155  1  0  0  0
 79156  1  0  0  0
 80157  1  0  0  0
M  CHG  1  79   1
M  ISO  4   1 100  68 101  75 101  78 100
M  END
> <chiral flag>
0

> <version>
0

> <s_m_source_file>
/data/baiqing/PycharmProjects/Reinvent-master-3.2/result/LINK_invent/BTK/process_docking_weight1_custom_sum_contain_oxygen_bond_distance_aromatic_linkinvent_7_9_3/rearranged_h_0105.sdf

> <i_m_source_file_index>
18

> <r_mmod_Potential_Energy-OPLS-2005>
1101.41418457031

> <r_mmod_Stretch_Energy-OPLS-2005>
543.515747070312

> <r_mmod_Bend_Energy-OPLS-2005>
428.777526855469

> <r_mmod_Torsional_Energy-OPLS-2005>
270.173095703125

> <r_mmod_Improper_Torsional_Energy-OPLS-2005>
12.3816356658936

> <r_mmod_Van_der_Waal_Energy-OPLS-2005>
128.020980834961

> <r_mmod_Electrostatic_Energy-OPLS-2005>
-190.994216918945

> <r_mmod_Solvation_Energy-OPLS-2005>
-479.832550048828

> <b_mmod_Minimization_Converged-OPLS-2005>
0

> <r_mmod_RMS_Derivative-OPLS-2005>
1.92351293563843

$$$$
18
                    3D
 Structure written by MMmdl.
163171  0  0  1  0            999 V2000
  -30.6610  -14.4809   20.6041 C   0  0  0  0  0  0
  -30.4419  -12.3161   19.4263 C   0  0  0  0  0  0
  -29.5061  -12.5205   18.2138 C   0  0  0  0  0  0
  -28.0251  -12.3760   18.6197 C   0  0  0  0  0  0
  -27.6719  -13.1973   19.8876 C   0  0  2  0  0  0
  -28.7098  -12.9368   21.0044 C   0  0  0  0  0  0
  -25.2637  -13.8132   20.5664 C   0  0  0  0  0  0
  -24.1864  -13.0431   20.9149 C   0  0  0  0  0  0
  -24.6402  -11.6893   20.8715 C   0  0  0  0  0  0
  -23.9054  -10.4291   21.0392 C   0  0  0  0  0  0
  -24.3605   -9.4212   21.9179 C   0  0  0  0  0  0
  -23.6292   -8.2241   22.0753 C   0  0  0  0  0  0
  -22.4275   -8.0271   21.3541 C   0  0  0  0  0  0
  -21.9901   -9.0241   20.4642 C   0  0  0  0  0  0
  -22.7222  -10.2125   20.3047 C   0  0  0  0  0  0
  -21.6850   -6.0731   22.5284 C   0  0  0  0  0  0
  -21.4007   -6.5640   23.8215 C   0  0  0  0  0  0
  -21.3660   -5.6796   24.9178 C   0  0  0  0  0  0
  -21.6043   -4.3058   24.7232 C   0  0  0  0  0  0
  -21.8821   -3.8147   23.4356 C   0  0  0  0  0  0
  -21.9194   -4.6959   22.3409 C   0  0  0  0  0  0
  -22.7894  -13.5243   21.1825 C   0  0  0  0  0  0
  -22.1666   -4.2141   21.0988 F   0  0  0  0  0  0
  -21.5630   -3.4544   25.7747 F   0  0  0  0  0  0
  -30.0479  -13.2707   20.4749 N   0  0  0  0  0  0
  -26.3076  -12.9285   20.3394 N   0  0  0  0  0  0
  -25.9329  -11.6451   20.5754 N   0  0  0  0  0  0
  -22.0531  -12.8232   22.0377 N   0  0  0  0  0  0
  -25.4388  -15.1847   20.4071 N   0  0  0  0  0  0
  -31.7241  -14.7660   20.0442 O   0  0  0  0  0  0
  -21.6640   -6.8869   21.4242 O   0  0  0  0  0  0
  -22.3585  -14.5556   20.6689 O   0  0  0  0  0  0
  -24.6162  -31.8662   23.2091 C   0  0  0  0  0  0
  -25.9054  -32.4810   23.8393 C   0  0  1  0  0  0
  -27.2378  -27.4287   20.1019 C   0  0  0  0  0  0
  -25.5906  -33.8607   24.2328 N   0  0  0  0  0  0
  -23.4047  -30.4884   21.5496 C   0  0  2  0  0  0
  -24.8539  -28.9500   20.1165 C   0  0  0  0  0  0
  -22.7419  -29.4654   22.4996 C   0  0  0  0  0  0
  -18.0272  -28.1382   22.8496 C   0  0  0  0  0  0
  -24.1478  -36.7299   23.2643 C   0  0  0  0  0  0
  -25.9340  -30.8304   21.3623 C   0  0  0  0  0  0
  -26.0143  -29.4632   20.7118 C   0  0  0  0  0  0
  -27.2126  -28.7110   20.6985 C   0  0  0  0  0  0
  -26.0639  -26.9269   19.5047 C   0  0  0  0  0  0
  -24.8739  -27.6819   19.5083 C   0  0  0  0  0  0
  -23.6147  -29.8169   20.1651 C   0  0  0  0  0  0
  -25.4102  -36.3099   24.0343 C   0  0  1  0  0  0
  -20.5864  -28.3666   23.1325 C   0  0  2  0  0  0
  -20.6763  -26.9402   22.5424 C   0  0  0  0  0  0
  -19.5743  -26.6388   21.5221 C   0  0  0  0  0  0
  -18.1919  -26.7932   22.1626 C   0  0  0  0  0  0
  -19.1521  -28.8842   23.2904 C   0  0  0  0  0  0
  -18.9452  -30.1452   23.8909 C   0  0  0  0  0  0
  -17.6454  -30.6588   24.0570 C   0  0  0  0  0  0
  -25.9033  -34.9471   23.5131 C   0  0  0  0  0  0
  -16.5341  -29.9091   23.6336 C   0  0  0  0  0  0
  -16.7261  -28.6509   23.0350 C   0  0  0  0  0  0
  -26.4487  -31.6590   25.0721 C   0  0  0  0  0  0
  -25.3760  -31.3687   26.1472 C   0  0  0  0  0  0
  -27.0321  -30.3035   24.6090 C   0  0  0  0  0  0
  -27.6065  -32.4307   25.7475 C   0  0  0  0  0  0
  -27.5570  -37.1800   24.8472 C   0  0  0  0  0  0
  -21.4145  -29.3027   22.3733 N   0  0  0  0  0  0
  -26.4282  -37.3788   23.9417 N   0  0  0  0  0  0
  -24.6698  -31.0760   22.0990 N   0  0  0  0  0  0
  -23.4186  -28.8206   23.3049 O   0  0  0  0  0  0
  -28.3883  -26.6702   20.0781 O   0  0  0  0  0  0
  -26.5588  -34.8926   22.4686 O   0  0  0  0  0  0
  -23.5354  -32.1410   23.7489 O   0  0  0  0  0  0
  -30.5768  -19.9860   22.2406 C   0  0  0  0  0  0
  -30.2006  -21.3403   22.3465 C   0  0  0  0  0  0
  -29.5420  -21.3441   20.0208 C   0  0  0  0  0  0
  -30.4380  -19.2761   21.0272 C   0  0  0  0  0  0
  -29.9110  -19.9738   19.8983 C   0  0  0  0  0  0
  -29.6762  -22.0430   21.2453 C   0  0  0  0  0  0
  -30.4569  -19.9981   17.4139 C   0  0  0  0  0  0
  -28.2043  -19.1460   18.2278 C   0  0  0  0  0  0
  -30.8702  -17.7924   21.0081 C   0  0  0  0  0  0
  -29.6764  -16.8073   21.0018 C   0  0  0  0  0  0
  -28.3939  -25.5571   20.9912 C   0  0  0  0  0  0
  -28.8975  -24.2154   20.3895 C   0  0  0  0  0  0
  -29.7014  -19.2861   18.5471 C   0  0  0  0  0  0
  -29.9383  -15.3845   21.2921 N   0  0  0  0  0  0
  -29.3177  -23.3639   21.4659 O   0  0  0  0  0  0
  -31.4844  -12.4420   19.1270 H   0  0  0  0  0  0
  -30.3638  -11.2957   19.8050 H   0  0  0  0  0  0
  -29.7489  -11.8039   17.4281 H   0  0  0  0  0  0
  -29.6731  -13.5106   17.7864 H   0  0  0  0  0  0
  -27.8317  -11.3180   18.7998 H   0  0  0  0  0  0
  -27.3777  -12.6656   17.7912 H   0  0  0  0  0  0
  -27.7292  -14.2506   19.6139 H   0  0  0  0  0  0
  -28.6890  -11.8868   21.3001 H   0  0  0  0  0  0
  -28.4531  -13.4873   21.9100 H   0  0  0  0  0  0
  -25.2747   -9.5694   22.4754 H   0  0  0  0  0  0
  -24.0002   -7.4635   22.7478 H   0  0  0  0  0  0
  -21.0829   -8.8753   19.8954 H   0  0  0  0  0  0
  -22.3676  -10.9656   19.6154 H   0  0  0  0  0  0
  -21.1992   -7.6148   23.9712 H   0  0  0  0  0  0
  -21.1478   -6.0528   25.9079 H   0  0  0  0  0  0
  -22.0599   -2.7607   23.2861 H   0  0  0  0  0  0
  -22.4137  -11.9873   22.4736 H   0  0  0  0  0  0
  -21.1153  -13.1260   22.2587 H   0  0  0  0  0  0
  -24.6744  -15.8436   20.5069 H   0  0  0  0  0  0
  -26.2985  -15.6195   20.0974 H   0  0  0  0  0  0
  -26.7125  -32.5520   23.1158 H   0  0  0  0  0  0
  -25.0092  -33.9770   25.0496 H   0  0  0  0  0  0
  -22.6943  -31.3059   21.4095 H   0  0  0  0  0  0
  -23.3741  -35.9630   23.3320 H   0  0  0  0  0  0
  -24.3576  -36.8890   22.2054 H   0  0  0  0  0  0
  -23.7229  -37.6509   23.6642 H   0  0  0  0  0  0
  -26.0468  -31.5956   20.5933 H   0  0  0  0  0  0
  -26.8222  -30.8847   21.9803 H   0  0  0  0  0  0
  -28.1106  -29.1057   21.1529 H   0  0  0  0  0  0
  -26.0713  -25.9523   19.0364 H   0  0  0  0  0  0
  -23.9833  -27.2824   19.0435 H   0  0  0  0  0  0
  -23.7220  -30.5900   19.4036 H   0  0  0  0  0  0
  -22.7393  -29.2355   19.8695 H   0  0  0  0  0  0
  -25.1278  -36.1957   25.0834 H   0  0  0  0  0  0
  -20.9954  -28.3219   24.1446 H   0  0  0  0  0  0
  -20.5678  -26.2264   23.3606 H   0  0  0  0  0  0
  -21.6631  -26.7452   22.1206 H   0  0  0  0  0  0
  -19.6897  -25.6304   21.1237 H   0  0  0  0  0  0
  -19.6682  -27.3214   20.6765 H   0  0  0  0  0  0
  -17.4191  -26.6692   21.4022 H   0  0  0  0  0  0
  -18.0308  -26.0074   22.9018 H   0  0  0  0  0  0
  -19.7926  -30.7266   24.2279 H   0  0  0  0  0  0
  -17.5009  -31.6272   24.5160 H   0  0  0  0  0  0
  -15.5341  -30.2993   23.7665 H   0  0  0  0  0  0
  -15.8660  -28.0839   22.7052 H   0  0  0  0  0  0
  -24.5932  -30.7035   25.7812 H   0  0  0  0  0  0
  -24.8959  -32.2841   26.4945 H   0  0  0  0  0  0
  -25.8125  -30.8841   27.0215 H   0  0  0  0  0  0
  -26.2857  -29.6784   24.1175 H   0  0  0  0  0  0
  -27.4132  -29.7281   25.4537 H   0  0  0  0  0  0
  -27.8677  -30.4368   23.9217 H   0  0  0  0  0  0
  -27.2694  -33.3609   26.2067 H   0  0  0  0  0  0
  -28.3866  -32.6857   25.0288 H   0  0  0  0  0  0
  -28.0746  -31.8421   26.5377 H   0  0  0  0  0  0
  -28.2599  -38.0084   24.7501 H   0  0  0  0  0  0
  -28.1045  -36.2614   24.6310 H   0  0  0  0  0  0
  -27.2290  -37.1465   25.8876 H   0  0  0  0  0  0
  -20.9312  -29.8732   21.6935 H   0  0  0  0  0  0
  -26.0168  -38.2860   24.1422 H   0  0  0  0  0  0
  -30.9754  -19.4906   23.1149 H   0  0  0  0  0  0
  -30.3168  -21.8487   23.2936 H   0  0  0  0  0  0
  -29.1376  -21.8519   19.1584 H   0  0  0  0  0  0
  -31.5223  -20.0641   17.6368 H   0  0  0  0  0  0
  -30.0876  -21.0093   17.2447 H   0  0  0  0  0  0
  -30.3543  -19.4537   16.4744 H   0  0  0  0  0  0
  -27.6812  -18.6098   19.0202 H   0  0  0  0  0  0
  -28.0490  -18.5928   17.3012 H   0  0  0  0  0  0
  -27.7223  -20.1170   18.1159 H   0  0  0  0  0  0
  -31.4825  -17.5971   21.8895 H   0  0  0  0  0  0
  -31.5291  -17.6111   20.1593 H   0  0  0  0  0  0
  -29.1338  -16.8685   20.0587 H   0  0  0  0  0  0
  -28.9675  -17.1372   21.7623 H   0  0  0  0  0  0
  -29.0598  -25.8445   21.8052 H   0  0  0  0  0  0
  -27.4177  -25.3967   21.4543 H   0  0  0  0  0  0
  -29.7474  -24.3931   19.7294 H   0  0  0  0  0  0
  -28.1037  -23.7576   19.7988 H   0  0  0  0  0  0
  -30.1092  -18.2791   18.5794 H   0  0  0  0  0  0
  -29.1987  -14.9496   21.8239 H   0  0  0  0  0  0
  1 25  1  0  0  0
  1 30  2  0  0  0
  1 84  1  0  0  0
  2  3  1  0  0  0
  2 25  1  0  0  0
  2 86  1  0  0  0
  2 87  1  0  0  0
  3  4  1  0  0  0
  3 88  1  0  0  0
  3 89  1  0  0  0
  4  5  1  0  0  0
  4 90  1  0  0  0
  4 91  1  0  0  0
  5  6  1  0  0  0
  5 26  1  0  0  0
  5 92  1  0  0  0
  6 25  1  0  0  0
  6 93  1  0  0  0
  6 94  1  0  0  0
  7  8  2  0  0  0
  7 26  1  0  0  0
  7 29  1  0  0  0
  8  9  1  0  0  0
  8 22  1  0  0  0
  9 10  1  0  0  0
  9 27  2  0  0  0
 10 11  2  0  0  0
 10 15  1  0  0  0
 11 12  1  0  0  0
 11 95  1  0  0  0
 12 13  2  0  0  0
 12 96  1  0  0  0
 13 14  1  0  0  0
 13 31  1  0  0  0
 14 15  2  0  0  0
 14 97  1  0  0  0
 15 98  1  0  0  0
 16 17  2  0  0  0
 16 21  1  0  0  0
 16 31  1  0  0  0
 17 18  1  0  0  0
 17 99  1  0  0  0
 18 19  2  0  0  0
 18100  1  0  0  0
 19 20  1  0  0  0
 19 24  1  0  0  0
 20 21  2  0  0  0
 20101  1  0  0  0
 21 23  1  0  0  0
 22 28  1  0  0  0
 22 32  2  0  0  0
 26 27  1  0  0  0
 28102  1  0  0  0
 28103  1  0  0  0
 29104  1  0  0  0
 29105  1  0  0  0
 33 34  1  0  0  0
 33 66  1  0  0  0
 33 70  2  0  0  0
 34 36  1  0  0  0
 34 59  1  0  0  0
 34106  1  0  0  0
 35 44  2  0  0  0
 35 45  1  0  0  0
 35 68  1  0  0  0
 36 56  1  0  0  0
 36107  1  0  0  0
 37 39  1  0  0  0
 37 47  1  0  0  0
 37 66  1  0  0  0
 37108  1  0  0  0
 38 43  2  0  0  0
 38 46  1  0  0  0
 38 47  1  0  0  0
 39 64  1  0  0  0
 39 67  2  0  0  0
 40 52  1  0  0  0
 40 53  2  0  0  0
 40 58  1  0  0  0
 41109  1  0  0  0
 41110  1  0  0  0
 41111  1  0  0  0
 41 48  1  0  0  0
 42 43  1  0  0  0
 42 66  1  0  0  0
 42112  1  0  0  0
 42113  1  0  0  0
 43 44  1  0  0  0
 44114  1  0  0  0
 45 46  2  0  0  0
 45115  1  0  0  0
 46116  1  0  0  0
 47117  1  0  0  0
 47118  1  0  0  0
 48 56  1  0  0  0
 48 65  1  0  0  0
 48119  1  0  0  0
 49 50  1  0  0  0
 49 53  1  0  0  0
 49 64  1  0  0  0
 49120  1  0  0  0
 50 51  1  0  0  0
 50121  1  0  0  0
 50122  1  0  0  0
 51 52  1  0  0  0
 51123  1  0  0  0
 51124  1  0  0  0
 52125  1  0  0  0
 52126  1  0  0  0
 53 54  1  0  0  0
 54 55  2  0  0  0
 54127  1  0  0  0
 55 57  1  0  0  0
 55128  1  0  0  0
 56 69  2  0  0  0
 57 58  2  0  0  0
 57129  1  0  0  0
 58130  1  0  0  0
 59 60  1  0  0  0
 59 61  1  0  0  0
 59 62  1  0  0  0
 60131  1  0  0  0
 60132  1  0  0  0
 60133  1  0  0  0
 61134  1  0  0  0
 61135  1  0  0  0
 61136  1  0  0  0
 62137  1  0  0  0
 62138  1  0  0  0
 62139  1  0  0  0
 63 65  1  0  0  0
 63140  1  0  0  0
 63141  1  0  0  0
 63142  1  0  0  0
 64143  1  0  0  0
 65144  1  0  0  0
 68 81  1  0  0  0
 71 72  2  0  0  0
 71 74  1  0  0  0
 71145  1  0  0  0
 72 76  1  0  0  0
 72146  1  0  0  0
 73 75  1  0  0  0
 73 76  2  0  0  0
 73147  1  0  0  0
 74 75  2  0  0  0
 74 79  1  0  0  0
 75 83  1  0  0  0
 76 85  1  0  0  0
 77148  1  0  0  0
 77149  1  0  0  0
 77150  1  0  0  0
 77 83  1  0  0  0
 78 83  1  0  0  0
 78151  1  0  0  0
 78152  1  0  0  0
 78153  1  0  0  0
 79 80  1  0  0  0
 79154  1  0  0  0
 79155  1  0  0  0
 80 84  1  0  0  0
 80156  1  0  0  0
 80157  1  0  0  0
 81 82  1  0  0  0
 81158  1  0  0  0
 81159  1  0  0  0
 82 85  1  0  0  0
 82160  1  0  0  0
 82161  1  0  0  0
 83162  1  0  0  0
 84163  1  0  0  0
M  ISO  4   1 100  68 101  81 101  84 100
M  END
> <chiral flag>
0

> <version>
0

> <s_m_source_file>
/data/baiqing/PycharmProjects/Reinvent-master-3.2/result/LINK_invent/BTK/process_docking_weight1_custom_sum_contain_oxygen_bond_distance_aromatic_linkinvent_7_9_3/rearranged_h_0105.sdf

> <i_m_source_file_index>
19

> <r_mmod_Potential_Energy-OPLS-2005>
-51.2218246459961

> <r_mmod_Stretch_Energy-OPLS-2005>
42.122257232666

> <r_mmod_Bend_Energy-OPLS-2005>
116.613342285156

> <r_mmod_Torsional_Energy-OPLS-2005>
235.511489868164

> <r_mmod_Improper_Torsional_Energy-OPLS-2005>
5.0471978187561

> <r_mmod_Van_der_Waal_Energy-OPLS-2005>
145.774688720703

> <r_mmod_Electrostatic_Energy-OPLS-2005>
-400.729858398438

> <r_mmod_Solvation_Energy-OPLS-2005>
-209.189956665039

> <b_mmod_Minimization_Converged-OPLS-2005>
0

> <r_mmod_RMS_Derivative-OPLS-2005>
1.0890702009201

$$$$
19
                    3D
 Structure written by MMmdl.
168176  0  0  1  0            999 V2000
  -29.8361  -14.5374   19.1942 C   0  0  0  0  0  0
  -30.9984  -12.5209   19.3816 C   0  0  0  0  0  0
  -30.0166  -11.9776   18.3751 C   0  0  0  0  0  0
  -28.8362  -11.8172   19.2956 C   0  0  0  0  0  0
  -28.3885  -13.0108   20.5957 C   0  0  2  0  0  0
  -29.5891  -13.2635   21.2919 C   0  0  0  0  0  0
  -25.4724  -14.4082   20.1208 C   0  0  0  0  0  0
  -24.0990  -13.5354   20.5261 C   0  0  0  0  0  0
  -24.1678  -12.1570   21.2966 C   0  0  0  0  0  0
  -23.6082  -10.7189   21.2188 C   0  0  0  0  0  0
  -24.1452   -9.6466   22.0181 C   0  0  0  0  0  0
  -23.5704   -8.3545   22.0744 C   0  0  0  0  0  0
  -22.4095   -8.0825   21.3254 C   0  0  0  0  0  0
  -21.9490   -9.0749   20.4364 C   0  0  0  0  0  0
  -22.5510  -10.3546   20.3608 C   0  0  0  0  0  0
  -21.7092   -6.0870   22.5043 C   0  0  0  0  0  0
  -21.4160   -6.5785   23.7973 C   0  0  0  0  0  0
  -21.3647   -5.6963   24.8977 C   0  0  0  0  0  0
  -21.5998   -4.3196   24.7130 C   0  0  0  0  0  0
  -21.8823   -3.8251   23.4280 C   0  0  0  0  0  0
  -21.9293   -4.7036   22.3303 C   0  0  0  0  0  0
  -22.6948  -13.9869   20.8338 C   0  0  0  0  0  0
  -22.1763   -4.2127   21.0918 F   0  0  0  0  0  0
  -21.5540   -3.4700   25.7663 F   0  0  0  0  0  0
  -30.3054  -13.6051   20.0774 N   0  0  0  0  0  0
  -27.0685  -13.6017   20.9492 N   0  0  0  0  0  0
  -25.3781  -12.0538   21.8666 N   0  0  0  0  0  0
  -21.9251  -13.2855   21.7072 N   0  0  0  0  0  0
  -25.5635  -15.6516   19.5887 N   0  0  0  0  0  0
  -30.7675  -15.3581   19.1024 O   0  0  0  0  0  0
  -21.7089   -6.8939   21.3857 O   0  0  0  0  0  0
  -22.2563  -15.0032   20.3553 O   0  0  0  0  0  0
  -24.6860  -31.7969   23.1578 C   0  0  0  0  0  0
  -25.9458  -32.4410   23.8080 C   0  0  1  0  0  0
  -26.8045  -26.4378   20.4687 C   0  0  0  0  0  0
  -25.6038  -33.8257   24.1941 N   0  0  0  0  0  0
  -23.4987  -30.4206   21.5133 C   0  0  2  0  0  0
  -24.9005  -28.7481   20.1111 C   0  0  0  0  0  0
  -22.7719  -29.4326   22.4676 C   0  0  0  0  0  0
  -18.0323  -28.1419   22.8452 C   0  0  0  0  0  0
  -24.1505  -36.7102   23.2654 C   0  0  0  0  0  0
  -26.0777  -30.4481   21.4624 C   0  0  0  0  0  0
  -26.0665  -28.9932   20.8420 C   0  0  0  0  0  0
  -27.0348  -27.8586   20.9820 C   0  0  0  0  0  0
  -25.7408  -26.4857   19.5503 C   0  0  0  0  0  0
  -24.8072  -27.5428   19.4063 C   0  0  0  0  0  0
  -23.7467  -29.7555   20.1299 C   0  0  0  0  0  0
  -25.4166  -36.2869   24.0281 C   0  0  1  0  0  0
  -20.5958  -28.3767   23.1138 C   0  0  2  0  0  0
  -20.6795  -26.9429   22.5400 C   0  0  0  0  0  0
  -19.5767  -26.6370   21.5216 C   0  0  0  0  0  0
  -18.1950  -26.7946   22.1621 C   0  0  0  0  0  0
  -19.1590  -28.8919   23.2779 C   0  0  0  0  0  0
  -18.9498  -30.1505   23.8825 C   0  0  0  0  0  0
  -17.6487  -30.6602   24.0551 C   0  0  0  0  0  0
  -25.9157  -34.9257   23.4953 C   0  0  0  0  0  0
  -16.5376  -29.9085   23.6352 C   0  0  0  0  0  0
  -16.7304  -28.6509   23.0365 C   0  0  0  0  0  0
  -26.4614  -31.6479   25.0734 C   0  0  0  0  0  0
  -25.3643  -31.3779   26.1306 C   0  0  0  0  0  0
  -27.0582  -30.2804   24.6762 C   0  0  0  0  0  0
  -27.6061  -32.4371   25.7514 C   0  0  0  0  0  0
  -27.5575  -37.1719   24.8475 C   0  0  0  0  0  0
  -21.4377  -29.3005   22.3437 N   0  0  0  0  0  0
  -26.4286  -37.3640   23.9406 N   0  0  0  0  0  0
  -24.7813  -30.9323   22.0916 N   0  0  0  0  0  0
  -23.4180  -28.7906   23.2997 O   0  0  0  0  0  0
  -27.4282  -25.0033   20.6457 O   0  0  0  0  0  0
  -26.5807  -34.8840   22.4578 O   0  0  0  0  0  0
  -23.5884  -32.1160   23.6476 O   0  0  0  0  0  0
  -26.6605  -13.4334   23.3582 C   0  0  0  0  0  0
  -27.4890  -12.0498   23.0597 C   0  0  0  0  0  0
  -25.5993  -14.1345   22.3249 C   0  0  0  0  0  0
  -27.4770  -10.9516   21.8126 C   0  0  0  0  0  0
  -26.0157  -12.2379   19.8164 C   0  0  0  0  0  0
  -28.3906  -11.7406   24.2482 C   0  0  0  0  0  0
  -29.6248   -9.4455   21.9698 C   0  0  0  0  0  0
  -27.4417   -8.4156   21.2577 C   0  0  0  0  0  0
  -26.9697  -13.2326   18.4176 C   0  0  0  0  0  0
  -26.2716  -21.3967   21.3211 C   0  0  0  0  0  0
  -26.5692  -19.3694   21.4797 C   0  0  0  0  0  0
  -26.9758  -23.3349   21.3333 C   0  0  0  0  0  0
  -26.1581  -17.5213   22.2994 C   0  0  0  0  0  0
  -28.0871   -9.5517   22.0827 C   0  0  0  0  0  0
  -26.7953  -10.9868   20.3858 N   0  0  0  0  0  0
  -28.4427  -14.3318   18.4781 N   0  0  0  0  0  0
  -25.4430  -15.8220   22.2117 O   0  0  0  0  0  0
  -31.8984  -12.8873   18.8825 H   0  0  0  0  0  0
  -31.3361  -11.7477   20.0750 H   0  0  0  0  0  0
  -30.3623  -11.0098   18.0046 H   0  0  0  0  0  0
  -29.8598  -12.5781   17.4783 H   0  0  0  0  0  0
  -29.1806  -10.9717   19.8694 H   0  0  0  0  0  0
  -28.1683  -11.2641   18.6389 H   0  0  0  0  0  0
  -28.2173  -14.0888   20.6502 H   0  0  0  0  0  0
  -30.0002  -12.3759   21.7687 H   0  0  0  0  0  0
  -29.5791  -14.0745   22.0267 H   0  0  0  0  0  0
  -24.9858   -9.8192   22.6746 H   0  0  0  0  0  0
  -23.9953   -7.6088   22.7318 H   0  0  0  0  0  0
  -21.0852   -8.8651   19.8211 H   0  0  0  0  0  0
  -22.1267  -11.0955   19.6989 H   0  0  0  0  0  0
  -21.2227   -7.6313   23.9441 H   0  0  0  0  0  0
  -21.1381   -6.0751   25.8836 H   0  0  0  0  0  0
  -22.0572   -2.7704   23.2819 H   0  0  0  0  0  0
  -22.2484  -12.4467   22.1628 H   0  0  0  0  0  0
  -20.9960  -13.6176   21.9218 H   0  0  0  0  0  0
  -24.7330  -16.2120   19.4414 H   0  0  0  0  0  0
  -26.3931  -16.2138   19.7238 H   0  0  0  0  0  0
  -26.7514  -32.4790   23.0745 H   0  0  0  0  0  0
  -25.0054  -33.9301   25.0004 H   0  0  0  0  0  0
  -22.8272  -31.2658   21.3474 H   0  0  0  0  0  0
  -23.3813  -35.9383   23.3270 H   0  0  0  0  0  0
  -24.3564  -36.8810   22.2076 H   0  0  0  0  0  0
  -23.7213  -37.6247   23.6761 H   0  0  0  0  0  0
  -26.3211  -31.1447   20.6587 H   0  0  0  0  0  0
  -26.9251  -30.5006   22.1316 H   0  0  0  0  0  0
  -27.8925  -28.0180   21.6193 H   0  0  0  0  0  0
  -25.5168  -25.5749   19.0134 H   0  0  0  0  0  0
  -23.9472  -27.3738   18.7727 H   0  0  0  0  0  0
  -23.9660  -30.5282   19.3923 H   0  0  0  0  0  0
  -22.8341  -29.2692   19.7822 H   0  0  0  0  0  0
  -25.1379  -36.1637   25.0773 H   0  0  0  0  0  0
  -21.0046  -28.3399   24.1262 H   0  0  0  0  0  0
  -20.5671  -26.2389   23.3657 H   0  0  0  0  0  0
  -21.6656  -26.7382   22.1208 H   0  0  0  0  0  0
  -19.6925  -25.6268   21.1280 H   0  0  0  0  0  0
  -19.6717  -27.3158   20.6728 H   0  0  0  0  0  0
  -17.4222  -26.6682   21.4025 H   0  0  0  0  0  0
  -18.0336  -26.0110   22.9038 H   0  0  0  0  0  0
  -19.7973  -30.7340   24.2167 H   0  0  0  0  0  0
  -17.5035  -31.6276   24.5165 H   0  0  0  0  0  0
  -15.5373  -30.2965   23.7719 H   0  0  0  0  0  0
  -15.8701  -28.0810   22.7118 H   0  0  0  0  0  0
  -24.5915  -30.7051   25.7567 H   0  0  0  0  0  0
  -24.8721  -32.2967   26.4499 H   0  0  0  0  0  0
  -25.7786  -30.9088   27.0237 H   0  0  0  0  0  0
  -26.3317  -29.6330   24.1846 H   0  0  0  0  0  0
  -27.4011  -29.7360   25.5570 H   0  0  0  0  0  0
  -27.9312  -30.3882   24.0324 H   0  0  0  0  0  0
  -27.2630  -33.3779   26.1827 H   0  0  0  0  0  0
  -28.3969  -32.6757   25.0389 H   0  0  0  0  0  0
  -28.0627  -31.8683   26.5622 H   0  0  0  0  0  0
  -28.2555  -38.0052   24.7557 H   0  0  0  0  0  0
  -28.1118  -36.2579   24.6286 H   0  0  0  0  0  0
  -27.2284  -37.1321   25.8873 H   0  0  0  0  0  0
  -20.9670  -29.8661   21.6517 H   0  0  0  0  0  0
  -26.0114  -38.2690   24.1414 H   0  0  0  0  0  0
  -26.9110  -13.9813   24.2552 H   0  0  0  0  0  0
  -29.2057  -12.4634   24.2810 H   0  0  0  0  0  0
  -28.8402  -10.7539   24.2511 H   0  0  0  0  0  0
  -27.8305  -11.8330   25.1797 H   0  0  0  0  0  0
  -30.1395  -10.2467   22.4954 H   0  0  0  0  0  0
  -29.9787   -9.4378   20.9434 H   0  0  0  0  0  0
  -29.9750   -8.5042   22.3933 H   0  0  0  0  0  0
  -26.3578   -8.4333   21.3254 H   0  0  0  0  0  0
  -27.7707   -7.4357   21.6032 H   0  0  0  0  0  0
  -27.6970   -8.4944   20.2010 H   0  0  0  0  0  0
  -26.2270  -13.8345   17.8940 H   0  0  0  0  0  0
  -27.1129  -12.5622   17.5696 H   0  0  0  0  0  0
  -25.5961  -21.4959   22.1738 H   0  0  0  0  0  0
  -25.5742  -21.4375   20.4846 H   0  0  0  0  0  0
  -27.6097  -19.4169   21.7973 H   0  0  0  0  0  0
  -26.6563  -19.0971   20.4276 H   0  0  0  0  0  0
  -27.8766  -23.1780   21.9269 H   0  0  0  0  0  0
  -26.2609  -23.7333   22.0543 H   0  0  0  0  0  0
  -25.7314  -17.8244   23.2557 H   0  0  0  0  0  0
  -27.1714  -17.2247   22.5718 H   0  0  0  0  0  0
  -27.8097   -9.3161   23.1085 H   0  0  0  0  0  0
  -28.3004  -15.1017   17.8421 H   0  0  0  0  0  0
  1 25  1  0  0  0
  1 30  2  0  0  0
  1 86  1  0  0  0
  2  3  1  0  0  0
  2 25  1  0  0  0
  2 88  1  0  0  0
  2 89  1  0  0  0
  3  4  1  0  0  0
  3 90  1  0  0  0
  3 91  1  0  0  0
  4  5  1  0  0  0
  4 92  1  0  0  0
  4 93  1  0  0  0
  5  6  1  0  0  0
  5 26  1  0  0  0
  5 94  1  0  0  0
  6 25  1  0  0  0
  6 95  1  0  0  0
  6 96  1  0  0  0
  7  8  2  0  0  0
  7 26  1  0  0  0
  7 29  1  0  0  0
  8  9  1  0  0  0
  8 22  1  0  0  0
  9 10  1  0  0  0
  9 27  2  0  0  0
 10 11  2  0  0  0
 10 15  1  0  0  0
 11 12  1  0  0  0
 11 97  1  0  0  0
 12 13  2  0  0  0
 12 98  1  0  0  0
 13 14  1  0  0  0
 13 31  1  0  0  0
 14 15  2  0  0  0
 14 99  1  0  0  0
 15100  1  0  0  0
 16 17  2  0  0  0
 16 21  1  0  0  0
 16 31  1  0  0  0
 17 18  1  0  0  0
 17101  1  0  0  0
 18 19  2  0  0  0
 18102  1  0  0  0
 19 20  1  0  0  0
 19 24  1  0  0  0
 20 21  2  0  0  0
 20103  1  0  0  0
 21 23  1  0  0  0
 22 28  1  0  0  0
 22 32  2  0  0  0
 26 27  1  0  0  0
 28104  1  0  0  0
 28105  1  0  0  0
 29106  1  0  0  0
 29107  1  0  0  0
 33 34  1  0  0  0
 33 66  1  0  0  0
 33 70  2  0  0  0
 34 36  1  0  0  0
 34 59  1  0  0  0
 34108  1  0  0  0
 35 44  2  0  0  0
 35 45  1  0  0  0
 35 68  1  0  0  0
 36 56  1  0  0  0
 36109  1  0  0  0
 37 39  1  0  0  0
 37 47  1  0  0  0
 37 66  1  0  0  0
 37110  1  0  0  0
 38 43  2  0  0  0
 38 46  1  0  0  0
 38 47  1  0  0  0
 39 64  1  0  0  0
 39 67  2  0  0  0
 40 52  1  0  0  0
 40 53  2  0  0  0
 40 58  1  0  0  0
 41111  1  0  0  0
 41112  1  0  0  0
 41113  1  0  0  0
 41 48  1  0  0  0
 42 43  1  0  0  0
 42 66  1  0  0  0
 42114  1  0  0  0
 42115  1  0  0  0
 43 44  1  0  0  0
 44116  1  0  0  0
 45 46  2  0  0  0
 45117  1  0  0  0
 46118  1  0  0  0
 47119  1  0  0  0
 47120  1  0  0  0
 48 56  1  0  0  0
 48 65  1  0  0  0
 48121  1  0  0  0
 49 50  1  0  0  0
 49 53  1  0  0  0
 49 64  1  0  0  0
 49122  1  0  0  0
 50 51  1  0  0  0
 50123  1  0  0  0
 50124  1  0  0  0
 51 52  1  0  0  0
 51125  1  0  0  0
 51126  1  0  0  0
 52127  1  0  0  0
 52128  1  0  0  0
 53 54  1  0  0  0
 54 55  2  0  0  0
 54129  1  0  0  0
 55 57  1  0  0  0
 55130  1  0  0  0
 56 69  2  0  0  0
 57 58  2  0  0  0
 57131  1  0  0  0
 58132  1  0  0  0
 59 60  1  0  0  0
 59 61  1  0  0  0
 59 62  1  0  0  0
 60133  1  0  0  0
 60134  1  0  0  0
 60135  1  0  0  0
 61136  1  0  0  0
 61137  1  0  0  0
 61138  1  0  0  0
 62139  1  0  0  0
 62140  1  0  0  0
 62141  1  0  0  0
 63 65  1  0  0  0
 63142  1  0  0  0
 63143  1  0  0  0
 63144  1  0  0  0
 64145  1  0  0  0
 65146  1  0  0  0
 68 82  1  0  0  0
 71 72  2  0  0  0
 71 73  1  0  0  0
 71147  1  0  0  0
 72 74  1  0  0  0
 72 76  1  0  0  0
 73 75  2  0  0  0
 73 87  1  0  0  0
 74 84  1  0  0  0
 74 85  2  0  0  0
 75 79  1  0  0  0
 75 85  1  0  0  0
 76148  1  0  0  0
 76149  1  0  0  0
 76150  1  0  0  0
 77151  1  0  0  0
 77152  1  0  0  0
 77153  1  0  0  0
 77 84  1  0  0  0
 78 84  1  0  0  0
 78154  1  0  0  0
 78155  1  0  0  0
 78156  1  0  0  0
 79 86  1  0  0  0
 79157  1  0  0  0
 79158  1  0  0  0
 80 81  1  0  0  0
 80 82  1  0  0  0
 80159  1  0  0  0
 80160  1  0  0  0
 81 83  1  0  0  0
 81161  1  0  0  0
 81162  1  0  0  0
 82163  1  0  0  0
 82164  1  0  0  0
 83 87  1  0  0  0
 83165  1  0  0  0
 83166  1  0  0  0
 84167  1  0  0  0
 86168  1  0  0  0
M  ISO  4   1 100  68 101  82 101  86 100
M  END
> <chiral flag>
0

> <version>
0

> <s_m_source_file>
/data/baiqing/PycharmProjects/Reinvent-master-3.2/result/LINK_invent/BTK/process_docking_weight1_custom_sum_contain_oxygen_bond_distance_aromatic_linkinvent_7_9_3/rearranged_h_0105.sdf

> <i_m_source_file_index>
20

> <r_mmod_Potential_Energy-OPLS-2005>
21281.44140625

> <r_mmod_Stretch_Energy-OPLS-2005>
12362.31640625

> <r_mmod_Bend_Energy-OPLS-2005>
1847.53442382812

> <r_mmod_Torsional_Energy-OPLS-2005>
623.876403808594

> <r_mmod_Improper_Torsional_Energy-OPLS-2005>
77.7099304199219

> <r_mmod_Van_der_Waal_Energy-OPLS-2005>
4541.7294921875

> <r_mmod_Electrostatic_Energy-OPLS-2005>
-522.558959960938

> <r_mmod_Solvation_Energy-OPLS-2005>
-229.604888916016

> <b_mmod_Minimization_Converged-OPLS-2005>
0

> <r_mmod_RMS_Derivative-OPLS-2005>
6.94404029846191

$$$$
20
                    3D
 Structure written by MMmdl.
167174  0  0  1  0            999 V2000
  -30.6041  -14.9129   20.4899 C   0  0  0  0  0  0
  -30.4377  -12.5722   19.5133 C   0  0  0  0  0  0
  -29.5411  -12.5384   18.2548 C   0  0  0  0  0  0
  -28.0630  -12.3378   18.6436 C   0  0  0  0  0  0
  -27.6376  -13.2442   19.8263 C   0  0  2  0  0  0
  -28.6688  -13.2442   20.9669 C   0  0  0  0  0  0
  -25.2563  -13.8178   20.5622 C   0  0  0  0  0  0
  -24.1873  -13.0402   20.9131 C   0  0  0  0  0  0
  -24.6466  -11.6896   20.8638 C   0  0  0  0  0  0
  -23.9123  -10.4276   21.0328 C   0  0  0  0  0  0
  -24.3667   -9.4188   21.9127 C   0  0  0  0  0  0
  -23.6320   -8.2244   22.0726 C   0  0  0  0  0  0
  -22.4291   -8.0280   21.3541 C   0  0  0  0  0  0
  -21.9934   -9.0244   20.4620 C   0  0  0  0  0  0
  -22.7286  -10.2096   20.2988 C   0  0  0  0  0  0
  -21.6868   -6.0688   22.5244 C   0  0  0  0  0  0
  -21.4023   -6.5582   23.8181 C   0  0  0  0  0  0
  -21.3688   -5.6739   24.9145 C   0  0  0  0  0  0
  -21.6051   -4.3000   24.7185 C   0  0  0  0  0  0
  -21.8844   -3.8083   23.4305 C   0  0  0  0  0  0
  -21.9219   -4.6910   22.3362 C   0  0  0  0  0  0
  -22.7913  -13.5185   21.1830 C   0  0  0  0  0  0
  -22.1678   -4.2084   21.0937 F   0  0  0  0  0  0
  -21.5665   -3.4499   25.7711 F   0  0  0  0  0  0
  -29.9605  -13.6707   20.4136 N   0  0  0  0  0  0
  -26.2937  -12.9381   20.3079 N   0  0  0  0  0  0
  -25.9381  -11.6515   20.5589 N   0  0  0  0  0  0
  -22.0600  -12.8154   22.0385 N   0  0  0  0  0  0
  -25.4339  -15.1916   20.4122 N   0  0  0  0  0  0
  -31.7431  -14.9623   20.0151 O   0  0  0  0  0  0
  -21.6663   -6.8867   21.4234 O   0  0  0  0  0  0
  -22.3589  -14.5470   20.6679 O   0  0  0  0  0  0
  -24.6541  -31.8363   23.1857 C   0  0  0  0  0  0
  -25.9293  -32.4663   23.8264 C   0  0  1  0  0  0
  -27.2262  -27.1134   20.1235 C   0  0  0  0  0  0
  -25.6047  -33.8460   24.2195 N   0  0  0  0  0  0
  -23.4584  -30.4596   21.5277 C   0  0  2  0  0  0
  -24.9081  -28.8806   20.1008 C   0  0  0  0  0  0
  -22.7623  -29.4515   22.4786 C   0  0  0  0  0  0
  -18.0328  -28.1398   22.8423 C   0  0  0  0  0  0
  -24.1513  -36.7226   23.2631 C   0  0  0  0  0  0
  -26.0172  -30.6966   21.3931 C   0  0  0  0  0  0
  -26.0845  -29.3085   20.7277 C   0  0  0  0  0  0
  -27.2418  -28.4390   20.7236 C   0  0  0  0  0  0
  -26.0253  -26.7960   19.4509 C   0  0  0  0  0  0
  -24.8926  -27.6407   19.4455 C   0  0  0  0  0  0
  -23.6913  -29.7914   20.1454 C   0  0  0  0  0  0
  -25.4139  -36.3000   24.0311 C   0  0  1  0  0  0
  -20.5939  -28.3750   23.1187 C   0  0  2  0  0  0
  -20.6830  -26.9444   22.5363 C   0  0  0  0  0  0
  -19.5815  -26.6374   21.5176 C   0  0  0  0  0  0
  -18.1987  -26.7935   22.1568 C   0  0  0  0  0  0
  -19.1572  -28.8887   23.2806 C   0  0  0  0  0  0
  -18.9482  -30.1484   23.8852 C   0  0  0  0  0  0
  -17.6467  -30.6579   24.0550 C   0  0  0  0  0  0
  -25.9092  -34.9383   23.5049 C   0  0  0  0  0  0
  -16.5368  -29.9060   23.6334 C   0  0  0  0  0  0
  -16.7303  -28.6487   23.0328 C   0  0  0  0  0  0
  -26.4605  -31.6546   25.0719 C   0  0  0  0  0  0
  -25.3798  -31.3690   26.1419 C   0  0  0  0  0  0
  -27.0486  -30.2954   24.6309 C   0  0  0  0  0  0
  -27.6160  -32.4272   25.7516 C   0  0  0  0  0  0
  -27.5575  -37.1775   24.8458 C   0  0  0  0  0  0
  -21.4300  -29.3075   22.3554 N   0  0  0  0  0  0
  -26.4284  -37.3726   23.9410 N   0  0  0  0  0  0
  -24.7296  -31.0195   22.0913 N   0  0  0  0  0  0
  -23.4237  -28.8022   23.2935 O   0  0  0  0  0  0
  -28.2814  -26.1236   20.2001 O   0  0  0  0  0  0
  -26.5603  -34.8879   22.4580 O   0  0  0  0  0  0
  -23.5644  -32.1237   23.7063 O   0  0  0  0  0  0
  -27.2323  -21.6052   16.3520 C   0  0  0  0  0  0
  -29.0201  -15.7203   23.3006 C   0  0  0  0  0  0
  -31.5019  -16.0321   23.0250 C   0  0  0  0  0  0
  -27.2357  -21.6692   17.8911 C   0  0  0  0  0  0
  -29.1883  -18.9072   20.4080 C   0  0  0  0  0  0
  -30.2314  -17.5765   20.3336 C   0  0  0  0  0  0
  -28.6663  -21.6531   18.4531 C   0  0  0  0  0  0
  -29.6424  -20.5409   20.4553 C   0  0  0  0  0  0
  -28.9802  -23.2613   20.4076 C   0  0  0  0  0  0
  -28.0952  -24.6044   19.8530 C   0  0  0  0  0  0
  -30.1092  -16.3691   22.4380 C   0  0  0  0  0  0
  -29.9951  -16.1307   20.9596 N   0  0  0  0  0  0
  -28.7366  -21.7478   19.9371 N   0  3  1  0  0  0
  -31.4808  -12.7002   19.2206 H   0  0  0  0  0  0
  -30.4004  -11.6122   20.0275 H   0  0  0  0  0  0
  -29.8613  -11.7371   17.5888 H   0  0  0  0  0  0
  -29.6600  -13.4661   17.6932 H   0  0  0  0  0  0
  -27.9412  -11.2895   18.9197 H   0  0  0  0  0  0
  -27.4149  -12.5053   17.7815 H   0  0  0  0  0  0
  -27.6097  -14.2588   19.4294 H   0  0  0  0  0  0
  -28.7446  -12.2607   21.4348 H   0  0  0  0  0  0
  -28.3097  -13.9221   21.7253 H   0  0  0  0  0  0
  -25.2820   -9.5605   22.4715 H   0  0  0  0  0  0
  -23.9998   -7.4603   22.7410 H   0  0  0  0  0  0
  -21.0872   -8.8731   19.8934 H   0  0  0  0  0  0
  -22.3736  -10.9630   19.6073 H   0  0  0  0  0  0
  -21.1998   -7.6083   23.9643 H   0  0  0  0  0  0
  -21.1534   -6.0475   25.9048 H   0  0  0  0  0  0
  -22.0624   -2.7544   23.2817 H   0  0  0  0  0  0
  -22.4265  -11.9798   22.4720 H   0  0  0  0  0  0
  -21.1228  -13.1139   22.2590 H   0  0  0  0  0  0
  -24.6843  -15.8604   20.5367 H   0  0  0  0  0  0
  -26.3039  -15.6269   20.1307 H   0  0  0  0  0  0
  -26.7337  -32.5247   23.0971 H   0  0  0  0  0  0
  -25.0421  -33.9565   25.0500 H   0  0  0  0  0  0
  -22.7660  -31.2879   21.3678 H   0  0  0  0  0  0
  -23.3792  -35.9540   23.3254 H   0  0  0  0  0  0
  -24.3628  -36.8885   22.2055 H   0  0  0  0  0  0
  -23.7238  -37.6401   23.6683 H   0  0  0  0  0  0
  -26.1778  -31.4489   20.6209 H   0  0  0  0  0  0
  -26.8884  -30.7427   22.0350 H   0  0  0  0  0  0
  -28.1397  -28.7588   21.2338 H   0  0  0  0  0  0
  -25.9220  -25.8597   18.9249 H   0  0  0  0  0  0
  -24.0005  -27.3163   18.9278 H   0  0  0  0  0  0
  -23.8491  -30.5656   19.3946 H   0  0  0  0  0  0
  -22.8060  -29.2434   19.8221 H   0  0  0  0  0  0
  -25.1331  -36.1820   25.0799 H   0  0  0  0  0  0
  -21.0014  -28.3345   24.1322 H   0  0  0  0  0  0
  -20.5746  -26.2357   23.3586 H   0  0  0  0  0  0
  -21.6704  -26.7473   22.1157 H   0  0  0  0  0  0
  -19.6999  -25.6264   21.1263 H   0  0  0  0  0  0
  -19.6794  -27.3142   20.6672 H   0  0  0  0  0  0
  -17.4273  -26.6654   21.3959 H   0  0  0  0  0  0
  -18.0414  -26.0094   22.8981 H   0  0  0  0  0  0
  -19.7959  -30.7310   24.2212 H   0  0  0  0  0  0
  -17.5022  -31.6267   24.5149 H   0  0  0  0  0  0
  -15.5366  -30.2943   23.7707 H   0  0  0  0  0  0
  -15.8704  -28.0815   22.7045 H   0  0  0  0  0  0
  -24.6057  -30.6949   25.7737 H   0  0  0  0  0  0
  -24.8919  -32.2840   26.4788 H   0  0  0  0  0  0
  -25.8141  -30.8927   27.0227 H   0  0  0  0  0  0
  -26.3103  -29.6631   24.1370 H   0  0  0  0  0  0
  -27.4167  -29.7307   25.4888 H   0  0  0  0  0  0
  -27.8991  -30.4214   23.9605 H   0  0  0  0  0  0
  -27.2833  -33.3620   26.2045 H   0  0  0  0  0  0
  -28.4056  -32.6717   25.0390 H   0  0  0  0  0  0
  -28.0755  -31.8392   26.5482 H   0  0  0  0  0  0
  -28.2550  -38.0109   24.7552 H   0  0  0  0  0  0
  -28.1105  -36.2639   24.6245 H   0  0  0  0  0  0
  -27.2292  -37.1375   25.8853 H   0  0  0  0  0  0
  -20.9525  -29.8818   21.6744 H   0  0  0  0  0  0
  -26.0139  -38.2779   24.1438 H   0  0  0  0  0  0
  -26.2290  -21.7435   15.9466 H   0  0  0  0  0  0
  -27.5951  -20.6395   15.9946 H   0  0  0  0  0  0
  -27.8755  -22.3729   15.9134 H   0  0  0  0  0  0
  -29.0016  -16.1836   24.2869 H   0  0  0  0  0  0
  -29.2110  -14.6631   23.4841 H   0  0  0  0  0  0
  -28.0266  -15.8541   22.8705 H   0  0  0  0  0  0
  -32.3036  -16.5339   22.4830 H   0  0  0  0  0  0
  -31.7172  -14.9643   23.0055 H   0  0  0  0  0  0
  -31.5754  -16.3444   24.0658 H   0  0  0  0  0  0
  -26.6829  -20.8117   18.2797 H   0  0  0  0  0  0
  -26.6991  -22.5601   18.2227 H   0  0  0  0  0  0
  -28.5339  -18.7522   21.2654 H   0  0  0  0  0  0
  -28.5203  -18.7974   19.5536 H   0  0  0  0  0  0
  -31.1954  -17.9141   20.7190 H   0  0  0  0  0  0
  -30.4363  -17.4125   19.2743 H   0  0  0  0  0  0
  -29.2759  -22.4364   18.0007 H   0  0  0  0  0  0
  -29.1137  -20.7136   18.1221 H   0  0  0  0  0  0
  -30.5844  -20.6187   19.9121 H   0  0  0  0  0  0
  -29.9112  -20.7721   21.4864 H   0  0  0  0  0  0
  -28.8832  -23.2432   21.4941 H   0  0  0  0  0  0
  -30.0334  -23.4759   20.2321 H   0  0  0  0  0  0
  -27.0552  -24.3584   20.0612 H   0  0  0  0  0  0
  -28.1782  -24.5794   18.7646 H   0  0  0  0  0  0
  -29.9741  -17.4363   22.6311 H   0  0  0  0  0  0
  -27.8118  -21.5251   20.2729 H   0  0  0  0  0  0
  1 25  1  0  0  0
  1 30  2  0  0  0
  1 82  1  0  0  0
  2  3  1  0  0  0
  2 25  1  0  0  0
  2 84  1  0  0  0
  2 85  1  0  0  0
  3  4  1  0  0  0
  3 86  1  0  0  0
  3 87  1  0  0  0
  4  5  1  0  0  0
  4 88  1  0  0  0
  4 89  1  0  0  0
  5  6  1  0  0  0
  5 26  1  0  0  0
  5 90  1  0  0  0
  6 25  1  0  0  0
  6 91  1  0  0  0
  6 92  1  0  0  0
  7  8  2  0  0  0
  7 26  1  0  0  0
  7 29  1  0  0  0
  8  9  1  0  0  0
  8 22  1  0  0  0
  9 10  1  0  0  0
  9 27  2  0  0  0
 10 11  2  0  0  0
 10 15  1  0  0  0
 11 12  1  0  0  0
 11 93  1  0  0  0
 12 13  2  0  0  0
 12 94  1  0  0  0
 13 14  1  0  0  0
 13 31  1  0  0  0
 14 15  2  0  0  0
 14 95  1  0  0  0
 15 96  1  0  0  0
 16 17  2  0  0  0
 16 21  1  0  0  0
 16 31  1  0  0  0
 17 18  1  0  0  0
 17 97  1  0  0  0
 18 19  2  0  0  0
 18 98  1  0  0  0
 19 20  1  0  0  0
 19 24  1  0  0  0
 20 21  2  0  0  0
 20 99  1  0  0  0
 21 23  1  0  0  0
 22 28  1  0  0  0
 22 32  2  0  0  0
 26 27  1  0  0  0
 28100  1  0  0  0
 28101  1  0  0  0
 29102  1  0  0  0
 29103  1  0  0  0
 33 34  1  0  0  0
 33 66  1  0  0  0
 33 70  2  0  0  0
 34 36  1  0  0  0
 34 59  1  0  0  0
 34104  1  0  0  0
 35 44  2  0  0  0
 35 45  1  0  0  0
 35 68  1  0  0  0
 36 56  1  0  0  0
 36105  1  0  0  0
 37 39  1  0  0  0
 37 47  1  0  0  0
 37 66  1  0  0  0
 37106  1  0  0  0
 38 43  2  0  0  0
 38 46  1  0  0  0
 38 47  1  0  0  0
 39 64  1  0  0  0
 39 67  2  0  0  0
 40 52  1  0  0  0
 40 53  2  0  0  0
 40 58  1  0  0  0
 41107  1  0  0  0
 41108  1  0  0  0
 41109  1  0  0  0
 41 48  1  0  0  0
 42 43  1  0  0  0
 42 66  1  0  0  0
 42110  1  0  0  0
 42111  1  0  0  0
 43 44  1  0  0  0
 44112  1  0  0  0
 45 46  2  0  0  0
 45113  1  0  0  0
 46114  1  0  0  0
 47115  1  0  0  0
 47116  1  0  0  0
 48 56  1  0  0  0
 48 65  1  0  0  0
 48117  1  0  0  0
 49 50  1  0  0  0
 49 53  1  0  0  0
 49 64  1  0  0  0
 49118  1  0  0  0
 50 51  1  0  0  0
 50119  1  0  0  0
 50120  1  0  0  0
 51 52  1  0  0  0
 51121  1  0  0  0
 51122  1  0  0  0
 52123  1  0  0  0
 52124  1  0  0  0
 53 54  1  0  0  0
 54 55  2  0  0  0
 54125  1  0  0  0
 55 57  1  0  0  0
 55126  1  0  0  0
 56 69  2  0  0  0
 57 58  2  0  0  0
 57127  1  0  0  0
 58128  1  0  0  0
 59 60  1  0  0  0
 59 61  1  0  0  0
 59 62  1  0  0  0
 60129  1  0  0  0
 60130  1  0  0  0
 60131  1  0  0  0
 61132  1  0  0  0
 61133  1  0  0  0
 61134  1  0  0  0
 62135  1  0  0  0
 62136  1  0  0  0
 62137  1  0  0  0
 63 65  1  0  0  0
 63138  1  0  0  0
 63139  1  0  0  0
 63140  1  0  0  0
 64141  1  0  0  0
 65142  1  0  0  0
 68 80  1  0  0  0
 71 74  1  0  0  0
 71143  1  0  0  0
 71144  1  0  0  0
 71145  1  0  0  0
 72146  1  0  0  0
 72147  1  0  0  0
 72148  1  0  0  0
 72 81  1  0  0  0
 73 81  1  0  0  0
 73149  1  0  0  0
 73150  1  0  0  0
 73151  1  0  0  0
 74 77  1  0  0  0
 74152  1  0  0  0
 74153  1  0  0  0
 75 76  1  0  0  0
 75 78  1  0  0  0
 75154  1  0  0  0
 75155  1  0  0  0
 76 82  1  0  0  0
 76156  1  0  0  0
 76157  1  0  0  0
 77158  1  0  0  0
 77159  1  0  0  0
 77 83  1  0  0  0
 78 83  1  0  0  0
 78160  1  0  0  0
 78161  1  0  0  0
 79 80  1  0  0  0
 79 83  1  0  0  0
 79162  1  0  0  0
 79163  1  0  0  0
 80164  1  0  0  0
 80165  1  0  0  0
 81 82  1  0  0  0
 81166  1  0  0  0
 83167  1  0  0  0
M  CHG  1  83   1
M  ISO  4   1 100  68 101  80 101  82 100
M  END
> <chiral flag>
0

> <version>
0

> <s_m_source_file>
/data/baiqing/PycharmProjects/Reinvent-master-3.2/result/LINK_invent/BTK/process_docking_weight1_custom_sum_contain_oxygen_bond_distance_aromatic_linkinvent_7_9_3/rearranged_h_0105.sdf

> <i_m_source_file_index>
21

> <r_mmod_Potential_Energy-OPLS-2005>
727.41357421875

> <r_mmod_Stretch_Energy-OPLS-2005>
304.421691894531

> <r_mmod_Bend_Energy-OPLS-2005>
300.520355224609

> <r_mmod_Torsional_Energy-OPLS-2005>
304.939636230469

> <r_mmod_Improper_Torsional_Energy-OPLS-2005>
7.25101184844971

> <r_mmod_Van_der_Waal_Energy-OPLS-2005>
125.359573364258

> <r_mmod_Electrostatic_Energy-OPLS-2005>
-91.1979446411133

> <r_mmod_Solvation_Energy-OPLS-2005>
-408.244476318359

> <b_mmod_Minimization_Converged-OPLS-2005>
0

> <r_mmod_RMS_Derivative-OPLS-2005>
4.93557214736938

$$$$
21
                    3D
 Structure written by MMmdl.
187196  0  0  1  0            999 V2000
  -30.7452  -14.5950   20.4879 C   0  0  0  0  0  0
  -30.4248  -12.3773   19.4385 C   0  0  0  0  0  0
  -29.4947  -12.4639   18.2115 C   0  0  0  0  0  0
  -28.0163  -12.3083   18.6290 C   0  0  0  0  0  0
  -27.6441  -13.1864   19.8516 C   0  0  2  0  0  0
  -28.7097  -13.0807   20.9738 C   0  0  0  0  0  0
  -25.2563  -13.8069   20.5668 C   0  0  0  0  0  0
  -24.1819  -13.0407   20.9248 C   0  0  0  0  0  0
  -24.6333  -11.6857   20.8806 C   0  0  0  0  0  0
  -23.8998  -10.4253   21.0439 C   0  0  0  0  0  0
  -24.3553   -9.4171   21.9202 C   0  0  0  0  0  0
  -23.6270   -8.2191   22.0729 C   0  0  0  0  0  0
  -22.4243   -8.0232   21.3508 C   0  0  0  0  0  0
  -21.9896   -9.0183   20.4633 C   0  0  0  0  0  0
  -22.7193  -10.2079   20.3059 C   0  0  0  0  0  0
  -21.6828   -6.0694   22.5273 C   0  0  0  0  0  0
  -21.4006   -6.5605   23.8207 C   0  0  0  0  0  0
  -21.3655   -5.6764   24.9185 C   0  0  0  0  0  0
  -21.6061   -4.3023   24.7216 C   0  0  0  0  0  0
  -21.8819   -3.8106   23.4341 C   0  0  0  0  0  0
  -21.9176   -4.6925   22.3392 C   0  0  0  0  0  0
  -22.7871  -13.5288   21.1838 C   0  0  0  0  0  0
  -22.1671   -4.2106   21.0974 F   0  0  0  0  0  0
  -21.5621   -3.4512   25.7736 F   0  0  0  0  0  0
  -29.9994  -13.4440   20.3766 N   0  0  0  0  0  0
  -26.2940  -12.9178   20.3302 N   0  0  0  0  0  0
  -25.9255  -11.6368   20.5822 N   0  0  0  0  0  0
  -22.0417  -12.8344   22.0374 N   0  0  0  0  0  0
  -25.4311  -15.1771   20.3901 N   0  0  0  0  0  0
  -31.9415  -14.5425   20.1962 O   0  0  0  0  0  0
  -21.6627   -6.8829   21.4224 O   0  0  0  0  0  0
  -22.3632  -14.5567   20.6610 O   0  0  0  0  0  0
  -24.6162  -31.8657   23.2082 C   0  0  0  0  0  0
  -25.9022  -32.4792   23.8379 C   0  0  1  0  0  0
  -27.2147  -27.3624   20.1348 C   0  0  0  0  0  0
  -25.5883  -33.8597   24.2329 N   0  0  0  0  0  0
  -23.4062  -30.4916   21.5490 C   0  0  2  0  0  0
  -24.8544  -28.9569   20.1066 C   0  0  0  0  0  0
  -22.7420  -29.4650   22.4955 C   0  0  0  0  0  0
  -18.0302  -28.1357   22.8570 C   0  0  0  0  0  0
  -24.1488  -36.7270   23.2650 C   0  0  0  0  0  0
  -25.9447  -30.8128   21.3748 C   0  0  0  0  0  0
  -26.0179  -29.4455   20.7152 C   0  0  0  0  0  0
  -27.2032  -28.6580   20.7197 C   0  0  0  0  0  0
  -26.0339  -26.9144   19.4988 C   0  0  0  0  0  0
  -24.8644  -27.6974   19.4846 C   0  0  0  0  0  0
  -23.6155  -29.8259   20.1621 C   0  0  0  0  0  0
  -25.4107  -36.3094   24.0379 C   0  0  1  0  0  0
  -20.5895  -28.3636   23.1370 C   0  0  2  0  0  0
  -20.6764  -26.9371   22.5447 C   0  0  0  0  0  0
  -19.5721  -26.6380   21.5265 C   0  0  0  0  0  0
  -18.1913  -26.7927   22.1669 C   0  0  0  0  0  0
  -19.1545  -28.8819   23.2977 C   0  0  0  0  0  0
  -18.9449  -30.1455   23.8939 C   0  0  0  0  0  0
  -17.6435  -30.6569   24.0575 C   0  0  0  0  0  0
  -25.9040  -34.9464   23.5155 C   0  0  0  0  0  0
  -16.5338  -29.9041   23.6345 C   0  0  0  0  0  0
  -16.7287  -28.6456   23.0401 C   0  0  0  0  0  0
  -26.4432  -31.6583   25.0716 C   0  0  0  0  0  0
  -25.3668  -31.3705   26.1443 C   0  0  0  0  0  0
  -27.0232  -30.2990   24.6136 C   0  0  0  0  0  0
  -27.6013  -32.4310   25.7444 C   0  0  0  0  0  0
  -27.5614  -37.1794   24.8473 C   0  0  0  0  0  0
  -21.4136  -29.2997   22.3730 N   0  0  0  0  0  0
  -26.4289  -37.3788   23.9454 N   0  0  0  0  0  0
  -24.6728  -31.0726   22.1008 N   0  0  0  0  0  0
  -23.4193  -28.8197   23.2994 O   0  0  0  0  0  0
  -28.3430  -26.5469   20.1781 O   0  0  0  0  0  0
  -26.5598  -34.8922   22.4719 O   0  0  0  0  0  0
  -23.5336  -32.1450   23.7455 O   0  0  0  0  0  0
  -30.7325  -22.1206   23.1713 C   0  0  0  0  0  0
  -30.1316  -22.0244   25.5264 C   0  0  0  0  0  0
  -28.4579  -22.6507   23.8601 C   0  0  0  0  0  0
  -31.1077  -21.8991   24.5138 C   0  0  0  0  0  0
  -29.4161  -22.5197   22.8316 C   0  0  0  0  0  0
  -28.8117  -22.3958   25.2010 C   0  0  0  0  0  0
  -28.7647  -16.2550   20.5901 C   0  0  0  0  0  0
  -31.1096  -17.0171   20.4787 C   0  0  0  0  0  0
  -28.3646  -17.7091   20.9993 C   0  0  0  0  0  0
  -30.6657  -18.4087   21.0045 C   0  0  0  0  0  0
  -32.1865  -26.7205   22.2527 C   0  0  0  0  0  0
  -33.4790  -22.7603   24.5223 C   0  0  0  0  0  0
  -33.0606  -20.2852   24.2107 C   0  0  0  0  0  0
  -31.0722  -26.2823   21.2918 C   0  0  0  0  0  0
  -30.4335  -24.9528   21.7454 C   0  0  0  0  0  0
  -29.4277  -21.4722   20.5293 C   0  0  0  0  0  0
  -28.8621  -20.1276   21.1480 C   0  0  0  0  0  0
  -28.1371  -25.1454   20.5557 C   0  0  0  0  0  0
  -32.5578  -21.5800   24.8713 C   0  0  0  0  0  0
  -29.0167  -22.7593   21.3632 C   0  0  2  0  0  0
  -29.4052  -24.2309   20.8152 C   0  0  2  0  0  0
  -30.1889  -15.8584   20.6827 N   0  0  0  0  0  0
  -29.2990  -18.7947   20.5893 N   0  3  0  0  0  0
  -27.6250  -22.5529   26.4435 Cl  0  0  0  0  0  0
  -31.4619  -12.4711   19.1095 H   0  0  0  0  0  0
  -30.3689  -11.3955   19.9119 H   0  0  0  0  0  0
  -29.7662  -11.6995   17.4812 H   0  0  0  0  0  0
  -29.6338  -13.4225   17.7128 H   0  0  0  0  0  0
  -27.8511  -11.2595   18.8735 H   0  0  0  0  0  0
  -27.3619  -12.5289   17.7829 H   0  0  0  0  0  0
  -27.6343  -14.1942   19.4593 H   0  0  0  0  0  0
  -28.7597  -12.0569   21.3495 H   0  0  0  0  0  0
  -28.4818  -13.6745   21.8562 H   0  0  0  0  0  0
  -25.2647   -9.5676   22.4848 H   0  0  0  0  0  0
  -23.9925   -7.4598   22.7459 H   0  0  0  0  0  0
  -21.0807   -8.8733   19.8971 H   0  0  0  0  0  0
  -22.3638  -10.9621   19.6200 H   0  0  0  0  0  0
  -21.2043   -7.6131   23.9727 H   0  0  0  0  0  0
  -21.1485   -6.0483   25.9093 H   0  0  0  0  0  0
  -22.0621   -2.7565   23.2838 H   0  0  0  0  0  0
  -22.3910  -11.9990   22.4832 H   0  0  0  0  0  0
  -21.1029  -13.1454   22.2461 H   0  0  0  0  0  0
  -24.6392  -15.8116   20.4166 H   0  0  0  0  0  0
  -26.2224  -15.5527   19.8853 H   0  0  0  0  0  0
  -26.7080  -32.5478   23.1133 H   0  0  0  0  0  0
  -25.0055  -33.9731   25.0480 H   0  0  0  0  0  0
  -22.6989  -31.3125   21.4120 H   0  0  0  0  0  0
  -23.3788  -35.9552   23.3246 H   0  0  0  0  0  0
  -24.3627  -36.8920   22.2079 H   0  0  0  0  0  0
  -23.7168  -37.6443   23.6665 H   0  0  0  0  0  0
  -26.0855  -31.5901   20.6212 H   0  0  0  0  0  0
  -26.8213  -30.8464   22.0112 H   0  0  0  0  0  0
  -28.0893  -29.0321   21.2132 H   0  0  0  0  0  0
  -26.0009  -25.9538   19.0049 H   0  0  0  0  0  0
  -23.9725  -27.3247   18.9979 H   0  0  0  0  0  0
  -23.7112  -30.6003   19.4022 H   0  0  0  0  0  0
  -22.7383  -29.2418   19.8748 H   0  0  0  0  0  0
  -25.1283  -36.1963   25.0874 H   0  0  0  0  0  0
  -21.0074  -28.3172   24.1458 H   0  0  0  0  0  0
  -20.5740  -26.2208   23.3614 H   0  0  0  0  0  0
  -21.6616  -26.7433   22.1180 H   0  0  0  0  0  0
  -19.6841  -25.6299   21.1259 H   0  0  0  0  0  0
  -19.6645  -27.3222   20.6826 H   0  0  0  0  0  0
  -17.4218  -26.6837   21.4025 H   0  0  0  0  0  0
  -18.0212  -26.0018   22.9002 H   0  0  0  0  0  0
  -19.7914  -30.7328   24.2260 H   0  0  0  0  0  0
  -17.4957  -31.6256   24.5155 H   0  0  0  0  0  0
  -15.5325  -30.2931   23.7614 H   0  0  0  0  0  0
  -15.8721  -28.0761   22.7067 H   0  0  0  0  0  0
  -24.5863  -30.7031   25.7791 H   0  0  0  0  0  0
  -24.8797  -32.2831   26.4869 H   0  0  0  0  0  0
  -25.7998  -30.8903   27.0217 H   0  0  0  0  0  0
  -26.2776  -29.6782   24.1150 H   0  0  0  0  0  0
  -27.3900  -29.7225   25.4642 H   0  0  0  0  0  0
  -27.8674  -30.4276   23.9360 H   0  0  0  0  0  0
  -27.2659  -33.3656   26.1958 H   0  0  0  0  0  0
  -28.3803  -32.6798   25.0226 H   0  0  0  0  0  0
  -28.0662  -31.8449   26.5383 H   0  0  0  0  0  0
  -28.2596  -38.0134   24.7591 H   0  0  0  0  0  0
  -28.1150  -36.2673   24.6186 H   0  0  0  0  0  0
  -27.2362  -37.1314   25.8880 H   0  0  0  0  0  0
  -20.9256  -29.8686   21.6957 H   0  0  0  0  0  0
  -26.0183  -38.2872   24.1426 H   0  0  0  0  0  0
  -31.4824  -22.0125   22.4002 H   0  0  0  0  0  0
  -30.3907  -21.8540   26.5620 H   0  0  0  0  0  0
  -27.4430  -22.9361   23.6260 H   0  0  0  0  0  0
  -28.4606  -16.1224   19.5519 H   0  0  0  0  0  0
  -28.1423  -15.6141   21.2076 H   0  0  0  0  0  0
  -32.0826  -16.8304   20.9393 H   0  0  0  0  0  0
  -31.3036  -17.0896   19.4054 H   0  0  0  0  0  0
  -28.2453  -17.7527   22.0836 H   0  0  0  0  0  0
  -27.3734  -17.9157   20.5938 H   0  0  0  0  0  0
  -31.3724  -19.1623   20.6567 H   0  0  0  0  0  0
  -30.7269  -18.4130   22.0930 H   0  0  0  0  0  0
  -32.5325  -27.7285   22.0211 H   0  0  0  0  0  0
  -33.0506  -26.0581   22.1987 H   0  0  0  0  0  0
  -31.8375  -26.7336   23.2857 H   0  0  0  0  0  0
  -33.1097  -23.6898   24.9581 H   0  0  0  0  0  0
  -33.5532  -22.9098   23.4438 H   0  0  0  0  0  0
  -34.4896  -22.5952   24.8988 H   0  0  0  0  0  0
  -32.4325  -19.4312   24.4681 H   0  0  0  0  0  0
  -34.0759  -20.0528   24.5390 H   0  0  0  0  0  0
  -33.0861  -20.3700   23.1235 H   0  0  0  0  0  0
  -31.4719  -26.2008   20.2802 H   0  0  0  0  0  0
  -30.3383  -27.0847   21.2792 H   0  0  0  0  0  0
  -29.9789  -25.1169   22.7240 H   0  0  0  0  0  0
  -31.2726  -24.2795   21.8980 H   0  0  0  0  0  0
  -29.0704  -21.5691   19.5048 H   0  0  0  0  0  0
  -30.5142  -21.4185   20.4556 H   0  0  0  0  0  0
  -27.7755  -20.1941   21.0776 H   0  0  0  0  0  0
  -29.0689  -20.0735   22.2161 H   0  0  0  0  0  0
  -27.5153  -25.1327   21.4519 H   0  0  0  0  0  0
  -27.5536  -24.6516   19.7784 H   0  0  0  0  0  0
  -32.6105  -21.4317   25.9516 H   0  0  0  0  0  0
  -27.9262  -22.7214   21.3477 H   0  0  0  0  0  0
  -29.8838  -24.0950   19.8460 H   0  0  0  0  0  0
  -29.2689  -18.8492   19.5806 H   0  0  0  0  0  0
  1 25  1  0  0  0
  1 30  2  0  0  0
  1 92  1  0  0  0
  2  3  1  0  0  0
  2 25  1  0  0  0
  2 95  1  0  0  0
  2 96  1  0  0  0
  3  4  1  0  0  0
  3 97  1  0  0  0
  3 98  1  0  0  0
  4  5  1  0  0  0
  4 99  1  0  0  0
  4100  1  0  0  0
  5  6  1  0  0  0
  5 26  1  0  0  0
  5101  1  0  0  0
  6 25  1  0  0  0
  6102  1  0  0  0
  6103  1  0  0  0
  7  8  2  0  0  0
  7 26  1  0  0  0
  7 29  1  0  0  0
  8  9  1  0  0  0
  8 22  1  0  0  0
  9 10  1  0  0  0
  9 27  2  0  0  0
 10 11  2  0  0  0
 10 15  1  0  0  0
 11 12  1  0  0  0
 11104  1  0  0  0
 12 13  2  0  0  0
 12105  1  0  0  0
 13 14  1  0  0  0
 13 31  1  0  0  0
 14 15  2  0  0  0
 14106  1  0  0  0
 15107  1  0  0  0
 16 17  2  0  0  0
 16 21  1  0  0  0
 16 31  1  0  0  0
 17 18  1  0  0  0
 17108  1  0  0  0
 18 19  2  0  0  0
 18109  1  0  0  0
 19 20  1  0  0  0
 19 24  1  0  0  0
 20 21  2  0  0  0
 20110  1  0  0  0
 21 23  1  0  0  0
 22 28  1  0  0  0
 22 32  2  0  0  0
 26 27  1  0  0  0
 28111  1  0  0  0
 28112  1  0  0  0
 29113  1  0  0  0
 29114  1  0  0  0
 33 34  1  0  0  0
 33 66  1  0  0  0
 33 70  2  0  0  0
 34 36  1  0  0  0
 34 59  1  0  0  0
 34115  1  0  0  0
 35 44  2  0  0  0
 35 45  1  0  0  0
 35 68  1  0  0  0
 36 56  1  0  0  0
 36116  1  0  0  0
 37 39  1  0  0  0
 37 47  1  0  0  0
 37 66  1  0  0  0
 37117  1  0  0  0
 38 43  2  0  0  0
 38 46  1  0  0  0
 38 47  1  0  0  0
 39 64  1  0  0  0
 39 67  2  0  0  0
 40 52  1  0  0  0
 40 53  2  0  0  0
 40 58  1  0  0  0
 41118  1  0  0  0
 41119  1  0  0  0
 41120  1  0  0  0
 41 48  1  0  0  0
 42 43  1  0  0  0
 42 66  1  0  0  0
 42121  1  0  0  0
 42122  1  0  0  0
 43 44  1  0  0  0
 44123  1  0  0  0
 45 46  2  0  0  0
 45124  1  0  0  0
 46125  1  0  0  0
 47126  1  0  0  0
 47127  1  0  0  0
 48 56  1  0  0  0
 48 65  1  0  0  0
 48128  1  0  0  0
 49 50  1  0  0  0
 49 53  1  0  0  0
 49 64  1  0  0  0
 49129  1  0  0  0
 50 51  1  0  0  0
 50130  1  0  0  0
 50131  1  0  0  0
 51 52  1  0  0  0
 51132  1  0  0  0
 51133  1  0  0  0
 52134  1  0  0  0
 52135  1  0  0  0
 53 54  1  0  0  0
 54 55  2  0  0  0
 54136  1  0  0  0
 55 57  1  0  0  0
 55137  1  0  0  0
 56 69  2  0  0  0
 57 58  2  0  0  0
 57138  1  0  0  0
 58139  1  0  0  0
 59 60  1  0  0  0
 59 61  1  0  0  0
 59 62  1  0  0  0
 60140  1  0  0  0
 60141  1  0  0  0
 60142  1  0  0  0
 61143  1  0  0  0
 61144  1  0  0  0
 61145  1  0  0  0
 62146  1  0  0  0
 62147  1  0  0  0
 62148  1  0  0  0
 63 65  1  0  0  0
 63149  1  0  0  0
 63150  1  0  0  0
 63151  1  0  0  0
 64152  1  0  0  0
 65153  1  0  0  0
 68 88  1  0  0  0
 71 74  2  0  0  0
 71 75  1  0  0  0
 71154  1  0  0  0
 72 74  1  0  0  0
 72 76  2  0  0  0
 72155  1  0  0  0
 73 75  2  0  0  0
 73 76  1  0  0  0
 73156  1  0  0  0
 74 89  1  0  0  0
 75 90  1  0  0  0
 76 94  1  0  0  0
 77 79  1  0  0  0
 77 92  1  0  0  0
 77157  1  0  0  0
 77158  1  0  0  0
 78 80  1  0  0  0
 78 92  1  0  0  0
 78159  1  0  0  0
 78160  1  0  0  0
 79 93  1  0  0  0
 79161  1  0  0  0
 79162  1  0  0  0
 80 93  1  0  0  0
 80163  1  0  0  0
 80164  1  0  0  0
 81 84  1  0  0  0
 81165  1  0  0  0
 81166  1  0  0  0
 81167  1  0  0  0
 82168  1  0  0  0
 82169  1  0  0  0
 82170  1  0  0  0
 82 89  1  0  0  0
 83 89  1  0  0  0
 83171  1  0  0  0
 83172  1  0  0  0
 83173  1  0  0  0
 84 85  1  0  0  0
 84174  1  0  0  0
 84175  1  0  0  0
 85176  1  0  0  0
 85177  1  0  0  0
 85 91  1  0  0  0
 86 87  1  0  0  0
 86178  1  0  0  0
 86179  1  0  0  0
 86 90  1  0  0  0
 87180  1  0  0  0
 87181  1  0  0  0
 87 93  1  0  0  0
 88 91  1  0  0  0
 88182  1  0  0  0
 88183  1  0  0  0
 89184  1  0  0  0
 90 91  1  0  0  0
 90185  1  0  0  0
 91186  1  0  0  0
 93187  1  0  0  0
M  CHG  1  93   1
M  ISO  4   1 100  68 101  88 101  92 100
M  END
> <chiral flag>
0

> <version>
0

> <s_m_source_file>
/data/baiqing/PycharmProjects/Reinvent-master-3.2/result/LINK_invent/BTK/process_docking_weight1_custom_sum_contain_oxygen_bond_distance_aromatic_linkinvent_7_9_3/rearranged_h_0105.sdf

> <i_m_source_file_index>
22

> <r_mmod_Potential_Energy-OPLS-2005>
215.954559326172

> <r_mmod_Stretch_Energy-OPLS-2005>
80.5204772949219

> <r_mmod_Bend_Energy-OPLS-2005>
177.552841186523

> <r_mmod_Torsional_Energy-OPLS-2005>
390.045654296875

> <r_mmod_Improper_Torsional_Energy-OPLS-2005>
7.74006462097168

> <r_mmod_Van_der_Waal_Energy-OPLS-2005>
168.818206787109

> <r_mmod_Electrostatic_Energy-OPLS-2005>
-214.526123046875

> <r_mmod_Solvation_Energy-OPLS-2005>
-438.700836181641

> <b_mmod_Minimization_Converged-OPLS-2005>
0

> <r_mmod_RMS_Derivative-OPLS-2005>
5.20334005355835

$$$$
22
                    3D
 Structure written by MMmdl.
160169  0  0  1  0            999 V2000
  -30.3938  -15.4116   20.4042 C   0  0  0  0  0  0
  -30.4311  -12.9234   19.5541 C   0  0  0  0  0  0
  -29.5414  -12.6292   18.3162 C   0  0  0  0  0  0
  -28.1057  -12.2963   18.7487 C   0  0  0  0  0  0
  -27.6052  -13.2851   19.8280 C   0  0  2  0  0  0
  -28.6250  -13.5305   20.9630 C   0  0  0  0  0  0
  -25.2354  -13.8250   20.5760 C   0  0  0  0  0  0
  -24.1726  -13.0448   20.9242 C   0  0  0  0  0  0
  -24.6379  -11.6934   20.8767 C   0  0  0  0  0  0
  -23.9071  -10.4300   21.0395 C   0  0  0  0  0  0
  -24.3624   -9.4219   21.9179 C   0  0  0  0  0  0
  -23.6303   -8.2253   22.0745 C   0  0  0  0  0  0
  -22.4276   -8.0282   21.3546 C   0  0  0  0  0  0
  -21.9914   -9.0257   20.4643 C   0  0  0  0  0  0
  -22.7240  -10.2132   20.3052 C   0  0  0  0  0  0
  -21.6860   -6.0728   22.5280 C   0  0  0  0  0  0
  -21.4030   -6.5635   23.8208 C   0  0  0  0  0  0
  -21.3662   -5.6792   24.9178 C   0  0  0  0  0  0
  -21.6045   -4.3052   24.7233 C   0  0  0  0  0  0
  -21.8813   -3.8137   23.4354 C   0  0  0  0  0  0
  -21.9200   -4.6956   22.3406 C   0  0  0  0  0  0
  -22.7741  -13.5203   21.1912 C   0  0  0  0  0  0
  -22.1660   -4.2140   21.0981 F   0  0  0  0  0  0
  -21.5628   -3.4530   25.7741 F   0  0  0  0  0  0
  -29.8393  -14.0845   20.3372 N   0  0  0  0  0  0
  -26.2790  -12.9548   20.3257 N   0  0  0  0  0  0
  -25.9327  -11.6638   20.5730 N   0  0  0  0  0  0
  -22.0398  -12.8207   22.0452 N   0  0  0  0  0  0
  -25.3978  -15.2003   20.4189 N   0  0  0  0  0  0
  -31.6179  -15.3801   20.1990 O   0  0  0  0  0  0
  -21.6644   -6.8880   21.4240 O   0  0  0  0  0  0
  -22.3432  -14.5522   20.6740 O   0  0  0  0  0  0
  -24.6692  -31.8149   23.1623 C   0  0  0  0  0  0
  -25.9344  -32.4557   23.8142 C   0  0  1  0  0  0
  -27.2239  -26.8185   20.2416 C   0  0  0  0  0  0
  -25.5970  -33.8374   24.2032 N   0  0  0  0  0  0
  -23.4910  -30.4151   21.5143 C   0  0  2  0  0  0
  -24.9535  -28.7852   20.1282 C   0  0  0  0  0  0
  -22.7722  -29.4290   22.4735 C   0  0  0  0  0  0
  -18.0294  -28.1386   22.8433 C   0  0  0  0  0  0
  -24.1500  -36.7177   23.2646 C   0  0  0  0  0  0
  -26.0646  -30.5909   21.4091 C   0  0  0  0  0  0
  -26.1389  -29.1627   20.7725 C   0  0  0  0  0  0
  -27.2712  -28.2076   20.7925 C   0  0  0  0  0  0
  -26.0020  -26.6178   19.5516 C   0  0  0  0  0  0
  -24.9178  -27.5359   19.4929 C   0  0  0  0  0  0
  -23.7425  -29.7219   20.1464 C   0  0  0  0  0  0
  -25.4155  -36.2949   24.0270 C   0  0  1  0  0  0
  -20.5931  -28.3723   23.1190 C   0  0  2  0  0  0
  -20.6807  -26.9409   22.5400 C   0  0  0  0  0  0
  -19.5806  -26.6350   21.5200 C   0  0  0  0  0  0
  -18.1959  -26.7920   22.1577 C   0  0  0  0  0  0
  -19.1557  -28.8883   23.2788 C   0  0  0  0  0  0
  -18.9482  -30.1468   23.8823 C   0  0  0  0  0  0
  -17.6486  -30.6606   24.0512 C   0  0  0  0  0  0
  -25.9121  -34.9332   23.4992 C   0  0  0  0  0  0
  -16.5374  -29.9079   23.6354 C   0  0  0  0  0  0
  -16.7277  -28.6487   23.0366 C   0  0  0  0  0  0
  -26.4601  -31.6535   25.0697 C   0  0  0  0  0  0
  -25.3707  -31.3772   26.1319 C   0  0  0  0  0  0
  -27.0509  -30.2903   24.6458 C   0  0  0  0  0  0
  -27.6077  -32.4376   25.7512 C   0  0  0  0  0  0
  -27.5574  -37.1740   24.8463 C   0  0  0  0  0  0
  -21.4367  -29.2980   22.3527 N   0  0  0  0  0  0
  -26.4289  -37.3677   23.9394 N   0  0  0  0  0  0
  -24.7631  -30.9692   22.0838 N   0  0  0  0  0  0
  -23.4235  -28.7823   23.2976 O   0  0  0  0  0  0
  -28.2320  -25.6857   20.1423 O   0  0  0  0  0  0
  -26.5741  -34.8874   22.4599 O   0  0  0  0  0  0
  -23.5724  -32.1174   23.6623 O   0  0  0  0  0  0
  -29.4527  -21.4359   20.7457 C   0  0  0  0  0  0
  -27.8164  -20.3451   19.9075 C   0  0  0  0  0  0
  -29.1297  -20.0243   20.4272 C   0  0  0  0  0  0
  -27.4285  -21.7079   20.0650 C   0  0  0  0  0  0
  -26.9204  -19.3219   19.3035 C   0  0  0  0  0  0
  -25.3966  -22.9733   21.0576 C   0  0  0  0  0  0
  -24.7878  -21.7700   20.4072 C   0  0  0  0  0  0
  -26.0860  -22.3510   19.8653 C   0  0  0  0  0  0
  -26.8130  -18.8125   16.8283 C   0  0  0  0  0  0
  -29.9827  -18.4090   20.4968 C   0  0  0  0  0  0
  -27.5034  -18.4937   18.1622 C   0  0  0  0  0  0
  -28.3044  -24.2490   20.9543 C   0  0  0  0  0  0
  -28.4640  -22.5712   20.5044 N   0  0  0  0  0  0
  -29.6491  -16.7283   20.5116 N   0  0  0  0  0  0
  -25.7620  -19.1126   19.6630 O   0  0  0  0  0  0
  -31.4443  -13.1492   19.2203 H   0  0  0  0  0  0
  -30.5247  -12.0401   20.1880 H   0  0  0  0  0  0
  -29.9621  -11.8189   17.7208 H   0  0  0  0  0  0
  -29.5201  -13.5097   17.6718 H   0  0  0  0  0  0
  -28.1052  -11.2830   19.1520 H   0  0  0  0  0  0
  -27.4350  -12.2901   17.8882 H   0  0  0  0  0  0
  -27.5003  -14.2310   19.2961 H   0  0  0  0  0  0
  -28.8294  -12.6232   21.5318 H   0  0  0  0  0  0
  -28.2300  -14.2580   21.6746 H   0  0  0  0  0  0
  -25.2761   -9.5707   22.4764 H   0  0  0  0  0  0
  -24.0012   -7.4644   22.7469 H   0  0  0  0  0  0
  -21.0841   -8.8787   19.8953 H   0  0  0  0  0  0
  -22.3697  -10.9681   19.6167 H   0  0  0  0  0  0
  -21.2016   -7.6142   23.9725 H   0  0  0  0  0  0
  -21.1495   -6.0510   25.9085 H   0  0  0  0  0  0
  -22.0586   -2.7595   23.2852 H   0  0  0  0  0  0
  -22.4026  -11.9872   22.4859 H   0  0  0  0  0  0
  -21.1015  -13.1227   22.2661 H   0  0  0  0  0  0
  -24.6175  -15.8429   20.4967 H   0  0  0  0  0  0
  -26.2465  -15.6452   20.1010 H   0  0  0  0  0  0
  -26.7426  -32.5101   23.0859 H   0  0  0  0  0  0
  -25.0034  -33.9477   25.0131 H   0  0  0  0  0  0
  -22.8030  -31.2426   21.3353 H   0  0  0  0  0  0
  -23.3790  -35.9488   23.3301 H   0  0  0  0  0  0
  -24.3545  -36.8860   22.2062 H   0  0  0  0  0  0
  -23.7266  -37.6345   23.6755 H   0  0  0  0  0  0
  -26.2369  -31.3217   20.6164 H   0  0  0  0  0  0
  -26.9265  -30.6750   22.0596 H   0  0  0  0  0  0
  -28.1828  -28.5087   21.2895 H   0  0  0  0  0  0
  -25.8545  -25.6679   19.0559 H   0  0  0  0  0  0
  -24.0212  -27.2442   18.9645 H   0  0  0  0  0  0
  -23.8946  -30.4849   19.3810 H   0  0  0  0  0  0
  -22.8599  -29.1632   19.8319 H   0  0  0  0  0  0
  -25.1369  -36.1723   25.0757 H   0  0  0  0  0  0
  -20.9974  -28.3339   24.1326 H   0  0  0  0  0  0
  -20.5745  -26.2301   23.3613 H   0  0  0  0  0  0
  -21.6665  -26.7429   22.1176 H   0  0  0  0  0  0
  -19.7004  -25.6247   21.1269 H   0  0  0  0  0  0
  -19.6799  -27.3142   20.6724 H   0  0  0  0  0  0
  -17.4243  -26.6617   21.3976 H   0  0  0  0  0  0
  -18.0358  -26.0089   22.8996 H   0  0  0  0  0  0
  -19.7963  -30.7258   24.2200 H   0  0  0  0  0  0
  -17.5052  -31.6298   24.5102 H   0  0  0  0  0  0
  -15.5374  -30.2958   23.7769 H   0  0  0  0  0  0
  -15.8640  -28.0805   22.7153 H   0  0  0  0  0  0
  -24.5916  -30.7124   25.7572 H   0  0  0  0  0  0
  -24.8869  -32.2960   26.4640 H   0  0  0  0  0  0
  -25.7898  -30.8977   27.0172 H   0  0  0  0  0  0
  -26.3176  -29.6562   24.1456 H   0  0  0  0  0  0
  -27.4020  -29.7293   25.5134 H   0  0  0  0  0  0
  -27.9142  -30.4071   23.9899 H   0  0  0  0  0  0
  -27.2650  -33.3752   26.1909 H   0  0  0  0  0  0
  -28.3983  -32.6820   25.0399 H   0  0  0  0  0  0
  -28.0658  -31.8628   26.5568 H   0  0  0  0  0  0
  -28.2540  -38.0075   24.7496 H   0  0  0  0  0  0
  -28.1107  -36.2584   24.6322 H   0  0  0  0  0  0
  -27.2249  -37.1397   25.8849 H   0  0  0  0  0  0
  -20.9649  -29.8576   21.6562 H   0  0  0  0  0  0
  -26.0131  -38.2712   24.1474 H   0  0  0  0  0  0
  -30.3787  -21.7602   21.2046 H   0  0  0  0  0  0
  -25.8502  -22.8190   22.0348 H   0  0  0  0  0  0
  -24.9179  -23.9372   20.9111 H   0  0  0  0  0  0
  -23.8786  -21.9221   19.8299 H   0  0  0  0  0  0
  -24.7951  -20.8769   21.0309 H   0  0  0  0  0  0
  -26.0579  -22.9382   18.9481 H   0  0  0  0  0  0
  -27.1928  -18.1765   16.0295 H   0  0  0  0  0  0
  -26.9815  -19.8535   16.5482 H   0  0  0  0  0  0
  -25.7358  -18.6548   16.8867 H   0  0  0  0  0  0
  -30.6746  -18.5337   21.3303 H   0  0  0  0  0  0
  -30.6242  -18.4839   19.6177 H   0  0  0  0  0  0
  -27.3888  -17.4376   18.4087 H   0  0  0  0  0  0
  -28.5707  -18.6909   18.0734 H   0  0  0  0  0  0
  -29.1716  -24.4169   21.5952 H   0  0  0  0  0  0
  -27.4794  -24.3024   21.6588 H   0  0  0  0  0  0
  -28.6674  -16.5521   20.6653 H   0  0  0  0  0  0
  1 25  1  0  0  0
  1 30  2  0  0  0
  1 84  1  0  0  0
  2  3  1  0  0  0
  2 25  1  0  0  0
  2 86  1  0  0  0
  2 87  1  0  0  0
  3  4  1  0  0  0
  3 88  1  0  0  0
  3 89  1  0  0  0
  4  5  1  0  0  0
  4 90  1  0  0  0
  4 91  1  0  0  0
  5  6  1  0  0  0
  5 26  1  0  0  0
  5 92  1  0  0  0
  6 25  1  0  0  0
  6 93  1  0  0  0
  6 94  1  0  0  0
  7  8  2  0  0  0
  7 26  1  0  0  0
  7 29  1  0  0  0
  8  9  1  0  0  0
  8 22  1  0  0  0
  9 10  1  0  0  0
  9 27  2  0  0  0
 10 11  2  0  0  0
 10 15  1  0  0  0
 11 12  1  0  0  0
 11 95  1  0  0  0
 12 13  2  0  0  0
 12 96  1  0  0  0
 13 14  1  0  0  0
 13 31  1  0  0  0
 14 15  2  0  0  0
 14 97  1  0  0  0
 15 98  1  0  0  0
 16 17  2  0  0  0
 16 21  1  0  0  0
 16 31  1  0  0  0
 17 18  1  0  0  0
 17 99  1  0  0  0
 18 19  2  0  0  0
 18100  1  0  0  0
 19 20  1  0  0  0
 19 24  1  0  0  0
 20 21  2  0  0  0
 20101  1  0  0  0
 21 23  1  0  0  0
 22 28  1  0  0  0
 22 32  2  0  0  0
 26 27  1  0  0  0
 28102  1  0  0  0
 28103  1  0  0  0
 29104  1  0  0  0
 29105  1  0  0  0
 33 34  1  0  0  0
 33 66  1  0  0  0
 33 70  2  0  0  0
 34 36  1  0  0  0
 34 59  1  0  0  0
 34106  1  0  0  0
 35 44  2  0  0  0
 35 45  1  0  0  0
 35 68  1  0  0  0
 36 56  1  0  0  0
 36107  1  0  0  0
 37 39  1  0  0  0
 37 47  1  0  0  0
 37 66  1  0  0  0
 37108  1  0  0  0
 38 43  2  0  0  0
 38 46  1  0  0  0
 38 47  1  0  0  0
 39 64  1  0  0  0
 39 67  2  0  0  0
 40 52  1  0  0  0
 40 53  2  0  0  0
 40 58  1  0  0  0
 41109  1  0  0  0
 41110  1  0  0  0
 41111  1  0  0  0
 41 48  1  0  0  0
 42 43  1  0  0  0
 42 66  1  0  0  0
 42112  1  0  0  0
 42113  1  0  0  0
 43 44  1  0  0  0
 44114  1  0  0  0
 45 46  2  0  0  0
 45115  1  0  0  0
 46116  1  0  0  0
 47117  1  0  0  0
 47118  1  0  0  0
 48 56  1  0  0  0
 48 65  1  0  0  0
 48119  1  0  0  0
 49 50  1  0  0  0
 49 53  1  0  0  0
 49 64  1  0  0  0
 49120  1  0  0  0
 50 51  1  0  0  0
 50121  1  0  0  0
 50122  1  0  0  0
 51 52  1  0  0  0
 51123  1  0  0  0
 51124  1  0  0  0
 52125  1  0  0  0
 52126  1  0  0  0
 53 54  1  0  0  0
 54 55  2  0  0  0
 54127  1  0  0  0
 55 57  1  0  0  0
 55128  1  0  0  0
 56 69  2  0  0  0
 57 58  2  0  0  0
 57129  1  0  0  0
 58130  1  0  0  0
 59 60  1  0  0  0
 59 61  1  0  0  0
 59 62  1  0  0  0
 60131  1  0  0  0
 60132  1  0  0  0
 60133  1  0  0  0
 61134  1  0  0  0
 61135  1  0  0  0
 61136  1  0  0  0
 62137  1  0  0  0
 62138  1  0  0  0
 62139  1  0  0  0
 63 65  1  0  0  0
 63140  1  0  0  0
 63141  1  0  0  0
 63142  1  0  0  0
 64143  1  0  0  0
 65144  1  0  0  0
 68 82  1  0  0  0
 71 73  2  0  0  0
 71 83  1  0  0  0
 71145  1  0  0  0
 72 73  1  0  0  0
 72 74  2  0  0  0
 72 75  1  0  0  0
 73 80  1  0  0  0
 74 83  1  0  0  0
 74 78  1  0  0  0
 75 81  1  0  0  0
 75 85  2  0  0  0
 76 77  1  0  0  0
 76 78  1  0  0  0
 76146  1  0  0  0
 76147  1  0  0  0
 77 78  1  0  0  0
 77148  1  0  0  0
 77149  1  0  0  0
 78150  1  0  0  0
 79 81  1  0  0  0
 79151  1  0  0  0
 79152  1  0  0  0
 79153  1  0  0  0
 80 84  1  0  0  0
 80154  1  0  0  0
 80155  1  0  0  0
 81156  1  0  0  0
 81157  1  0  0  0
 82 83  1  0  0  0
 82158  1  0  0  0
 82159  1  0  0  0
 84160  1  0  0  0
M  ISO  4   1 100  68 101  82 101  84 100
M  END
> <chiral flag>
0

> <version>
0

> <s_m_source_file>
/data/baiqing/PycharmProjects/Reinvent-master-3.2/result/LINK_invent/BTK/process_docking_weight1_custom_sum_contain_oxygen_bond_distance_aromatic_linkinvent_7_9_3/rearranged_h_0105.sdf

> <i_m_source_file_index>
23

> <r_mmod_Potential_Energy-OPLS-2005>
1716.53295898438

> <r_mmod_Stretch_Energy-OPLS-2005>
740.31689453125

> <r_mmod_Bend_Energy-OPLS-2005>
546.3056640625

> <r_mmod_Torsional_Energy-OPLS-2005>
305.912719726562

> <r_mmod_Improper_Torsional_Energy-OPLS-2005>
8.51802825927734

> <r_mmod_Van_der_Waal_Energy-OPLS-2005>
100.027923583984

> <r_mmod_Electrostatic_Energy-OPLS-2005>
-381.011444091797

> <r_mmod_Solvation_Energy-OPLS-2005>
-221.014739990234

> <b_mmod_Minimization_Converged-OPLS-2005>
0

> <r_mmod_RMS_Derivative-OPLS-2005>
4.782874584198

$$$$
23
                    3D
 Structure written by MMmdl.
160168  0  0  1  0            999 V2000
  -30.5874  -14.7558   20.4536 C   0  0  0  0  0  0
  -30.4335  -12.4533   19.4685 C   0  0  0  0  0  0
  -29.5147  -12.5217   18.2293 C   0  0  0  0  0  0
  -28.0359  -12.3564   18.6338 C   0  0  0  0  0  0
  -27.6471  -13.2331   19.8559 C   0  0  2  0  0  0
  -28.6941  -13.1363   20.9878 C   0  0  0  0  0  0
  -25.2514  -13.8170   20.5678 C   0  0  0  0  0  0
  -24.1807  -13.0417   20.9209 C   0  0  0  0  0  0
  -24.6399  -11.6899   20.8711 C   0  0  0  0  0  0
  -23.9065  -10.4279   21.0371 C   0  0  0  0  0  0
  -24.3615   -9.4205   21.9168 C   0  0  0  0  0  0
  -23.6290   -8.2244   22.0750 C   0  0  0  0  0  0
  -22.4267   -8.0268   21.3549 C   0  0  0  0  0  0
  -21.9897   -9.0224   20.4646 C   0  0  0  0  0  0
  -22.7221  -10.2113   20.3035 C   0  0  0  0  0  0
  -21.6858   -6.0713   22.5272 C   0  0  0  0  0  0
  -21.4022   -6.5630   23.8200 C   0  0  0  0  0  0
  -21.3662   -5.6793   24.9170 C   0  0  0  0  0  0
  -21.6045   -4.3053   24.7227 C   0  0  0  0  0  0
  -21.8818   -3.8142   23.4348 C   0  0  0  0  0  0
  -21.9195   -4.6949   22.3399 C   0  0  0  0  0  0
  -22.7838  -13.5210   21.1857 C   0  0  0  0  0  0
  -22.1664   -4.2130   21.0979 F   0  0  0  0  0  0
  -21.5627   -3.4530   25.7741 F   0  0  0  0  0  0
  -29.9929  -13.5099   20.4095 N   0  0  0  0  0  0
  -26.2961  -12.9395   20.3279 N   0  0  0  0  0  0
  -25.9336  -11.6540   20.5732 N   0  0  0  0  0  0
  -22.0478  -12.8191   22.0406 N   0  0  0  0  0  0
  -25.4147  -15.1896   20.4075 N   0  0  0  0  0  0
  -31.7738  -14.8763   20.1217 O   0  0  0  0  0  0
  -21.6646   -6.8855   21.4232 O   0  0  0  0  0  0
  -22.3517  -14.5500   20.6703 O   0  0  0  0  0  0
  -24.6309  -31.8536   23.1941 C   0  0  0  0  0  0
  -25.9113  -32.4763   23.8300 C   0  0  1  0  0  0
  -27.2181  -27.2360   20.1654 C   0  0  0  0  0  0
  -25.5894  -33.8563   24.2249 N   0  0  0  0  0  0
  -23.4302  -30.4718   21.5355 C   0  0  2  0  0  0
  -24.8780  -28.9097   20.1092 C   0  0  0  0  0  0
  -22.7513  -29.4586   22.4887 C   0  0  0  0  0  0
  -18.0305  -28.1425   22.8496 C   0  0  0  0  0  0
  -24.1448  -36.7246   23.2660 C   0  0  0  0  0  0
  -25.9748  -30.7652   21.3737 C   0  0  0  0  0  0
  -26.0448  -29.3818   20.7218 C   0  0  0  0  0  0
  -27.2147  -28.5573   20.7346 C   0  0  0  0  0  0
  -26.0325  -26.8322   19.5155 C   0  0  0  0  0  0
  -24.8794  -27.6477   19.4918 C   0  0  0  0  0  0
  -23.6515  -29.8009   20.1499 C   0  0  0  0  0  0
  -25.4102  -36.3090   24.0347 C   0  0  1  0  0  0
  -20.5907  -28.3727   23.1268 C   0  0  2  0  0  0
  -20.6778  -26.9433   22.5421 C   0  0  0  0  0  0
  -19.5758  -26.6417   21.5222 C   0  0  0  0  0  0
  -18.1931  -26.7969   22.1617 C   0  0  0  0  0  0
  -19.1569  -28.8880   23.2864 C   0  0  0  0  0  0
  -18.9484  -30.1476   23.8899 C   0  0  0  0  0  0
  -17.6496  -30.6616   24.0566 C   0  0  0  0  0  0
  -25.9050  -34.9473   23.5123 C   0  0  0  0  0  0
  -16.5373  -29.9125   23.6357 C   0  0  0  0  0  0
  -16.7289  -28.6554   23.0380 C   0  0  0  0  0  0
  -26.4480  -31.6617   25.0720 C   0  0  0  0  0  0
  -25.3696  -31.3751   26.1432 C   0  0  0  0  0  0
  -27.0331  -30.3051   24.6204 C   0  0  0  0  0  0
  -27.6048  -32.4366   25.7471 C   0  0  0  0  0  0
  -27.5557  -37.1781   24.8497 C   0  0  0  0  0  0
  -21.4218  -29.3027   22.3620 N   0  0  0  0  0  0
  -26.4267  -37.3796   23.9447 N   0  0  0  0  0  0
  -24.6971  -31.0500   22.0910 N   0  0  0  0  0  0
  -23.4207  -28.8173   23.3015 O   0  0  0  0  0  0
  -28.3296  -26.3710   20.2888 O   0  0  0  0  0  0
  -26.5653  -34.8947   22.4697 O   0  0  0  0  0  0
  -23.5455  -32.1349   23.7228 O   0  0  0  0  0  0
  -31.1853  -18.0308   20.2971 C   0  0  0  0  0  0
  -28.9895  -18.3373   20.5487 C   0  0  0  0  0  0
  -29.9618  -17.3327   20.5200 C   0  0  0  0  0  0
  -30.9293  -19.3866   20.1571 C   0  0  0  0  0  0
  -31.8967  -20.4954   19.8695 C   0  0  0  0  0  0
  -28.9819  -21.7382   22.4235 C   0  0  0  0  0  0
  -27.4694  -24.2046   22.1317 C   0  0  0  0  0  0
  -28.8133  -20.9668   20.0414 C   0  0  0  0  0  0
  -28.3903  -24.9181   19.8692 C   0  0  0  0  0  0
  -28.9998  -22.2954   20.9751 C   0  0  1  0  0  0
  -28.0089  -23.6286   20.7966 C   0  0  2  0  0  0
  -29.5492  -19.6282   20.2932 N   0  0  0  0  0  0
  -29.7689  -15.8605   20.6860 N   0  0  0  0  0  0
  -31.4760  -12.5713   19.1726 H   0  0  0  0  0  0
  -30.3677  -11.4703   19.9366 H   0  0  0  0  0  0
  -29.7916  -11.7497   17.5110 H   0  0  0  0  0  0
  -29.6560  -13.4761   17.7161 H   0  0  0  0  0  0
  -27.8756  -11.3036   18.8691 H   0  0  0  0  0  0
  -27.3860  -12.5863   17.7859 H   0  0  0  0  0  0
  -27.6446  -14.2635   19.4993 H   0  0  0  0  0  0
  -28.7330  -12.1248   21.3976 H   0  0  0  0  0  0
  -28.4341  -13.7935   21.8173 H   0  0  0  0  0  0
  -25.2749   -9.5686   22.4742 H   0  0  0  0  0  0
  -23.9989   -7.4638   22.7483 H   0  0  0  0  0  0
  -21.0835   -8.8750   19.8953 H   0  0  0  0  0  0
  -22.3673  -10.9651   19.6149 H   0  0  0  0  0  0
  -21.2023   -7.6136   23.9702 H   0  0  0  0  0  0
  -21.1487   -6.0518   25.9069 H   0  0  0  0  0  0
  -22.0597   -2.7588   23.2856 H   0  0  0  0  0  0
  -22.4139  -11.9867   22.4815 H   0  0  0  0  0  0
  -21.1079  -13.1206   22.2598 H   0  0  0  0  0  0
  -24.6325  -15.8284   20.5044 H   0  0  0  0  0  0
  -26.2351  -15.6308   20.0156 H   0  0  0  0  0  0
  -26.7183  -32.5410   23.1046 H   0  0  0  0  0  0
  -25.0013  -33.9702   25.0358 H   0  0  0  0  0  0
  -22.7280  -31.2950   21.3812 H   0  0  0  0  0  0
  -23.3760  -35.9522   23.3359 H   0  0  0  0  0  0
  -24.3510  -36.8834   22.2065 H   0  0  0  0  0  0
  -23.7128  -37.6428   23.6654 H   0  0  0  0  0  0
  -26.1173  -31.5204   20.5977 H   0  0  0  0  0  0
  -26.8497  -30.8131   22.0095 H   0  0  0  0  0  0
  -28.1093  -28.9143   21.2268 H   0  0  0  0  0  0
  -25.9637  -25.8591   19.0535 H   0  0  0  0  0  0
  -23.9828  -27.2787   19.0122 H   0  0  0  0  0  0
  -23.7881  -30.5765   19.3937 H   0  0  0  0  0  0
  -22.7676  -29.2404   19.8437 H   0  0  0  0  0  0
  -25.1264  -36.1946   25.0838 H   0  0  0  0  0  0
  -21.0002  -28.3310   24.1372 H   0  0  0  0  0  0
  -20.5680  -26.2323   23.3609 H   0  0  0  0  0  0
  -21.6648  -26.7456   22.1186 H   0  0  0  0  0  0
  -19.6910  -25.6326   21.1237 H   0  0  0  0  0  0
  -19.6712  -27.3230   20.6734 H   0  0  0  0  0  0
  -17.4198  -26.6742   21.4014 H   0  0  0  0  0  0
  -18.0311  -26.0110   22.9012 H   0  0  0  0  0  0
  -19.7970  -30.7291   24.2271 H   0  0  0  0  0  0
  -17.5063  -31.6306   24.5172 H   0  0  0  0  0  0
  -15.5384  -30.3043   23.7686 H   0  0  0  0  0  0
  -15.8671  -28.0860   22.7117 H   0  0  0  0  0  0
  -24.5921  -30.7041   25.7772 H   0  0  0  0  0  0
  -24.8797  -32.2891   26.4810 H   0  0  0  0  0  0
  -25.8005  -30.9000   27.0242 H   0  0  0  0  0  0
  -26.2915  -29.6810   24.1212 H   0  0  0  0  0  0
  -27.4023  -29.7330   25.4719 H   0  0  0  0  0  0
  -27.8783  -30.4374   23.9441 H   0  0  0  0  0  0
  -27.2698  -33.3721   26.1957 H   0  0  0  0  0  0
  -28.3870  -32.6827   25.0286 H   0  0  0  0  0  0
  -28.0673  -31.8532   26.5443 H   0  0  0  0  0  0
  -28.2618  -38.0041   24.7548 H   0  0  0  0  0  0
  -28.1006  -36.2580   24.6321 H   0  0  0  0  0  0
  -27.2276  -37.1434   25.8901 H   0  0  0  0  0  0
  -20.9441  -29.8702   21.6760 H   0  0  0  0  0  0
  -26.0166  -38.2865   24.1490 H   0  0  0  0  0  0
  -32.1717  -17.5912   20.2243 H   0  0  0  0  0  0
  -27.9192  -18.2540   20.6811 H   0  0  0  0  0  0
  -32.8717  -20.0982   19.5868 H   0  0  0  0  0  0
  -32.0508  -21.1184   20.7525 H   0  0  0  0  0  0
  -31.5577  -21.1317   19.0507 H   0  0  0  0  0  0
  -29.7727  -21.0010   22.5763 H   0  0  0  0  0  0
  -28.0336  -21.2404   22.6311 H   0  0  0  0  0  0
  -29.1347  -22.4999   23.1901 H   0  0  0  0  0  0
  -26.6457  -24.8964   21.9483 H   0  0  0  0  0  0
  -28.2448  -24.7611   22.6648 H   0  0  0  0  0  0
  -27.0630  -23.4451   22.8005 H   0  0  0  0  0  0
  -27.7529  -20.7210   20.0451 H   0  0  0  0  0  0
  -29.0277  -21.2450   19.0090 H   0  0  0  0  0  0
  -27.8720  -24.8228   18.9174 H   0  0  0  0  0  0
  -29.4375  -24.7784   19.6042 H   0  0  0  0  0  0
  -30.0167  -22.6572   20.8180 H   0  0  0  0  0  0
  -27.1143  -23.2085   20.3355 H   0  0  0  0  0  0
  -28.8266  -15.5816   20.9209 H   0  0  0  0  0  0
  1 25  1  0  0  0
  1 30  2  0  0  0
  1 83  1  0  0  0
  2  3  1  0  0  0
  2 25  1  0  0  0
  2 84  1  0  0  0
  2 85  1  0  0  0
  3  4  1  0  0  0
  3 86  1  0  0  0
  3 87  1  0  0  0
  4  5  1  0  0  0
  4 88  1  0  0  0
  4 89  1  0  0  0
  5  6  1  0  0  0
  5 26  1  0  0  0
  5 90  1  0  0  0
  6 25  1  0  0  0
  6 91  1  0  0  0
  6 92  1  0  0  0
  7  8  2  0  0  0
  7 26  1  0  0  0
  7 29  1  0  0  0
  8  9  1  0  0  0
  8 22  1  0  0  0
  9 10  1  0  0  0
  9 27  2  0  0  0
 10 11  2  0  0  0
 10 15  1  0  0  0
 11 12  1  0  0  0
 11 93  1  0  0  0
 12 13  2  0  0  0
 12 94  1  0  0  0
 13 14  1  0  0  0
 13 31  1  0  0  0
 14 15  2  0  0  0
 14 95  1  0  0  0
 15 96  1  0  0  0
 16 17  2  0  0  0
 16 21  1  0  0  0
 16 31  1  0  0  0
 17 18  1  0  0  0
 17 97  1  0  0  0
 18 19  2  0  0  0
 18 98  1  0  0  0
 19 20  1  0  0  0
 19 24  1  0  0  0
 20 21  2  0  0  0
 20 99  1  0  0  0
 21 23  1  0  0  0
 22 28  1  0  0  0
 22 32  2  0  0  0
 26 27  1  0  0  0
 28100  1  0  0  0
 28101  1  0  0  0
 29102  1  0  0  0
 29103  1  0  0  0
 33 34  1  0  0  0
 33 66  1  0  0  0
 33 70  2  0  0  0
 34 36  1  0  0  0
 34 59  1  0  0  0
 34104  1  0  0  0
 35 44  2  0  0  0
 35 45  1  0  0  0
 35 68  1  0  0  0
 36 56  1  0  0  0
 36105  1  0  0  0
 37 39  1  0  0  0
 37 47  1  0  0  0
 37 66  1  0  0  0
 37106  1  0  0  0
 38 43  2  0  0  0
 38 46  1  0  0  0
 38 47  1  0  0  0
 39 64  1  0  0  0
 39 67  2  0  0  0
 40 52  1  0  0  0
 40 53  2  0  0  0
 40 58  1  0  0  0
 41107  1  0  0  0
 41108  1  0  0  0
 41109  1  0  0  0
 41 48  1  0  0  0
 42 43  1  0  0  0
 42 66  1  0  0  0
 42110  1  0  0  0
 42111  1  0  0  0
 43 44  1  0  0  0
 44112  1  0  0  0
 45 46  2  0  0  0
 45113  1  0  0  0
 46114  1  0  0  0
 47115  1  0  0  0
 47116  1  0  0  0
 48 56  1  0  0  0
 48 65  1  0  0  0
 48117  1  0  0  0
 49 50  1  0  0  0
 49 53  1  0  0  0
 49 64  1  0  0  0
 49118  1  0  0  0
 50 51  1  0  0  0
 50119  1  0  0  0
 50120  1  0  0  0
 51 52  1  0  0  0
 51121  1  0  0  0
 51122  1  0  0  0
 52123  1  0  0  0
 52124  1  0  0  0
 53 54  1  0  0  0
 54 55  2  0  0  0
 54125  1  0  0  0
 55 57  1  0  0  0
 55126  1  0  0  0
 56 69  2  0  0  0
 57 58  2  0  0  0
 57127  1  0  0  0
 58128  1  0  0  0
 59 60  1  0  0  0
 59 61  1  0  0  0
 59 62  1  0  0  0
 60129  1  0  0  0
 60130  1  0  0  0
 60131  1  0  0  0
 61132  1  0  0  0
 61133  1  0  0  0
 61134  1  0  0  0
 62135  1  0  0  0
 62136  1  0  0  0
 62137  1  0  0  0
 63 65  1  0  0  0
 63138  1  0  0  0
 63139  1  0  0  0
 63140  1  0  0  0
 64141  1  0  0  0
 65142  1  0  0  0
 68 79  1  0  0  0
 71 73  1  0  0  0
 71 74  2  0  0  0
 71143  1  0  0  0
 72 73  2  0  0  0
 72 82  1  0  0  0
 72144  1  0  0  0
 73 83  1  0  0  0
 74 75  1  0  0  0
 74 82  1  0  0  0
 75145  1  0  0  0
 75146  1  0  0  0
 75147  1  0  0  0
 76148  1  0  0  0
 76149  1  0  0  0
 76150  1  0  0  0
 76 80  1  0  0  0
 77151  1  0  0  0
 77152  1  0  0  0
 77153  1  0  0  0
 77 81  1  0  0  0
 78 80  1  0  0  0
 78 82  1  0  0  0
 78154  1  0  0  0
 78155  1  0  0  0
 79 81  1  0  0  0
 79156  1  0  0  0
 79157  1  0  0  0
 80 81  1  0  0  0
 80158  1  0  0  0
 81159  1  0  0  0
 83160  1  0  0  0
M  ISO  4   1 100  68 101  79 101  83 100
M  END
> <chiral flag>
0

> <version>
0

> <s_m_source_file>
/data/baiqing/PycharmProjects/Reinvent-master-3.2/result/LINK_invent/BTK/process_docking_weight1_custom_sum_contain_oxygen_bond_distance_aromatic_linkinvent_7_9_3/rearranged_h_0105.sdf

> <i_m_source_file_index>
24

> <r_mmod_Potential_Energy-OPLS-2005>
274.562622070312

> <r_mmod_Stretch_Energy-OPLS-2005>
150.399063110352

> <r_mmod_Bend_Energy-OPLS-2005>
219.790649414062

> <r_mmod_Torsional_Energy-OPLS-2005>
248.745635986328

> <r_mmod_Improper_Torsional_Energy-OPLS-2005>
5.52827739715576

> <r_mmod_Van_der_Waal_Energy-OPLS-2005>
113.027809143066

> <r_mmod_Electrostatic_Energy-OPLS-2005>
-349.498931884766

> <r_mmod_Solvation_Energy-OPLS-2005>
-207.022430419922

> <b_mmod_Minimization_Converged-OPLS-2005>
0

> <r_mmod_RMS_Derivative-OPLS-2005>
5.87696933746338

$$$$
24
                    3D
 Structure written by MMmdl.
161169  0  0  1  0            999 V2000
  -29.5914  -14.1721   21.0426 C   0  0  0  0  0  0
  -30.6497  -12.5507   19.3216 C   0  0  0  0  0  0
  -29.8030  -12.5292   17.9776 C   0  0  0  0  0  0
  -28.2766  -12.2533   18.0866 C   0  0  0  0  0  0
  -27.9260  -12.9999   19.3008 C   0  0  2  0  0  0
  -28.7305  -12.2119   20.4385 C   0  0  0  0  0  0
  -25.2431  -14.2769   20.0579 C   0  0  0  0  0  0
  -24.2566  -13.5210   21.2540 C   0  0  0  0  0  0
  -24.8701  -11.8849   21.6308 C   0  0  0  0  0  0
  -24.0237  -10.5920   21.4673 C   0  0  0  0  0  0
  -24.4150   -9.4457   22.1790 C   0  0  0  0  0  0
  -23.6747   -8.2391   22.1608 C   0  0  0  0  0  0
  -22.5003   -8.1024   21.3887 C   0  0  0  0  0  0
  -22.1579   -9.1860   20.5437 C   0  0  0  0  0  0
  -22.9121  -10.3972   20.5710 C   0  0  0  0  0  0
  -21.6995   -6.1103   22.5003 C   0  0  0  0  0  0
  -21.4125   -6.5879   23.7974 C   0  0  0  0  0  0
  -21.3630   -5.7001   24.8925 C   0  0  0  0  0  0
  -21.5978   -4.3251   24.6998 C   0  0  0  0  0  0
  -21.8734   -3.8399   23.4095 C   0  0  0  0  0  0
  -21.9181   -4.7279   22.3141 C   0  0  0  0  0  0
  -22.7761  -13.7644   21.2948 C   0  0  0  0  0  0
  -22.1689   -4.2408   21.0768 F   0  0  0  0  0  0
  -21.5560   -3.4678   25.7484 F   0  0  0  0  0  0
  -29.8521  -12.9727   20.4930 N   0  0  0  0  0  0
  -26.6470  -13.0233   19.6723 N   0  0  0  0  0  0
  -26.2985  -11.6089   20.7767 N   0  0  0  0  0  0
  -22.0081  -12.9739   22.0396 N   0  0  0  0  0  0
  -25.1726  -15.5276   19.5421 N   0  0  0  0  0  0
  -30.5754  -14.9601   20.8652 O   0  0  0  0  0  0
  -21.7209   -6.9568   21.4016 O   0  0  0  0  0  0
  -22.2894  -14.6613   20.6211 O   0  0  0  0  0  0
  -24.6317  -31.8565   23.2034 C   0  0  0  0  0  0
  -25.9152  -32.4746   23.8346 C   0  0  1  0  0  0
  -27.1023  -27.1507   20.2474 C   0  0  0  0  0  0
  -25.5959  -33.8557   24.2259 N   0  0  0  0  0  0
  -23.4250  -30.4886   21.5459 C   0  0  2  0  0  0
  -24.8599  -28.9445   20.0914 C   0  0  0  0  0  0
  -22.7481  -29.4611   22.4869 C   0  0  0  0  0  0
  -18.0283  -28.1392   22.8475 C   0  0  0  0  0  0
  -24.1492  -36.7285   23.2638 C   0  0  0  0  0  0
  -25.9747  -30.7462   21.3929 C   0  0  0  0  0  0
  -26.0290  -29.3652   20.7412 C   0  0  0  0  0  0
  -27.1594  -28.4808   20.8031 C   0  0  0  0  0  0
  -25.9554  -26.8536   19.4825 C   0  0  0  0  0  0
  -24.8443  -27.7096   19.4289 C   0  0  0  0  0  0
  -23.6422  -29.8471   20.1490 C   0  0  0  0  0  0
  -25.4117  -36.3079   24.0332 C   0  0  1  0  0  0
  -20.5889  -28.3704   23.1251 C   0  0  2  0  0  0
  -20.6784  -26.9427   22.5388 C   0  0  0  0  0  0
  -19.5750  -26.6394   21.5200 C   0  0  0  0  0  0
  -18.1932  -26.7930   22.1625 C   0  0  0  0  0  0
  -19.1537  -28.8858   23.2864 C   0  0  0  0  0  0
  -18.9467  -30.1459   23.8885 C   0  0  0  0  0  0
  -17.6466  -30.6593   24.0558 C   0  0  0  0  0  0
  -25.9056  -34.9444   23.5090 C   0  0  0  0  0  0
  -16.5353  -29.9085   23.6335 C   0  0  0  0  0  0
  -16.7273  -28.6505   23.0352 C   0  0  0  0  0  0
  -26.4520  -31.6583   25.0737 C   0  0  0  0  0  0
  -25.3749  -31.3719   26.1454 C   0  0  0  0  0  0
  -27.0380  -30.3005   24.6236 C   0  0  0  0  0  0
  -27.6062  -32.4327   25.7512 C   0  0  0  0  0  0
  -27.5586  -37.1788   24.8466 C   0  0  0  0  0  0
  -21.4187  -29.3046   22.3618 N   0  0  0  0  0  0
  -26.4292  -37.3782   23.9418 N   0  0  0  0  0  0
  -24.6967  -31.0509   22.1019 N   0  0  0  0  0  0
  -23.4174  -28.8146   23.2970 O   0  0  0  0  0  0
  -28.0757  -26.1423   20.4881 O   0  0  0  0  0  0
  -26.5632  -34.8911   22.4662 O   0  0  0  0  0  0
  -23.5460  -32.1410   23.7308 O   0  0  0  0  0  0
  -26.4939  -16.5869   21.8759 C   0  0  0  0  0  0
  -25.8125  -15.3454   23.7907 C   0  0  0  0  0  0
  -25.9097  -17.7156   23.8976 C   0  0  0  0  0  0
  -26.2392  -15.2318   22.4557 C   0  0  0  0  0  0
  -26.2870  -17.8855   22.5470 C   0  0  0  0  0  0
  -24.6895  -19.6819   21.8178 C   0  0  0  0  0  0
  -26.5353  -13.6860   21.7848 C   0  0  0  0  0  0
  -27.4820  -23.5185   21.6174 C   0  0  0  0  0  0
  -26.9367  -20.8288   22.3110 C   0  0  0  0  0  0
  -27.7824  -24.6235   20.3990 C   0  0  0  0  0  0
  -26.2136  -19.3779   21.8348 C   0  0  1  0  0  0
  -25.6883  -16.5111   24.4862 N   0  0  0  0  0  0
  -28.1902  -14.3298   21.6237 N   0  0  0  0  0  0
  -27.0983  -22.0176   21.2754 N   0  3  0  0  0  0
  -31.5095  -13.2107   19.2013 H   0  0  0  0  0  0
  -31.0723  -11.5628   19.5238 H   0  0  0  0  0  0
  -30.2588  -11.8263   17.2812 H   0  0  0  0  0  0
  -29.9190  -13.5063   17.5071 H   0  0  0  0  0  0
  -28.0616  -11.1829   18.1639 H   0  0  0  0  0  0
  -27.7422  -12.6189   17.2054 H   0  0  0  0  0  0
  -28.1365  -14.0497   19.0671 H   0  0  0  0  0  0
  -28.9380  -11.1762   20.1578 H   0  0  0  0  0  0
  -28.4260  -12.0373   21.4739 H   0  0  0  0  0  0
  -25.2828   -9.5094   22.8180 H   0  0  0  0  0  0
  -24.0133   -7.4200   22.7784 H   0  0  0  0  0  0
  -21.3088   -9.1075   19.8807 H   0  0  0  0  0  0
  -22.5927  -11.2085   19.9338 H   0  0  0  0  0  0
  -21.2336   -7.6412   23.9569 H   0  0  0  0  0  0
  -21.1473   -6.0752   25.8828 H   0  0  0  0  0  0
  -22.0522   -2.7876   23.2516 H   0  0  0  0  0  0
  -22.3611  -12.1937   22.5701 H   0  0  0  0  0  0
  -21.0090  -13.1457   22.0354 H   0  0  0  0  0  0
  -24.2473  -15.9304   19.6509 H   0  0  0  0  0  0
  -25.5561  -15.7272   18.6284 H   0  0  0  0  0  0
  -26.7203  -32.5335   23.1057 H   0  0  0  0  0  0
  -25.0136  -33.9722   25.0422 H   0  0  0  0  0  0
  -22.7203  -31.3122   21.4156 H   0  0  0  0  0  0
  -23.3759  -35.9609   23.3290 H   0  0  0  0  0  0
  -24.3589  -36.8911   22.2054 H   0  0  0  0  0  0
  -23.7228  -37.6476   23.6665 H   0  0  0  0  0  0
  -26.1231  -31.5010   20.6186 H   0  0  0  0  0  0
  -26.8491  -30.7873   22.0296 H   0  0  0  0  0  0
  -28.0292  -28.7810   21.3658 H   0  0  0  0  0  0
  -25.8601  -25.9214   18.9457 H   0  0  0  0  0  0
  -23.9625  -27.4110   18.8713 H   0  0  0  0  0  0
  -23.7767  -30.6373   19.4088 H   0  0  0  0  0  0
  -22.7477  -29.3038   19.8319 H   0  0  0  0  0  0
  -25.1289  -36.1941   25.0828 H   0  0  0  0  0  0
  -20.9991  -28.3308   24.1368 H   0  0  0  0  0  0
  -20.5696  -26.2320   23.3593 H   0  0  0  0  0  0
  -21.6654  -26.7457   22.1171 H   0  0  0  0  0  0
  -19.6921  -25.6301   21.1235 H   0  0  0  0  0  0
  -19.6700  -27.3197   20.6721 H   0  0  0  0  0  0
  -17.4200  -26.6650   21.4038 H   0  0  0  0  0  0
  -18.0353  -26.0074   22.9027 H   0  0  0  0  0  0
  -19.7946  -30.7276   24.2253 H   0  0  0  0  0  0
  -17.5027  -31.6274   24.5165 H   0  0  0  0  0  0
  -15.5358  -30.2994   23.7675 H   0  0  0  0  0  0
  -15.8666  -28.0837   22.7071 H   0  0  0  0  0  0
  -24.5907  -30.7109   25.7757 H   0  0  0  0  0  0
  -24.8970  -32.2879   26.4926 H   0  0  0  0  0  0
  -25.8049  -30.8841   27.0210 H   0  0  0  0  0  0
  -26.2990  -29.6728   24.1243 H   0  0  0  0  0  0
  -27.4048  -29.7298   25.4776 H   0  0  0  0  0  0
  -27.8864  -30.4272   23.9506 H   0  0  0  0  0  0
  -27.2662  -33.3591   26.2154 H   0  0  0  0  0  0
  -28.3837  -32.6951   25.0330 H   0  0  0  0  0  0
  -28.0797  -31.8437   26.5376 H   0  0  0  0  0  0
  -28.2587  -38.0106   24.7550 H   0  0  0  0  0  0
  -28.1106  -36.2635   24.6250 H   0  0  0  0  0  0
  -27.2314  -37.1387   25.8873 H   0  0  0  0  0  0
  -20.9345  -29.8809   21.6875 H   0  0  0  0  0  0
  -26.0171  -38.2855   24.1434 H   0  0  0  0  0  0
  -26.8696  -16.6466   20.8660 H   0  0  0  0  0  0
  -25.6198  -14.4485   24.3622 H   0  0  0  0  0  0
  -25.7178  -18.5711   24.5249 H   0  0  0  0  0  0
  -24.1207  -18.8729   21.3504 H   0  0  0  0  0  0
  -24.4330  -20.5996   21.2874 H   0  0  0  0  0  0
  -24.3036  -19.8007   22.8376 H   0  0  0  0  0  0
  -24.9570  -12.4873   19.8943 H   0  0  0  0  0  0
  -26.6436  -13.0625   22.6821 H   0  0  0  0  0  0
  -26.6811  -23.9335   22.2295 H   0  0  0  0  0  0
  -28.3603  -23.4936   22.2666 H   0  0  0  0  0  0
  -27.9276  -20.6217   22.7202 H   0  0  0  0  0  0
  -26.3586  -21.2240   23.1544 H   0  0  0  0  0  0
  -27.0467  -24.4279   19.6285 H   0  0  0  0  0  0
  -28.6949  -24.2615   19.9261 H   0  0  0  0  0  0
  -26.5327  -19.2251   20.8021 H   0  0  0  0  0  0
  -28.1728  -15.2500   22.0327 H   0  0  0  0  0  0
  -27.8064  -21.6868   20.6361 H   0  0  0  0  0  0
  -26.2372  -22.0579   20.7517 H   0  0  0  0  0  0
  1 25  1  0  0  0
  1 30  2  0  0  0
  1 83  1  0  0  0
  2  3  1  0  0  0
  2 25  1  0  0  0
  2 85  1  0  0  0
  2 86  1  0  0  0
  3  4  1  0  0  0
  3 87  1  0  0  0
  3 88  1  0  0  0
  4  5  1  0  0  0
  4 89  1  0  0  0
  4 90  1  0  0  0
  5  6  1  0  0  0
  5 26  1  0  0  0
  5 91  1  0  0  0
  6 25  1  0  0  0
  6 92  1  0  0  0
  6 93  1  0  0  0
  7  8  2  0  0  0
  7 26  1  0  0  0
  7 29  1  0  0  0
  8  9  1  0  0  0
  8 22  1  0  0  0
  9 10  1  0  0  0
  9 27  2  0  0  0
 10 11  2  0  0  0
 10 15  1  0  0  0
 11 12  1  0  0  0
 11 94  1  0  0  0
 12 13  2  0  0  0
 12 95  1  0  0  0
 13 14  1  0  0  0
 13 31  1  0  0  0
 14 15  2  0  0  0
 14 96  1  0  0  0
 15 97  1  0  0  0
 16 17  2  0  0  0
 16 21  1  0  0  0
 16 31  1  0  0  0
 17 18  1  0  0  0
 17 98  1  0  0  0
 18 19  2  0  0  0
 18 99  1  0  0  0
 19 20  1  0  0  0
 19 24  1  0  0  0
 20 21  2  0  0  0
 20100  1  0  0  0
 21 23  1  0  0  0
 22 28  1  0  0  0
 22 32  2  0  0  0
 26 27  1  0  0  0
 28101  1  0  0  0
 28102  1  0  0  0
 29103  1  0  0  0
 29104  1  0  0  0
 33 34  1  0  0  0
 33 66  1  0  0  0
 33 70  2  0  0  0
 34 36  1  0  0  0
 34 59  1  0  0  0
 34105  1  0  0  0
 35 44  2  0  0  0
 35 45  1  0  0  0
 35 68  1  0  0  0
 36 56  1  0  0  0
 36106  1  0  0  0
 37 39  1  0  0  0
 37 47  1  0  0  0
 37 66  1  0  0  0
 37107  1  0  0  0
 38 43  2  0  0  0
 38 46  1  0  0  0
 38 47  1  0  0  0
 39 64  1  0  0  0
 39 67  2  0  0  0
 40 52  1  0  0  0
 40 53  2  0  0  0
 40 58  1  0  0  0
 41108  1  0  0  0
 41109  1  0  0  0
 41110  1  0  0  0
 41 48  1  0  0  0
 42 43  1  0  0  0
 42 66  1  0  0  0
 42111  1  0  0  0
 42112  1  0  0  0
 43 44  1  0  0  0
 44113  1  0  0  0
 45 46  2  0  0  0
 45114  1  0  0  0
 46115  1  0  0  0
 47116  1  0  0  0
 47117  1  0  0  0
 48 56  1  0  0  0
 48 65  1  0  0  0
 48118  1  0  0  0
 49 50  1  0  0  0
 49 53  1  0  0  0
 49 64  1  0  0  0
 49119  1  0  0  0
 50 51  1  0  0  0
 50120  1  0  0  0
 50121  1  0  0  0
 51 52  1  0  0  0
 51122  1  0  0  0
 51123  1  0  0  0
 52124  1  0  0  0
 52125  1  0  0  0
 53 54  1  0  0  0
 54 55  2  0  0  0
 54126  1  0  0  0
 55 57  1  0  0  0
 55127  1  0  0  0
 56 69  2  0  0  0
 57 58  2  0  0  0
 57128  1  0  0  0
 58129  1  0  0  0
 59 60  1  0  0  0
 59 61  1  0  0  0
 59 62  1  0  0  0
 60130  1  0  0  0
 60131  1  0  0  0
 60132  1  0  0  0
 61133  1  0  0  0
 61134  1  0  0  0
 61135  1  0  0  0
 62136  1  0  0  0
 62137  1  0  0  0
 62138  1  0  0  0
 63 65  1  0  0  0
 63139  1  0  0  0
 63140  1  0  0  0
 63141  1  0  0  0
 64142  1  0  0  0
 65143  1  0  0  0
 68 80  1  0  0  0
 71 74  2  0  0  0
 71 75  1  0  0  0
 71144  1  0  0  0
 72 74  1  0  0  0
 72 82  2  0  0  0
 72145  1  0  0  0
 73 75  2  0  0  0
 73 82  1  0  0  0
 73146  1  0  0  0
 74 77  1  0  0  0
 75 81  1  0  0  0
 76147  1  0  0  0
 76148  1  0  0  0
 76149  1  0  0  0
 76 81  1  0  0  0
 77 83  1  0  0  0
 77150  1  0  0  0
 77151  1  0  0  0
 78 80  1  0  0  0
 78 84  1  0  0  0
 78152  1  0  0  0
 78153  1  0  0  0
 79 81  1  0  0  0
 79 84  1  0  0  0
 79154  1  0  0  0
 79155  1  0  0  0
 80156  1  0  0  0
 80157  1  0  0  0
 81158  1  0  0  0
 83159  1  0  0  0
 84160  1  0  0  0
 84161  1  0  0  0
M  CHG  1  84   1
M  ISO  4   1 100  68 101  80 101  83 100
M  END
> <chiral flag>
0

> <version>
0

> <s_m_source_file>
/data/baiqing/PycharmProjects/Reinvent-master-3.2/result/LINK_invent/BTK/process_docking_weight1_custom_sum_contain_oxygen_bond_distance_aromatic_linkinvent_7_9_3/rearranged_h_0105.sdf

> <i_m_source_file_index>
25

> <r_mmod_Potential_Energy-OPLS-2005>
9822.9453125

> <r_mmod_Stretch_Energy-OPLS-2005>
6133.4482421875

> <r_mmod_Bend_Energy-OPLS-2005>
586.756591796875

> <r_mmod_Torsional_Energy-OPLS-2005>
387.994964599609

> <r_mmod_Improper_Torsional_Energy-OPLS-2005>
46.2398948669434

> <r_mmod_Van_der_Waal_Energy-OPLS-2005>
2462.61962890625

> <r_mmod_Electrostatic_Energy-OPLS-2005>
-396.80029296875

> <r_mmod_Solvation_Energy-OPLS-2005>
-475.988555908203

> <b_mmod_Minimization_Converged-OPLS-2005>
0

> <r_mmod_RMS_Derivative-OPLS-2005>
22.7317523956299

$$$$
25
                    3D
 Structure written by MMmdl.
155163  0  0  1  0            999 V2000
  -30.5518  -14.9654   20.3985 C   0  0  0  0  0  0
  -30.4343  -12.5956   19.5030 C   0  0  0  0  0  0
  -29.5219  -12.5367   18.2562 C   0  0  0  0  0  0
  -28.0539  -12.3191   18.6690 C   0  0  0  0  0  0
  -27.6255  -13.2551   19.8300 C   0  0  2  0  0  0
  -28.6686  -13.3057   20.9676 C   0  0  0  0  0  0
  -25.2440  -13.8233   20.5710 C   0  0  0  0  0  0
  -24.1770  -13.0447   20.9239 C   0  0  0  0  0  0
  -24.6387  -11.6936   20.8743 C   0  0  0  0  0  0
  -23.9080  -10.4295   21.0388 C   0  0  0  0  0  0
  -24.3620   -9.4211   21.9164 C   0  0  0  0  0  0
  -23.6306   -8.2246   22.0743 C   0  0  0  0  0  0
  -22.4291   -8.0281   21.3538 C   0  0  0  0  0  0
  -21.9932   -9.0239   20.4632 C   0  0  0  0  0  0
  -22.7258  -10.2124   20.3034 C   0  0  0  0  0  0
  -21.6865   -6.0734   22.5270 C   0  0  0  0  0  0
  -21.4007   -6.5628   23.8204 C   0  0  0  0  0  0
  -21.3663   -5.6782   24.9165 C   0  0  0  0  0  0
  -21.6050   -4.3045   24.7210 C   0  0  0  0  0  0
  -21.8813   -3.8134   23.4324 C   0  0  0  0  0  0
  -21.9191   -4.6951   22.3388 C   0  0  0  0  0  0
  -22.7793  -13.5208   21.1891 C   0  0  0  0  0  0
  -22.1660   -4.2129   21.0967 F   0  0  0  0  0  0
  -21.5645   -3.4532   25.7724 F   0  0  0  0  0  0
  -29.9453  -13.7095   20.3677 N   0  0  0  0  0  0
  -26.2865  -12.9474   20.3199 N   0  0  0  0  0  0
  -25.9317  -11.6598   20.5693 N   0  0  0  0  0  0
  -22.0435  -12.8194   22.0438 N   0  0  0  0  0  0
  -25.4095  -15.1965   20.4140 N   0  0  0  0  0  0
  -31.7579  -15.0072   20.1388 O   0  0  0  0  0  0
  -21.6644   -6.8884   21.4245 O   0  0  0  0  0  0
  -22.3470  -14.5498   20.6704 O   0  0  0  0  0  0
  -24.6458  -31.8407   23.1890 C   0  0  0  0  0  0
  -25.9223  -32.4668   23.8284 C   0  0  1  0  0  0
  -27.2166  -27.1114   20.1633 C   0  0  0  0  0  0
  -25.5976  -33.8481   24.2200 N   0  0  0  0  0  0
  -23.4519  -30.4596   21.5317 C   0  0  2  0  0  0
  -24.9047  -28.8824   20.1096 C   0  0  0  0  0  0
  -22.7566  -29.4531   22.4826 C   0  0  0  0  0  0
  -18.0307  -28.1395   22.8471 C   0  0  0  0  0  0
  -24.1509  -36.7242   23.2640 C   0  0  0  0  0  0
  -26.0093  -30.7063   21.3941 C   0  0  0  0  0  0
  -26.0811  -29.3158   20.7341 C   0  0  0  0  0  0
  -27.2369  -28.4455   20.7450 C   0  0  0  0  0  0
  -26.0174  -26.7855   19.4933 C   0  0  0  0  0  0
  -24.8870  -27.6320   19.4718 C   0  0  0  0  0  0
  -23.6840  -29.7881   20.1516 C   0  0  0  0  0  0
  -25.4138  -36.3006   24.0320 C   0  0  1  0  0  0
  -20.5923  -28.3717   23.1225 C   0  0  2  0  0  0
  -20.6793  -26.9415   22.5408 C   0  0  0  0  0  0
  -19.5770  -26.6375   21.5213 C   0  0  0  0  0  0
  -18.1943  -26.7936   22.1618 C   0  0  0  0  0  0
  -19.1563  -28.8876   23.2839 C   0  0  0  0  0  0
  -18.9474  -30.1475   23.8855 C   0  0  0  0  0  0
  -17.6471  -30.6587   24.0559 C   0  0  0  0  0  0
  -25.9086  -34.9386   23.5061 C   0  0  0  0  0  0
  -16.5361  -29.9076   23.6352 C   0  0  0  0  0  0
  -16.7293  -28.6508   23.0351 C   0  0  0  0  0  0
  -26.4551  -31.6533   25.0714 C   0  0  0  0  0  0
  -25.3739  -31.3716   26.1406 C   0  0  0  0  0  0
  -27.0424  -30.2924   24.6316 C   0  0  0  0  0  0
  -27.6081  -32.4295   25.7510 C   0  0  0  0  0  0
  -27.5584  -37.1773   24.8452 C   0  0  0  0  0  0
  -21.4257  -29.3041   22.3570 N   0  0  0  0  0  0
  -26.4288  -37.3728   23.9410 N   0  0  0  0  0  0
  -24.7217  -31.0232   22.0937 N   0  0  0  0  0  0
  -23.4194  -28.8070   23.2986 O   0  0  0  0  0  0
  -28.2622  -26.1135   20.2465 O   0  0  0  0  0  0
  -26.5638  -34.8884   22.4619 O   0  0  0  0  0  0
  -23.5573  -32.1300   23.7090 O   0  0  0  0  0  0
  -27.9972  -18.9078   20.9635 C   0  0  0  0  0  0
  -27.1761  -20.0303   21.2029 C   0  0  0  0  0  0
  -29.2922  -19.0554   20.4370 C   0  0  0  0  0  0
  -29.6415  -20.4915   20.1746 C   0  0  0  0  0  0
  -28.7263  -21.6421   20.4643 C   0  0  0  0  0  0
  -32.0386  -21.1597   20.7105 C   0  0  0  0  0  0
  -30.1998  -17.6788   20.2230 C   0  0  0  0  0  0
  -29.0261  -23.2869   20.5068 C   0  0  0  0  0  0
  -27.9926  -24.5724   20.1040 C   0  0  0  0  0  0
  -31.0298  -20.8128   19.6081 C   0  0  0  0  0  0
  -27.5191  -21.3265   20.9852 N   0  0  0  0  0  0
  -29.7963  -16.1713   20.4977 N   0  0  0  0  0  0
  -30.9527  -21.8272   18.7472 F   0  0  0  0  0  0
  -31.5232  -19.7898   18.9153 F   0  0  0  0  0  0
  -31.4695  -12.7431   19.1960 H   0  0  0  0  0  0
  -30.4182  -11.6481   20.0448 H   0  0  0  0  0  0
  -29.8501  -11.7458   17.5816 H   0  0  0  0  0  0
  -29.6076  -13.4685   17.6954 H   0  0  0  0  0  0
  -27.9496  -11.2784   18.9760 H   0  0  0  0  0  0
  -27.3953  -12.4469   17.8088 H   0  0  0  0  0  0
  -27.5811  -14.2540   19.3935 H   0  0  0  0  0  0
  -28.7588  -12.3418   21.4686 H   0  0  0  0  0  0
  -28.3658  -14.0254   21.7304 H   0  0  0  0  0  0
  -25.2754   -9.5699   22.4747 H   0  0  0  0  0  0
  -24.0004   -7.4643   22.7472 H   0  0  0  0  0  0
  -21.0867   -8.8748   19.8933 H   0  0  0  0  0  0
  -22.3700  -10.9652   19.6137 H   0  0  0  0  0  0
  -21.1978   -7.6131   23.9708 H   0  0  0  0  0  0
  -21.1521   -6.0504   25.9079 H   0  0  0  0  0  0
  -22.0589   -2.7593   23.2818 H   0  0  0  0  0  0
  -22.4056  -11.9854   22.4831 H   0  0  0  0  0  0
  -21.1030  -13.1189   22.2590 H   0  0  0  0  0  0
  -24.6399  -15.8469   20.5304 H   0  0  0  0  0  0
  -26.2388  -15.6329   20.0335 H   0  0  0  0  0  0
  -26.7266  -32.5262   23.0991 H   0  0  0  0  0  0
  -25.0150  -33.9599   25.0364 H   0  0  0  0  0  0
  -22.7582  -31.2876   21.3736 H   0  0  0  0  0  0
  -23.3787  -35.9550   23.3252 H   0  0  0  0  0  0
  -24.3614  -36.8924   22.2065 H   0  0  0  0  0  0
  -23.7246  -37.6417   23.6718 H   0  0  0  0  0  0
  -26.1673  -31.4618   20.6232 H   0  0  0  0  0  0
  -26.8786  -30.7561   22.0392 H   0  0  0  0  0  0
  -28.1292  -28.7667   21.2643 H   0  0  0  0  0  0
  -25.9232  -25.8313   18.9968 H   0  0  0  0  0  0
  -23.9895  -27.2977   18.9702 H   0  0  0  0  0  0
  -23.8272  -30.5633   19.3984 H   0  0  0  0  0  0
  -22.7998  -29.2335   19.8318 H   0  0  0  0  0  0
  -25.1331  -36.1825   25.0808 H   0  0  0  0  0  0
  -21.0016  -28.3307   24.1355 H   0  0  0  0  0  0
  -20.5707  -26.2312   23.3623 H   0  0  0  0  0  0
  -21.6647  -26.7432   22.1183 H   0  0  0  0  0  0
  -19.6924  -25.6281   21.1259 H   0  0  0  0  0  0
  -19.6728  -27.3170   20.6735 H   0  0  0  0  0  0
  -17.4224  -26.6693   21.4005 H   0  0  0  0  0  0
  -18.0329  -26.0082   22.9012 H   0  0  0  0  0  0
  -19.7944  -30.7299   24.2195 H   0  0  0  0  0  0
  -17.5027  -31.6263   24.5160 H   0  0  0  0  0  0
  -15.5360  -30.2957   23.7721 H   0  0  0  0  0  0
  -15.8692  -28.0831   22.7070 H   0  0  0  0  0  0
  -24.5925  -30.7053   25.7721 H   0  0  0  0  0  0
  -24.8922  -32.2888   26.4797 H   0  0  0  0  0  0
  -25.8029  -30.8907   27.0200 H   0  0  0  0  0  0
  -26.3030  -29.6608   24.1363 H   0  0  0  0  0  0
  -27.4060  -29.7262   25.4901 H   0  0  0  0  0  0
  -27.8939  -30.4151   23.9618 H   0  0  0  0  0  0
  -27.2672  -33.3611   26.2040 H   0  0  0  0  0  0
  -28.3925  -32.6814   25.0356 H   0  0  0  0  0  0
  -28.0701  -31.8429   26.5460 H   0  0  0  0  0  0
  -28.2542  -38.0125   24.7546 H   0  0  0  0  0  0
  -28.1138  -36.2653   24.6221 H   0  0  0  0  0  0
  -27.2297  -37.1318   25.8846 H   0  0  0  0  0  0
  -20.9462  -29.8727   21.6731 H   0  0  0  0  0  0
  -26.0146  -38.2781   24.1448 H   0  0  0  0  0  0
  -27.6202  -17.9225   21.2008 H   0  0  0  0  0  0
  -26.1901  -19.8780   21.6167 H   0  0  0  0  0  0
  -31.7044  -21.9985   21.3200 H   0  0  0  0  0  0
  -33.0041  -21.4296   20.2824 H   0  0  0  0  0  0
  -32.1993  -20.3095   21.3737 H   0  0  0  0  0  0
  -31.1300  -17.8456   20.7671 H   0  0  0  0  0  0
  -30.4880  -17.6797   19.1719 H   0  0  0  0  0  0
  -29.9544  -23.4810   19.9799 H   0  0  0  0  0  0
  -29.2959  -23.4601   21.5486 H   0  0  0  0  0  0
  -27.0741  -24.3895   20.6638 H   0  0  0  0  0  0
  -27.7239  -24.4148   19.0589 H   0  0  0  0  0  0
  -28.8143  -16.0313   20.6728 H   0  0  0  0  0  0
  1 25  1  0  0  0
  1 30  2  0  0  0
  1 82  1  0  0  0
  2  3  1  0  0  0
  2 25  1  0  0  0
  2 85  1  0  0  0
  2 86  1  0  0  0
  3  4  1  0  0  0
  3 87  1  0  0  0
  3 88  1  0  0  0
  4  5  1  0  0  0
  4 89  1  0  0  0
  4 90  1  0  0  0
  5  6  1  0  0  0
  5 26  1  0  0  0
  5 91  1  0  0  0
  6 25  1  0  0  0
  6 92  1  0  0  0
  6 93  1  0  0  0
  7  8  2  0  0  0
  7 26  1  0  0  0
  7 29  1  0  0  0
  8  9  1  0  0  0
  8 22  1  0  0  0
  9 10  1  0  0  0
  9 27  2  0  0  0
 10 11  2  0  0  0
 10 15  1  0  0  0
 11 12  1  0  0  0
 11 94  1  0  0  0
 12 13  2  0  0  0
 12 95  1  0  0  0
 13 14  1  0  0  0
 13 31  1  0  0  0
 14 15  2  0  0  0
 14 96  1  0  0  0
 15 97  1  0  0  0
 16 17  2  0  0  0
 16 21  1  0  0  0
 16 31  1  0  0  0
 17 18  1  0  0  0
 17 98  1  0  0  0
 18 19  2  0  0  0
 18 99  1  0  0  0
 19 20  1  0  0  0
 19 24  1  0  0  0
 20 21  2  0  0  0
 20100  1  0  0  0
 21 23  1  0  0  0
 22 28  1  0  0  0
 22 32  2  0  0  0
 26 27  1  0  0  0
 28101  1  0  0  0
 28102  1  0  0  0
 29103  1  0  0  0
 29104  1  0  0  0
 33 34  1  0  0  0
 33 66  1  0  0  0
 33 70  2  0  0  0
 34 36  1  0  0  0
 34 59  1  0  0  0
 34105  1  0  0  0
 35 44  2  0  0  0
 35 45  1  0  0  0
 35 68  1  0  0  0
 36 56  1  0  0  0
 36106  1  0  0  0
 37 39  1  0  0  0
 37 47  1  0  0  0
 37 66  1  0  0  0
 37107  1  0  0  0
 38 43  2  0  0  0
 38 46  1  0  0  0
 38 47  1  0  0  0
 39 64  1  0  0  0
 39 67  2  0  0  0
 40 52  1  0  0  0
 40 53  2  0  0  0
 40 58  1  0  0  0
 41108  1  0  0  0
 41109  1  0  0  0
 41110  1  0  0  0
 41 48  1  0  0  0
 42 43  1  0  0  0
 42 66  1  0  0  0
 42111  1  0  0  0
 42112  1  0  0  0
 43 44  1  0  0  0
 44113  1  0  0  0
 45 46  2  0  0  0
 45114  1  0  0  0
 46115  1  0  0  0
 47116  1  0  0  0
 47117  1  0  0  0
 48 56  1  0  0  0
 48 65  1  0  0  0
 48118  1  0  0  0
 49 50  1  0  0  0
 49 53  1  0  0  0
 49 64  1  0  0  0
 49119  1  0  0  0
 50 51  1  0  0  0
 50120  1  0  0  0
 50121  1  0  0  0
 51 52  1  0  0  0
 51122  1  0  0  0
 51123  1  0  0  0
 52124  1  0  0  0
 52125  1  0  0  0
 53 54  1  0  0  0
 54 55  2  0  0  0
 54126  1  0  0  0
 55 57  1  0  0  0
 55127  1  0  0  0
 56 69  2  0  0  0
 57 58  2  0  0  0
 57128  1  0  0  0
 58129  1  0  0  0
 59 60  1  0  0  0
 59 61  1  0  0  0
 59 62  1  0  0  0
 60130  1  0  0  0
 60131  1  0  0  0
 60132  1  0  0  0
 61133  1  0  0  0
 61134  1  0  0  0
 61135  1  0  0  0
 62136  1  0  0  0
 62137  1  0  0  0
 62138  1  0  0  0
 63 65  1  0  0  0
 63139  1  0  0  0
 63140  1  0  0  0
 63141  1  0  0  0
 64142  1  0  0  0
 65143  1  0  0  0
 68 79  1  0  0  0
 71 72  2  0  0  0
 71 73  1  0  0  0
 71144  1  0  0  0
 72 81  1  0  0  0
 72145  1  0  0  0
 73 74  2  0  0  0
 73 77  1  0  0  0
 74 75  1  0  0  0
 74 80  1  0  0  0
 75 78  1  0  0  0
 75 81  2  0  0  0
 76146  1  0  0  0
 76147  1  0  0  0
 76148  1  0  0  0
 76 80  1  0  0  0
 77 82  1  0  0  0
 77149  1  0  0  0
 77150  1  0  0  0
 78 79  1  0  0  0
 78151  1  0  0  0
 78152  1  0  0  0
 79153  1  0  0  0
 79154  1  0  0  0
 80 83  1  0  0  0
 80 84  1  0  0  0
 82155  1  0  0  0
M  ISO  4   1 100  68 101  79 101  82 100
M  END
> <chiral flag>
0

> <version>
0

> <s_m_source_file>
/data/baiqing/PycharmProjects/Reinvent-master-3.2/result/LINK_invent/BTK/process_docking_weight1_custom_sum_contain_oxygen_bond_distance_aromatic_linkinvent_7_9_3/rearranged_h_0105.sdf

> <i_m_source_file_index>
26

> <r_mmod_Potential_Energy-OPLS-2005>
280.826843261719

> <r_mmod_Stretch_Energy-OPLS-2005>
281.291137695312

> <r_mmod_Bend_Energy-OPLS-2005>
253.053787231445

> <r_mmod_Torsional_Energy-OPLS-2005>
202.690460205078

> <r_mmod_Improper_Torsional_Energy-OPLS-2005>
5.99662113189697

> <r_mmod_Van_der_Waal_Energy-OPLS-2005>
134.526168823242

> <r_mmod_Electrostatic_Energy-OPLS-2005>
-583.0029296875

> <r_mmod_Solvation_Energy-OPLS-2005>
-225.324462890625

> <b_mmod_Minimization_Converged-OPLS-2005>
0

> <r_mmod_RMS_Derivative-OPLS-2005>
2.39478850364685

$$$$
26
                    3D
 Structure written by MMmdl.
152159  0  0  1  0            999 V2000
  -30.3322  -15.5613   20.3224 C   0  0  0  0  0  0
  -30.4249  -13.0236   19.5350 C   0  0  0  0  0  0
  -29.5457  -12.6351   18.3140 C   0  0  0  0  0  0
  -28.1147  -12.2946   18.7569 C   0  0  0  0  0  0
  -27.5960  -13.3007   19.8100 C   0  0  2  0  0  0
  -28.6157  -13.6107   20.9299 C   0  0  0  0  0  0
  -25.2328  -13.8277   20.5787 C   0  0  0  0  0  0
  -24.1709  -13.0436   20.9287 C   0  0  0  0  0  0
  -24.6400  -11.6939   20.8761 C   0  0  0  0  0  0
  -23.9102  -10.4290   21.0398 C   0  0  0  0  0  0
  -24.3639   -9.4201   21.9176 C   0  0  0  0  0  0
  -23.6304   -8.2240   22.0751 C   0  0  0  0  0  0
  -22.4285   -8.0282   21.3545 C   0  0  0  0  0  0
  -21.9926   -9.0257   20.4647 C   0  0  0  0  0  0
  -22.7264  -10.2131   20.3050 C   0  0  0  0  0  0
  -21.6858   -6.0736   22.5276 C   0  0  0  0  0  0
  -21.4019   -6.5636   23.8210 C   0  0  0  0  0  0
  -21.3662   -5.6791   24.9174 C   0  0  0  0  0  0
  -21.6044   -4.3055   24.7223 C   0  0  0  0  0  0
  -21.8814   -3.8146   23.4343 C   0  0  0  0  0  0
  -21.9198   -4.6965   22.3402 C   0  0  0  0  0  0
  -22.7727  -13.5173   21.1924 C   0  0  0  0  0  0
  -22.1661   -4.2152   21.0980 F   0  0  0  0  0  0
  -21.5626   -3.4537   25.7736 F   0  0  0  0  0  0
  -29.8016  -14.2068   20.2755 N   0  0  0  0  0  0
  -26.2767  -12.9591   20.3213 N   0  0  0  0  0  0
  -25.9341  -11.6674   20.5689 N   0  0  0  0  0  0
  -22.0391  -12.8151   22.0481 N   0  0  0  0  0  0
  -25.3933  -15.2018   20.4239 N   0  0  0  0  0  0
  -31.5657  -15.5076   20.1617 O   0  0  0  0  0  0
  -21.6644   -6.8880   21.4243 O   0  0  0  0  0  0
  -22.3405  -14.5475   20.6769 O   0  0  0  0  0  0
  -24.6819  -31.8036   23.1538 C   0  0  0  0  0  0
  -25.9422  -32.4479   23.8064 C   0  0  1  0  0  0
  -27.2256  -26.7366   20.2070 C   0  0  0  0  0  0
  -25.6018  -33.8302   24.1964 N   0  0  0  0  0  0
  -23.5051  -30.4073   21.5076 C   0  0  2  0  0  0
  -24.9596  -28.7523   20.1189 C   0  0  0  0  0  0
  -22.7755  -29.4343   22.4728 C   0  0  0  0  0  0
  -18.0344  -28.1431   22.8469 C   0  0  0  0  0  0
  -24.1491  -36.7146   23.2640 C   0  0  0  0  0  0
  -26.0843  -30.5475   21.4114 C   0  0  0  0  0  0
  -26.1496  -29.1154   20.7609 C   0  0  0  0  0  0
  -27.2698  -28.1359   20.7700 C   0  0  0  0  0  0
  -25.9998  -26.5706   19.5146 C   0  0  0  0  0  0
  -24.9213  -27.5043   19.4733 C   0  0  0  0  0  0
  -23.7551  -29.7047   20.1422 C   0  0  0  0  0  0
  -25.4138  -36.2895   24.0278 C   0  0  1  0  0  0
  -20.5976  -28.3786   23.1159 C   0  0  2  0  0  0
  -20.6805  -26.9445   22.5419 C   0  0  0  0  0  0
  -19.5781  -26.6387   21.5230 C   0  0  0  0  0  0
  -18.1966  -26.7961   22.1630 C   0  0  0  0  0  0
  -19.1609  -28.8937   23.2796 C   0  0  0  0  0  0
  -18.9510  -30.1524   23.8838 C   0  0  0  0  0  0
  -17.6496  -30.6609   24.0562 C   0  0  0  0  0  0
  -25.9126  -34.9289   23.4950 C   0  0  0  0  0  0
  -16.5391  -29.9087   23.6354 C   0  0  0  0  0  0
  -16.7321  -28.6512   23.0368 C   0  0  0  0  0  0
  -26.4597  -31.6502   25.0675 C   0  0  0  0  0  0
  -25.3672  -31.3854   26.1308 C   0  0  0  0  0  0
  -27.0487  -30.2827   24.6551 C   0  0  0  0  0  0
  -27.6076  -32.4332   25.7478 C   0  0  0  0  0  0
  -27.5580  -37.1703   24.8442 C   0  0  0  0  0  0
  -21.4406  -29.3031   22.3475 N   0  0  0  0  0  0
  -26.4250  -37.3673   23.9435 N   0  0  0  0  0  0
  -24.7803  -30.9513   22.0769 N   0  0  0  0  0  0
  -23.4212  -28.7947   23.3063 O   0  0  0  0  0  0
  -28.2082  -25.5459   20.2620 O   0  0  0  0  0  0
  -26.5758  -34.8869   22.4560 O   0  0  0  0  0  0
  -23.5849  -32.1097   23.6518 O   0  0  0  0  0  0
  -27.7650  -20.0500   21.4362 C   0  0  0  0  0  0
  -29.8896  -22.3297   18.9636 C   0  0  0  0  0  0
  -29.9693  -22.4056   21.4471 C   0  0  0  0  0  0
  -29.8017  -18.6618   20.2658 C   0  0  0  0  0  0
  -28.0128  -23.8103   20.2106 C   0  0  0  0  0  0
  -28.7571  -20.2760   20.2911 C   0  0  2  0  0  0
  -29.0461  -22.1827   20.2394 C   0  0  0  0  0  0
  -29.5763  -16.9127   20.3579 N   0  0  0  0  0  0
  -31.4256  -13.2703   19.1787 H   0  0  0  0  0  0
  -30.5615  -12.1698   20.2010 H   0  0  0  0  0  0
  -29.9842  -11.7935   17.7758 H   0  0  0  0  0  0
  -29.5192  -13.4693   17.6116 H   0  0  0  0  0  0
  -28.1301  -11.2934   19.1894 H   0  0  0  0  0  0
  -27.4448  -12.2500   17.8971 H   0  0  0  0  0  0
  -27.4650  -14.2270   19.2489 H   0  0  0  0  0  0
  -28.8580  -12.7230   21.5160 H   0  0  0  0  0  0
  -28.1965  -14.3381   21.6268 H   0  0  0  0  0  0
  -25.2776   -9.5682   22.4761 H   0  0  0  0  0  0
  -24.0013   -7.4633   22.7471 H   0  0  0  0  0  0
  -21.0853   -8.8779   19.8953 H   0  0  0  0  0  0
  -22.3712  -10.9673   19.6166 H   0  0  0  0  0  0
  -21.2012   -7.6141   23.9714 H   0  0  0  0  0  0
  -21.1485   -6.0520   25.9079 H   0  0  0  0  0  0
  -22.0594   -2.7610   23.2843 H   0  0  0  0  0  0
  -22.4025  -11.9823   22.4866 H   0  0  0  0  0  0
  -21.1008  -13.1161   22.2693 H   0  0  0  0  0  0
  -24.6202  -15.8488   20.5351 H   0  0  0  0  0  0
  -26.2316  -15.6446   20.0721 H   0  0  0  0  0  0
  -26.7500  -32.4963   23.0774 H   0  0  0  0  0  0
  -25.0095  -33.9338   25.0069 H   0  0  0  0  0  0
  -22.8286  -31.2439   21.3205 H   0  0  0  0  0  0
  -23.3797  -35.9426   23.3187 H   0  0  0  0  0  0
  -24.3576  -36.8923   22.2079 H   0  0  0  0  0  0
  -23.7191  -37.6266   23.6784 H   0  0  0  0  0  0
  -26.2849  -31.2760   20.6248 H   0  0  0  0  0  0
  -26.9356  -30.6114   22.0764 H   0  0  0  0  0  0
  -28.1697  -28.4211   21.2968 H   0  0  0  0  0  0
  -25.8389  -25.6247   19.0170 H   0  0  0  0  0  0
  -24.0209  -27.2163   18.9475 H   0  0  0  0  0  0
  -23.9278  -30.4648   19.3789 H   0  0  0  0  0  0
  -22.8592  -29.1694   19.8214 H   0  0  0  0  0  0
  -25.1334  -36.1638   25.0761 H   0  0  0  0  0  0
  -21.0077  -28.3416   24.1277 H   0  0  0  0  0  0
  -20.5676  -26.2409   23.3678 H   0  0  0  0  0  0
  -21.6664  -26.7384   22.1240 H   0  0  0  0  0  0
  -19.6926  -25.6283   21.1300 H   0  0  0  0  0  0
  -19.6727  -27.3161   20.6731 H   0  0  0  0  0  0
  -17.4241  -26.6737   21.4022 H   0  0  0  0  0  0
  -18.0330  -26.0115   22.9034 H   0  0  0  0  0  0
  -19.7983  -30.7371   24.2174 H   0  0  0  0  0  0
  -17.5036  -31.6278   24.5180 H   0  0  0  0  0  0
  -15.5384  -30.2962   23.7707 H   0  0  0  0  0  0
  -15.8729  -28.0804   22.7106 H   0  0  0  0  0  0
  -24.5870  -30.7172   25.7639 H   0  0  0  0  0  0
  -24.8851  -32.3096   26.4503 H   0  0  0  0  0  0
  -25.7864  -30.9187   27.0233 H   0  0  0  0  0  0
  -26.3184  -29.6481   24.1523 H   0  0  0  0  0  0
  -27.3882  -29.7234   25.5279 H   0  0  0  0  0  0
  -27.9190  -30.3922   24.0079 H   0  0  0  0  0  0
  -27.2652  -33.3721   26.1840 H   0  0  0  0  0  0
  -28.4004  -32.6746   25.0383 H   0  0  0  0  0  0
  -28.0606  -31.8592   26.5572 H   0  0  0  0  0  0
  -28.2492  -38.0101   24.7610 H   0  0  0  0  0  0
  -28.1185  -36.2637   24.6103 H   0  0  0  0  0  0
  -27.2328  -37.1142   25.8845 H   0  0  0  0  0  0
  -20.9709  -29.8662   21.6526 H   0  0  0  0  0  0
  -26.0072  -38.2697   24.1539 H   0  0  0  0  0  0
  -27.3021  -19.0650   21.3654 H   0  0  0  0  0  0
  -26.9654  -20.7909   21.4184 H   0  0  0  0  0  0
  -28.2613  -20.1142   22.4046 H   0  0  0  0  0  0
  -30.3551  -23.3140   18.9002 H   0  0  0  0  0  0
  -29.2716  -22.2041   18.0742 H   0  0  0  0  0  0
  -30.6857  -21.5855   18.9180 H   0  0  0  0  0  0
  -30.4285  -23.3953   21.4222 H   0  0  0  0  0  0
  -30.7745  -21.6701   21.4759 H   0  0  0  0  0  0
  -29.4160  -22.3269   22.3827 H   0  0  0  0  0  0
  -30.5395  -18.8277   21.0513 H   0  0  0  0  0  0
  -30.3861  -18.7598   19.3501 H   0  0  0  0  0  0
  -27.3121  -23.6596   21.0318 H   0  0  0  0  0  0
  -27.3885  -23.6881   19.3259 H   0  0  0  0  0  0
  -28.1609  -20.1434   19.3873 H   0  0  0  0  0  0
  -28.5907  -16.7083   20.4425 H   0  0  0  0  0  0
  1 25  1  0  0  0
  1 30  2  0  0  0
  1 78  1  0  0  0
  2  3  1  0  0  0
  2 25  1  0  0  0
  2 79  1  0  0  0
  2 80  1  0  0  0
  3  4  1  0  0  0
  3 81  1  0  0  0
  3 82  1  0  0  0
  4  5  1  0  0  0
  4 83  1  0  0  0
  4 84  1  0  0  0
  5  6  1  0  0  0
  5 26  1  0  0  0
  5 85  1  0  0  0
  6 25  1  0  0  0
  6 86  1  0  0  0
  6 87  1  0  0  0
  7  8  2  0  0  0
  7 26  1  0  0  0
  7 29  1  0  0  0
  8  9  1  0  0  0
  8 22  1  0  0  0
  9 10  1  0  0  0
  9 27  2  0  0  0
 10 11  2  0  0  0
 10 15  1  0  0  0
 11 12  1  0  0  0
 11 88  1  0  0  0
 12 13  2  0  0  0
 12 89  1  0  0  0
 13 14  1  0  0  0
 13 31  1  0  0  0
 14 15  2  0  0  0
 14 90  1  0  0  0
 15 91  1  0  0  0
 16 17  2  0  0  0
 16 21  1  0  0  0
 16 31  1  0  0  0
 17 18  1  0  0  0
 17 92  1  0  0  0
 18 19  2  0  0  0
 18 93  1  0  0  0
 19 20  1  0  0  0
 19 24  1  0  0  0
 20 21  2  0  0  0
 20 94  1  0  0  0
 21 23  1  0  0  0
 22 28  1  0  0  0
 22 32  2  0  0  0
 26 27  1  0  0  0
 28 95  1  0  0  0
 28 96  1  0  0  0
 29 97  1  0  0  0
 29 98  1  0  0  0
 33 34  1  0  0  0
 33 66  1  0  0  0
 33 70  2  0  0  0
 34 36  1  0  0  0
 34 59  1  0  0  0
 34 99  1  0  0  0
 35 44  2  0  0  0
 35 45  1  0  0  0
 35 68  1  0  0  0
 36 56  1  0  0  0
 36100  1  0  0  0
 37 39  1  0  0  0
 37 47  1  0  0  0
 37 66  1  0  0  0
 37101  1  0  0  0
 38 43  2  0  0  0
 38 46  1  0  0  0
 38 47  1  0  0  0
 39 64  1  0  0  0
 39 67  2  0  0  0
 40 52  1  0  0  0
 40 53  2  0  0  0
 40 58  1  0  0  0
 41102  1  0  0  0
 41103  1  0  0  0
 41104  1  0  0  0
 41 48  1  0  0  0
 42 43  1  0  0  0
 42 66  1  0  0  0
 42105  1  0  0  0
 42106  1  0  0  0
 43 44  1  0  0  0
 44107  1  0  0  0
 45 46  2  0  0  0
 45108  1  0  0  0
 46109  1  0  0  0
 47110  1  0  0  0
 47111  1  0  0  0
 48 56  1  0  0  0
 48 65  1  0  0  0
 48112  1  0  0  0
 49 50  1  0  0  0
 49 53  1  0  0  0
 49 64  1  0  0  0
 49113  1  0  0  0
 50 51  1  0  0  0
 50114  1  0  0  0
 50115  1  0  0  0
 51 52  1  0  0  0
 51116  1  0  0  0
 51117  1  0  0  0
 52118  1  0  0  0
 52119  1  0  0  0
 53 54  1  0  0  0
 54 55  2  0  0  0
 54120  1  0  0  0
 55 57  1  0  0  0
 55121  1  0  0  0
 56 69  2  0  0  0
 57 58  2  0  0  0
 57122  1  0  0  0
 58123  1  0  0  0
 59 60  1  0  0  0
 59 61  1  0  0  0
 59 62  1  0  0  0
 60124  1  0  0  0
 60125  1  0  0  0
 60126  1  0  0  0
 61127  1  0  0  0
 61128  1  0  0  0
 61129  1  0  0  0
 62130  1  0  0  0
 62131  1  0  0  0
 62132  1  0  0  0
 63 65  1  0  0  0
 63133  1  0  0  0
 63134  1  0  0  0
 63135  1  0  0  0
 64136  1  0  0  0
 65137  1  0  0  0
 68 75  1  0  0  0
 71138  1  0  0  0
 71139  1  0  0  0
 71140  1  0  0  0
 71 76  1  0  0  0
 72141  1  0  0  0
 72142  1  0  0  0
 72143  1  0  0  0
 72 77  1  0  0  0
 73 77  1  0  0  0
 73144  1  0  0  0
 73145  1  0  0  0
 73146  1  0  0  0
 74 76  1  0  0  0
 74 78  1  0  0  0
 74147  1  0  0  0
 74148  1  0  0  0
 75 77  1  0  0  0
 75149  1  0  0  0
 75150  1  0  0  0
 76 77  1  0  0  0
 76151  1  0  0  0
 78152  1  0  0  0
M  ISO  4   1 100  68 101  75 101  78 100
M  END
> <chiral flag>
0

> <version>
0

> <s_m_source_file>
/data/baiqing/PycharmProjects/Reinvent-master-3.2/result/LINK_invent/BTK/process_docking_weight1_custom_sum_contain_oxygen_bond_distance_aromatic_linkinvent_7_9_3/rearranged_h_0105.sdf

> <i_m_source_file_index>
27

> <r_mmod_Potential_Energy-OPLS-2005>
2280.1904296875

> <r_mmod_Stretch_Energy-OPLS-2005>
1103.61047363281

> <r_mmod_Bend_Energy-OPLS-2005>
608.954040527344

> <r_mmod_Torsional_Energy-OPLS-2005>
232.375701904297

> <r_mmod_Improper_Torsional_Energy-OPLS-2005>
3.74180364608765

> <r_mmod_Van_der_Waal_Energy-OPLS-2005>
104.706954956055

> <r_mmod_Electrostatic_Energy-OPLS-2005>
-373.337890625

> <r_mmod_Solvation_Energy-OPLS-2005>
-207.104598999023

> <b_mmod_Minimization_Converged-OPLS-2005>
0

> <r_mmod_RMS_Derivative-OPLS-2005>
1.19127416610718

$$$$
27
                    3D
 Structure written by MMmdl.
166173  0  0  1  0            999 V2000
  -30.6874  -14.5410   20.4726 C   0  0  0  0  0  0
  -30.4204  -12.3184   19.4413 C   0  0  0  0  0  0
  -29.4925  -12.4219   18.2132 C   0  0  0  0  0  0
  -28.0084  -12.3272   18.6292 C   0  0  0  0  0  0
  -27.6455  -13.2038   19.8607 C   0  0  2  0  0  0
  -28.6971  -13.0737   20.9837 C   0  0  0  0  0  0
  -25.2521  -13.8129   20.5740 C   0  0  0  0  0  0
  -24.1785  -13.0420   20.9224 C   0  0  0  0  0  0
  -24.6350  -11.6887   20.8785 C   0  0  0  0  0  0
  -23.9026  -10.4280   21.0437 C   0  0  0  0  0  0
  -24.3608   -9.4193   21.9191 C   0  0  0  0  0  0
  -23.6291   -8.2226   22.0769 C   0  0  0  0  0  0
  -22.4264   -8.0270   21.3557 C   0  0  0  0  0  0
  -21.9901   -9.0238   20.4647 C   0  0  0  0  0  0
  -22.7211  -10.2124   20.3077 C   0  0  0  0  0  0
  -21.6846   -6.0744   22.5277 C   0  0  0  0  0  0
  -21.4000   -6.5649   23.8208 C   0  0  0  0  0  0
  -21.3666   -5.6803   24.9166 C   0  0  0  0  0  0
  -21.6070   -4.3072   24.7224 C   0  0  0  0  0  0
  -21.8818   -3.8159   23.4340 C   0  0  0  0  0  0
  -21.9182   -4.6972   22.3403 C   0  0  0  0  0  0
  -22.7799  -13.5207   21.1853 C   0  0  0  0  0  0
  -22.1651   -4.2163   21.0979 F   0  0  0  0  0  0
  -21.5638   -3.4555   25.7741 F   0  0  0  0  0  0
  -30.0126  -13.3589   20.3964 N   0  0  0  0  0  0
  -26.2948  -12.9302   20.3395 N   0  0  0  0  0  0
  -25.9281  -11.6465   20.5847 N   0  0  0  0  0  0
  -22.0474  -12.8201   22.0423 N   0  0  0  0  0  0
  -25.4203  -15.1857   20.4168 N   0  0  0  0  0  0
  -31.8926  -14.6305   20.2244 O   0  0  0  0  0  0
  -21.6634   -6.8868   21.4233 O   0  0  0  0  0  0
  -22.3491  -14.5514   20.6686 O   0  0  0  0  0  0
  -24.6165  -31.8663   23.2089 C   0  0  0  0  0  0
  -25.9055  -32.4814   23.8388 C   0  0  1  0  0  0
  -27.2353  -27.4152   20.1140 C   0  0  0  0  0  0
  -25.5905  -33.8609   24.2314 N   0  0  0  0  0  0
  -23.4051  -30.4895   21.5487 C   0  0  2  0  0  0
  -24.8538  -28.9527   20.1143 C   0  0  0  0  0  0
  -22.7414  -29.4652   22.4981 C   0  0  0  0  0  0
  -18.0272  -28.1378   22.8494 C   0  0  0  0  0  0
  -24.1485  -36.7312   23.2638 C   0  0  0  0  0  0
  -25.9355  -30.8288   21.3630 C   0  0  0  0  0  0
  -26.0143  -29.4615   20.7116 C   0  0  0  0  0  0
  -27.2100  -28.7031   20.7026 C   0  0  0  0  0  0
  -26.0610  -26.9310   19.4963 C   0  0  0  0  0  0
  -24.8738  -27.6892   19.4991 C   0  0  0  0  0  0
  -23.6145  -29.8201   20.1638 C   0  0  0  0  0  0
  -25.4106  -36.3109   24.0339 C   0  0  1  0  0  0
  -20.5862  -28.3663   23.1316 C   0  0  2  0  0  0
  -20.6764  -26.9401   22.5420 C   0  0  0  0  0  0
  -19.5743  -26.6385   21.5219 C   0  0  0  0  0  0
  -18.1919  -26.7927   22.1625 C   0  0  0  0  0  0
  -19.1524  -28.8839   23.2899 C   0  0  0  0  0  0
  -18.9454  -30.1447   23.8913 C   0  0  0  0  0  0
  -17.6455  -30.6588   24.0568 C   0  0  0  0  0  0
  -25.9036  -34.9476   23.5122 C   0  0  0  0  0  0
  -16.5343  -29.9093   23.6331 C   0  0  0  0  0  0
  -16.7261  -28.6509   23.0354 C   0  0  0  0  0  0
  -26.4483  -31.6597   25.0720 C   0  0  0  0  0  0
  -25.3750  -31.3704   26.1465 C   0  0  0  0  0  0
  -27.0310  -30.3039   24.6101 C   0  0  0  0  0  0
  -27.6049  -32.4319   25.7483 C   0  0  0  0  0  0
  -27.5576  -37.1807   24.8466 C   0  0  0  0  0  0
  -21.4137  -29.3037   22.3724 N   0  0  0  0  0  0
  -26.4291  -37.3793   23.9409 N   0  0  0  0  0  0
  -24.6704  -31.0758   22.0986 N   0  0  0  0  0  0
  -23.4189  -28.8199   23.3024 O   0  0  0  0  0  0
  -28.3911  -26.6557   20.1187 O   0  0  0  0  0  0
  -26.5600  -34.8924   22.4682 O   0  0  0  0  0  0
  -23.5352  -32.1420   23.7472 O   0  0  0  0  0  0
  -29.5761  -22.5893   22.7025 C   0  0  0  0  0  0
  -30.6510  -24.5649   19.9716 C   0  0  0  0  0  0
  -29.4758  -16.1086   19.1608 C   0  0  0  0  0  0
  -31.0152  -19.5730   20.0553 C   0  0  0  0  0  0
  -30.3679  -16.8416   21.3164 C   0  0  0  0  0  0
  -29.4688  -18.1370   21.2288 C   0  0  0  0  0  0
  -29.1408  -20.5203   21.2491 C   0  0  0  0  0  0
  -28.2958  -25.3411   20.7217 C   0  0  0  0  0  0
  -29.6077  -22.0270   21.2687 C   0  0  1  0  0  0
  -29.1357  -24.2666   19.9668 C   0  0  2  0  0  0
  -29.9268  -15.6754   20.4967 N   0  0  0  0  0  0
  -30.1671  -19.4453   21.2471 N   0  0  0  0  0  0
  -28.7731  -22.8467   20.3261 N   0  3  0  0  0  0
  -31.4618  -12.4214   19.1322 H   0  0  0  0  0  0
  -30.3380  -11.3358   19.9052 H   0  0  0  0  0  0
  -29.7243  -11.6194   17.5107 H   0  0  0  0  0  0
  -29.6764  -13.3444   17.6660 H   0  0  0  0  0  0
  -27.8039  -11.2793   18.8563 H   0  0  0  0  0  0
  -27.3616  -12.5775   17.7875 H   0  0  0  0  0  0
  -27.6465  -14.2333   19.5163 H   0  0  0  0  0  0
  -28.6824  -12.0695   21.4102 H   0  0  0  0  0  0
  -28.4730  -13.7584   21.8035 H   0  0  0  0  0  0
  -25.2788   -9.5691   22.4708 H   0  0  0  0  0  0
  -24.0008   -7.4617   22.7491 H   0  0  0  0  0  0
  -21.0851   -8.8747   19.8929 H   0  0  0  0  0  0
  -22.3678  -10.9656   19.6180 H   0  0  0  0  0  0
  -21.1987   -7.6149   23.9719 H   0  0  0  0  0  0
  -21.1480   -6.0529   25.9065 H   0  0  0  0  0  0
  -22.0591   -2.7619   23.2841 H   0  0  0  0  0  0
  -22.4129  -11.9845   22.4759 H   0  0  0  0  0  0
  -21.1091  -13.1170   22.2674 H   0  0  0  0  0  0
  -24.6602  -15.8429   20.5545 H   0  0  0  0  0  0
  -26.2826  -15.6221   20.1218 H   0  0  0  0  0  0
  -26.7132  -32.5524   23.1147 H   0  0  0  0  0  0
  -25.0068  -33.9777   25.0472 H   0  0  0  0  0  0
  -22.6942  -31.3072   21.4086 H   0  0  0  0  0  0
  -23.3740  -35.9651   23.3322 H   0  0  0  0  0  0
  -24.3575  -36.8905   22.2050 H   0  0  0  0  0  0
  -23.7254  -37.6526   23.6643 H   0  0  0  0  0  0
  -26.0486  -31.5931   20.5937 H   0  0  0  0  0  0
  -26.8225  -30.8817   21.9824 H   0  0  0  0  0  0
  -28.1058  -29.0930   21.1660 H   0  0  0  0  0  0
  -26.0573  -25.9659   19.0100 H   0  0  0  0  0  0
  -23.9846  -27.2965   19.0248 H   0  0  0  0  0  0
  -23.7200  -30.5954   19.4035 H   0  0  0  0  0  0
  -22.7378  -29.2400   19.8699 H   0  0  0  0  0  0
  -25.1283  -36.1965   25.0836 H   0  0  0  0  0  0
  -20.9956  -28.3242   24.1434 H   0  0  0  0  0  0
  -20.5676  -26.2278   23.3611 H   0  0  0  0  0  0
  -21.6632  -26.7452   22.1204 H   0  0  0  0  0  0
  -19.6907  -25.6304   21.1236 H   0  0  0  0  0  0
  -19.6682  -27.3209   20.6765 H   0  0  0  0  0  0
  -17.4191  -26.6684   21.4024 H   0  0  0  0  0  0
  -18.0310  -26.0060   22.9013 H   0  0  0  0  0  0
  -19.7931  -30.7257   24.2286 H   0  0  0  0  0  0
  -17.5013  -31.6269   24.5163 H   0  0  0  0  0  0
  -15.5350  -30.2998   23.7650 H   0  0  0  0  0  0
  -15.8659  -28.0837   22.7059 H   0  0  0  0  0  0
  -24.5922  -30.7047   25.7810 H   0  0  0  0  0  0
  -24.8943  -32.2860   26.4918 H   0  0  0  0  0  0
  -25.8105  -30.8876   27.0220 H   0  0  0  0  0  0
  -26.2857  -29.6790   24.1158 H   0  0  0  0  0  0
  -27.4088  -29.7277   25.4557 H   0  0  0  0  0  0
  -27.8689  -30.4351   23.9243 H   0  0  0  0  0  0
  -27.2663  -33.3607   26.2075 H   0  0  0  0  0  0
  -28.3850  -32.6891   25.0312 H   0  0  0  0  0  0
  -28.0720  -31.8437   26.5385 H   0  0  0  0  0  0
  -28.2601  -38.0095   24.7498 H   0  0  0  0  0  0
  -28.1060  -36.2626   24.6305 H   0  0  0  0  0  0
  -27.2290  -37.1475   25.8868 H   0  0  0  0  0  0
  -20.9302  -29.8762   21.6945 H   0  0  0  0  0  0
  -26.0177  -38.2868   24.1404 H   0  0  0  0  0  0
  -30.2041  -21.9890   23.3611 H   0  0  0  0  0  0
  -28.5695  -22.5885   23.1229 H   0  0  0  0  0  0
  -29.9564  -23.6079   22.7517 H   0  0  0  0  0  0
  -30.8467  -25.5510   19.5474 H   0  0  0  0  0  0
  -31.2069  -23.8475   19.3676 H   0  0  0  0  0  0
  -31.0745  -24.5626   20.9744 H   0  0  0  0  0  0
  -28.4314  -16.4159   19.1769 H   0  0  0  0  0  0
  -29.5527  -15.3357   18.4010 H   0  0  0  0  0  0
  -30.0741  -16.9401   18.7899 H   0  0  0  0  0  0
  -31.6846  -18.7271   19.9179 H   0  0  0  0  0  0
  -31.6762  -20.4372   20.1261 H   0  0  0  0  0  0
  -30.4274  -19.6707   19.1407 H   0  0  0  0  0  0
  -30.3879  -16.5179   22.3591 H   0  0  0  0  0  0
  -31.4102  -17.0562   21.0883 H   0  0  0  0  0  0
  -28.7832  -18.1056   22.0796 H   0  0  0  0  0  0
  -28.8213  -18.1330   20.3553 H   0  0  0  0  0  0
  -28.5265  -20.3647   20.3598 H   0  0  0  0  0  0
  -28.4588  -20.3576   22.0851 H   0  0  0  0  0  0
  -28.6320  -25.4139   21.7548 H   0  0  0  0  0  0
  -27.2610  -25.0037   20.7770 H   0  0  0  0  0  0
  -30.6352  -22.0898   20.9189 H   0  0  0  0  0  0
  -28.8157  -24.3504   18.9274 H   0  0  0  0  0  0
  -27.8113  -22.8199   20.6284 H   0  0  0  0  0  0
  -28.7905  -22.3376   19.4548 H   0  0  0  0  0  0
  1 25  1  0  0  0
  1 30  2  0  0  0
  1 81  1  0  0  0
  2  3  1  0  0  0
  2 25  1  0  0  0
  2 84  1  0  0  0
  2 85  1  0  0  0
  3  4  1  0  0  0
  3 86  1  0  0  0
  3 87  1  0  0  0
  4  5  1  0  0  0
  4 88  1  0  0  0
  4 89  1  0  0  0
  5  6  1  0  0  0
  5 26  1  0  0  0
  5 90  1  0  0  0
  6 25  1  0  0  0
  6 91  1  0  0  0
  6 92  1  0  0  0
  7  8  2  0  0  0
  7 26  1  0  0  0
  7 29  1  0  0  0
  8  9  1  0  0  0
  8 22  1  0  0  0
  9 10  1  0  0  0
  9 27  2  0  0  0
 10 11  2  0  0  0
 10 15  1  0  0  0
 11 12  1  0  0  0
 11 93  1  0  0  0
 12 13  2  0  0  0
 12 94  1  0  0  0
 13 14  1  0  0  0
 13 31  1  0  0  0
 14 15  2  0  0  0
 14 95  1  0  0  0
 15 96  1  0  0  0
 16 17  2  0  0  0
 16 21  1  0  0  0
 16 31  1  0  0  0
 17 18  1  0  0  0
 17 97  1  0  0  0
 18 19  2  0  0  0
 18 98  1  0  0  0
 19 20  1  0  0  0
 19 24  1  0  0  0
 20 21  2  0  0  0
 20 99  1  0  0  0
 21 23  1  0  0  0
 22 28  1  0  0  0
 22 32  2  0  0  0
 26 27  1  0  0  0
 28100  1  0  0  0
 28101  1  0  0  0
 29102  1  0  0  0
 29103  1  0  0  0
 33 34  1  0  0  0
 33 66  1  0  0  0
 33 70  2  0  0  0
 34 36  1  0  0  0
 34 59  1  0  0  0
 34104  1  0  0  0
 35 44  2  0  0  0
 35 45  1  0  0  0
 35 68  1  0  0  0
 36 56  1  0  0  0
 36105  1  0  0  0
 37 39  1  0  0  0
 37 47  1  0  0  0
 37 66  1  0  0  0
 37106  1  0  0  0
 38 43  2  0  0  0
 38 46  1  0  0  0
 38 47  1  0  0  0
 39 64  1  0  0  0
 39 67  2  0  0  0
 40 52  1  0  0  0
 40 53  2  0  0  0
 40 58  1  0  0  0
 41107  1  0  0  0
 41108  1  0  0  0
 41109  1  0  0  0
 41 48  1  0  0  0
 42 43  1  0  0  0
 42 66  1  0  0  0
 42110  1  0  0  0
 42111  1  0  0  0
 43 44  1  0  0  0
 44112  1  0  0  0
 45 46  2  0  0  0
 45113  1  0  0  0
 46114  1  0  0  0
 47115  1  0  0  0
 47116  1  0  0  0
 48 56  1  0  0  0
 48 65  1  0  0  0
 48117  1  0  0  0
 49 50  1  0  0  0
 49 53  1  0  0  0
 49 64  1  0  0  0
 49118  1  0  0  0
 50 51  1  0  0  0
 50119  1  0  0  0
 50120  1  0  0  0
 51 52  1  0  0  0
 51121  1  0  0  0
 51122  1  0  0  0
 52123  1  0  0  0
 52124  1  0  0  0
 53 54  1  0  0  0
 54 55  2  0  0  0
 54125  1  0  0  0
 55 57  1  0  0  0
 55126  1  0  0  0
 56 69  2  0  0  0
 57 58  2  0  0  0
 57127  1  0  0  0
 58128  1  0  0  0
 59 60  1  0  0  0
 59 61  1  0  0  0
 59 62  1  0  0  0
 60129  1  0  0  0
 60130  1  0  0  0
 60131  1  0  0  0
 61132  1  0  0  0
 61133  1  0  0  0
 61134  1  0  0  0
 62135  1  0  0  0
 62136  1  0  0  0
 62137  1  0  0  0
 63 65  1  0  0  0
 63138  1  0  0  0
 63139  1  0  0  0
 63140  1  0  0  0
 64141  1  0  0  0
 65142  1  0  0  0
 68 78  1  0  0  0
 71143  1  0  0  0
 71144  1  0  0  0
 71145  1  0  0  0
 71 79  1  0  0  0
 72146  1  0  0  0
 72147  1  0  0  0
 72148  1  0  0  0
 72 80  1  0  0  0
 73 81  1  0  0  0
 73149  1  0  0  0
 73150  1  0  0  0
 73151  1  0  0  0
 74 82  1  0  0  0
 74152  1  0  0  0
 74153  1  0  0  0
 74154  1  0  0  0
 75 76  1  0  0  0
 75 81  1  0  0  0
 75155  1  0  0  0
 75156  1  0  0  0
 76 82  1  0  0  0
 76157  1  0  0  0
 76158  1  0  0  0
 77 79  1  0  0  0
 77 82  1  0  0  0
 77159  1  0  0  0
 77160  1  0  0  0
 78 80  1  0  0  0
 78161  1  0  0  0
 78162  1  0  0  0
 79 83  1  0  0  0
 79163  1  0  0  0
 80 83  1  0  0  0
 80164  1  0  0  0
 83165  1  0  0  0
 83166  1  0  0  0
M  CHG  1  83   1
M  ISO  4   1 100  68 101  78 101  81 100
M  END
> <chiral flag>
0

> <version>
0

> <s_m_source_file>
/data/baiqing/PycharmProjects/Reinvent-master-3.2/result/LINK_invent/BTK/process_docking_weight1_custom_sum_contain_oxygen_bond_distance_aromatic_linkinvent_7_9_3/rearranged_h_0105.sdf

> <i_m_source_file_index>
28

> <r_mmod_Potential_Energy-OPLS-2005>
127.817367553711

> <r_mmod_Stretch_Energy-OPLS-2005>
53.5728302001953

> <r_mmod_Bend_Energy-OPLS-2005>
130.26237487793

> <r_mmod_Torsional_Energy-OPLS-2005>
346.240509033203

> <r_mmod_Improper_Torsional_Energy-OPLS-2005>
12.5189800262451

> <r_mmod_Van_der_Waal_Energy-OPLS-2005>
147.820510864258

> <r_mmod_Electrostatic_Energy-OPLS-2005>
-152.7958984375

> <r_mmod_Solvation_Energy-OPLS-2005>
-437.856903076172

> <b_mmod_Minimization_Converged-OPLS-2005>
0

> <r_mmod_RMS_Derivative-OPLS-2005>
2.6946964263916

$$$$
28
                    3D
 Structure written by MMmdl.
159167  0  0  1  0            999 V2000
  -30.6251  -14.5913   20.5106 C   0  0  0  0  0  0
  -30.4359  -12.3687   19.4435 C   0  0  0  0  0  0
  -29.5050  -12.5162   18.2201 C   0  0  0  0  0  0
  -28.0288  -12.3528   18.6354 C   0  0  0  0  0  0
  -27.6571  -13.2109   19.8739 C   0  0  2  0  0  0
  -28.7000  -13.0364   21.0022 C   0  0  0  0  0  0
  -25.2582  -13.8177   20.5736 C   0  0  0  0  0  0
  -24.1846  -13.0444   20.9243 C   0  0  0  0  0  0
  -24.6402  -11.6906   20.8758 C   0  0  0  0  0  0
  -23.9067  -10.4294   21.0413 C   0  0  0  0  0  0
  -24.3627   -9.4213   21.9189 C   0  0  0  0  0  0
  -23.6312   -8.2236   22.0741 C   0  0  0  0  0  0
  -22.4283   -8.0274   21.3535 C   0  0  0  0  0  0
  -21.9917   -9.0248   20.4631 C   0  0  0  0  0  0
  -22.7244  -10.2136   20.3061 C   0  0  0  0  0  0
  -21.6849   -6.0746   22.5295 C   0  0  0  0  0  0
  -21.4004   -6.5639   23.8237 C   0  0  0  0  0  0
  -21.3676   -5.6787   24.9192 C   0  0  0  0  0  0
  -21.6057   -4.3051   24.7236 C   0  0  0  0  0  0
  -21.8821   -3.8155   23.4349 C   0  0  0  0  0  0
  -21.9195   -4.6975   22.3414 C   0  0  0  0  0  0
  -22.7871  -13.5235   21.1922 C   0  0  0  0  0  0
  -22.1657   -4.2172   21.0984 F   0  0  0  0  0  0
  -21.5642   -3.4531   25.7748 F   0  0  0  0  0  0
  -30.0193  -13.3695   20.4446 N   0  0  0  0  0  0
  -26.3007  -12.9345   20.3369 N   0  0  0  0  0  0
  -25.9321  -11.6497   20.5754 N   0  0  0  0  0  0
  -22.0490  -12.8197   22.0442 N   0  0  0  0  0  0
  -25.4278  -15.1909   20.4164 N   0  0  0  0  0  0
  -31.7726  -14.7734   20.0908 O   0  0  0  0  0  0
  -21.6636   -6.8880   21.4247 O   0  0  0  0  0  0
  -22.3564  -14.5563   20.6803 O   0  0  0  0  0  0
  -24.6239  -31.8613   23.2053 C   0  0  0  0  0  0
  -25.9108  -32.4781   23.8365 C   0  0  1  0  0  0
  -27.2364  -27.3617   20.1337 C   0  0  0  0  0  0
  -25.5965  -33.8589   24.2312 N   0  0  0  0  0  0
  -23.4172  -30.4839   21.5424 C   0  0  2  0  0  0
  -24.8689  -28.9328   20.1210 C   0  0  0  0  0  0
  -22.7462  -29.4647   22.4942 C   0  0  0  0  0  0
  -18.0297  -28.1370   22.8483 C   0  0  0  0  0  0
  -24.1504  -36.7304   23.2628 C   0  0  0  0  0  0
  -25.9518  -30.8041   21.3710 C   0  0  0  0  0  0
  -26.0285  -29.4266   20.7327 C   0  0  0  0  0  0
  -27.2184  -28.6489   20.7362 C   0  0  0  0  0  0
  -26.0632  -26.8991   19.5073 C   0  0  0  0  0  0
  -24.8840  -27.6702   19.5019 C   0  0  0  0  0  0
  -23.6334  -29.8079   20.1610 C   0  0  0  0  0  0
  -25.4121  -36.3089   24.0325 C   0  0  1  0  0  0
  -20.5896  -28.3693   23.1290 C   0  0  2  0  0  0
  -20.6803  -26.9427   22.5395 C   0  0  0  0  0  0
  -19.5776  -26.6378   21.5208 C   0  0  0  0  0  0
  -18.1951  -26.7917   22.1610 C   0  0  0  0  0  0
  -19.1546  -28.8844   23.2887 C   0  0  0  0  0  0
  -18.9465  -30.1458   23.8894 C   0  0  0  0  0  0
  -17.6461  -30.6570   24.0576 C   0  0  0  0  0  0
  -25.9050  -34.9448   23.5095 C   0  0  0  0  0  0
  -16.5358  -29.9068   23.6327 C   0  0  0  0  0  0
  -16.7285  -28.6489   23.0333 C   0  0  0  0  0  0
  -26.4508  -31.6569   25.0708 C   0  0  0  0  0  0
  -25.3769  -31.3652   26.1457 C   0  0  0  0  0  0
  -27.0353  -30.3011   24.6111 C   0  0  0  0  0  0
  -27.6097  -32.4273   25.7452 C   0  0  0  0  0  0
  -27.5591  -37.1804   24.8464 C   0  0  0  0  0  0
  -21.4186  -29.3062   22.3686 N   0  0  0  0  0  0
  -26.4304  -37.3776   23.9408 N   0  0  0  0  0  0
  -24.6810  -31.0675   22.0967 N   0  0  0  0  0  0
  -23.4195  -28.8198   23.3015 O   0  0  0  0  0  0
  -28.3711  -26.5656   20.0703 O   0  0  0  0  0  0
  -26.5579  -34.8906   22.4644 O   0  0  0  0  0  0
  -23.5408  -32.1383   23.7415 O   0  0  0  0  0  0
  -28.9616  -21.8338   21.2438 C   0  0  0  0  0  0
  -28.5994  -22.8452   19.0938 C   0  0  0  0  0  0
  -29.4418  -20.6309   20.6257 C   0  0  0  0  0  0
  -28.5240  -22.9623   20.4863 C   0  0  0  0  0  0
  -29.4540  -20.6610   19.2046 C   0  0  0  0  0  0
  -29.8807  -19.4989   21.5435 C   0  0  0  0  0  0
  -30.1038  -18.1354   21.5365 C   0  0  0  0  0  0
  -29.9842  -19.5292   18.3522 C   0  0  0  0  0  0
  -30.5951  -17.4979   22.8300 C   0  0  0  0  0  0
  -27.8500  -24.2087   21.1258 C   0  0  0  0  0  0
  -29.9231  -17.0722   20.4173 C   0  0  0  0  0  0
  -28.5891  -25.6007   21.1372 C   0  0  0  0  0  0
  -29.0468  -21.7322   18.4779 N   0  0  0  0  0  0
  -29.8164  -15.6367   20.8418 N   0  0  0  0  0  0
  -31.4753  -12.5043   19.1387 H   0  0  0  0  0  0
  -30.3687  -11.3629   19.8585 H   0  0  0  0  0  0
  -29.7585  -11.7760   17.4600 H   0  0  0  0  0  0
  -29.6606  -13.4929   17.7585 H   0  0  0  0  0  0
  -27.8680  -11.2987   18.8601 H   0  0  0  0  0  0
  -27.3710  -12.5848   17.7987 H   0  0  0  0  0  0
  -27.6784  -14.2517   19.5510 H   0  0  0  0  0  0
  -28.6997  -12.0081   21.3690 H   0  0  0  0  0  0
  -28.4566  -13.6558   21.8668 H   0  0  0  0  0  0
  -25.2766   -9.5713   22.4776 H   0  0  0  0  0  0
  -24.0050   -7.4629   22.7444 H   0  0  0  0  0  0
  -21.0859   -8.8763   19.8928 H   0  0  0  0  0  0
  -22.3693  -10.9685   19.6191 H   0  0  0  0  0  0
  -21.1958   -7.6140   23.9755 H   0  0  0  0  0  0
  -21.1505   -6.0499   25.9105 H   0  0  0  0  0  0
  -22.0580   -2.7615   23.2843 H   0  0  0  0  0  0
  -22.4032  -11.9817   22.4823 H   0  0  0  0  0  0
  -21.1126  -13.1249   22.2657 H   0  0  0  0  0  0
  -24.6623  -15.8449   20.5399 H   0  0  0  0  0  0
  -26.2705  -15.6330   20.0724 H   0  0  0  0  0  0
  -26.7197  -32.5489   23.1145 H   0  0  0  0  0  0
  -25.0252  -33.9755   25.0552 H   0  0  0  0  0  0
  -22.7127  -31.3043   21.3915 H   0  0  0  0  0  0
  -23.3763  -35.9646   23.3284 H   0  0  0  0  0  0
  -24.3595  -36.8902   22.2037 H   0  0  0  0  0  0
  -23.7244  -37.6502   23.6650 H   0  0  0  0  0  0
  -26.0742  -31.5566   20.5906 H   0  0  0  0  0  0
  -26.8387  -30.8646   21.9895 H   0  0  0  0  0  0
  -28.1160  -29.0260   21.2055 H   0  0  0  0  0  0
  -26.0645  -25.9332   19.0219 H   0  0  0  0  0  0
  -23.9986  -27.2851   19.0150 H   0  0  0  0  0  0
  -23.7519  -30.5761   19.3968 H   0  0  0  0  0  0
  -22.7583  -29.2271   19.8646 H   0  0  0  0  0  0
  -25.1286  -36.1949   25.0812 H   0  0  0  0  0  0
  -21.0011  -28.3269   24.1402 H   0  0  0  0  0  0
  -20.5738  -26.2298   23.3580 H   0  0  0  0  0  0
  -21.6665  -26.7464   22.1173 H   0  0  0  0  0  0
  -19.6949  -25.6290   21.1231 H   0  0  0  0  0  0
  -19.6720  -27.3205   20.6754 H   0  0  0  0  0  0
  -17.4231  -26.6699   21.3999 H   0  0  0  0  0  0
  -18.0349  -26.0037   22.8981 H   0  0  0  0  0  0
  -19.7941  -30.7299   24.2235 H   0  0  0  0  0  0
  -17.5003  -31.6246   24.5195 H   0  0  0  0  0  0
  -15.5362  -30.2966   23.7633 H   0  0  0  0  0  0
  -15.8689  -28.0817   22.7014 H   0  0  0  0  0  0
  -24.6020  -30.6890   25.7814 H   0  0  0  0  0  0
  -24.8869  -32.2772   26.4871 H   0  0  0  0  0  0
  -25.8136  -30.8881   27.0241 H   0  0  0  0  0  0
  -26.2889  -29.6729   24.1232 H   0  0  0  0  0  0
  -27.4184  -29.7288   25.4570 H   0  0  0  0  0  0
  -27.8706  -30.4307   23.9223 H   0  0  0  0  0  0
  -27.2772  -33.3615   26.1997 H   0  0  0  0  0  0
  -28.3925  -32.6745   25.0270 H   0  0  0  0  0  0
  -28.0772  -31.8396   26.5368 H   0  0  0  0  0  0
  -28.2600  -38.0116   24.7525 H   0  0  0  0  0  0
  -28.1075  -36.2629   24.6270 H   0  0  0  0  0  0
  -27.2295  -37.1426   25.8863 H   0  0  0  0  0  0
  -20.9363  -29.8768   21.6885 H   0  0  0  0  0  0
  -26.0181  -38.2849   24.1414 H   0  0  0  0  0  0
  -28.9066  -21.8858   22.3214 H   0  0  0  0  0  0
  -28.2638  -23.6529   18.4581 H   0  0  0  0  0  0
  -30.1095  -19.9235   22.5116 H   0  0  0  0  0  0
  -29.2637  -18.7148   18.3000 H   0  0  0  0  0  0
  -30.9383  -19.1717   18.7352 H   0  0  0  0  0  0
  -30.1577  -19.8567   17.3270 H   0  0  0  0  0  0
  -31.4735  -16.8768   22.6489 H   0  0  0  0  0  0
  -29.8119  -16.8661   23.2522 H   0  0  0  0  0  0
  -30.8746  -18.2302   23.5868 H   0  0  0  0  0  0
  -27.6492  -23.9419   22.1645 H   0  0  0  0  0  0
  -26.8605  -24.3289   20.6828 H   0  0  0  0  0  0
  -30.7431  -17.1627   19.7055 H   0  0  0  0  0  0
  -29.0009  -17.2930   19.8819 H   0  0  0  0  0  0
  -29.6604  -25.4167   21.2224 H   0  0  0  0  0  0
  -28.3317  -26.1054   22.0701 H   0  0  0  0  0  0
  -28.9195  -15.3712   21.2231 H   0  0  0  0  0  0
  1 25  1  0  0  0
  1 30  2  0  0  0
  1 84  1  0  0  0
  2  3  1  0  0  0
  2 25  1  0  0  0
  2 85  1  0  0  0
  2 86  1  0  0  0
  3  4  1  0  0  0
  3 87  1  0  0  0
  3 88  1  0  0  0
  4  5  1  0  0  0
  4 89  1  0  0  0
  4 90  1  0  0  0
  5  6  1  0  0  0
  5 26  1  0  0  0
  5 91  1  0  0  0
  6 25  1  0  0  0
  6 92  1  0  0  0
  6 93  1  0  0  0
  7  8  2  0  0  0
  7 26  1  0  0  0
  7 29  1  0  0  0
  8  9  1  0  0  0
  8 22  1  0  0  0
  9 10  1  0  0  0
  9 27  2  0  0  0
 10 11  2  0  0  0
 10 15  1  0  0  0
 11 12  1  0  0  0
 11 94  1  0  0  0
 12 13  2  0  0  0
 12 95  1  0  0  0
 13 14  1  0  0  0
 13 31  1  0  0  0
 14 15  2  0  0  0
 14 96  1  0  0  0
 15 97  1  0  0  0
 16 17  2  0  0  0
 16 21  1  0  0  0
 16 31  1  0  0  0
 17 18  1  0  0  0
 17 98  1  0  0  0
 18 19  2  0  0  0
 18 99  1  0  0  0
 19 20  1  0  0  0
 19 24  1  0  0  0
 20 21  2  0  0  0
 20100  1  0  0  0
 21 23  1  0  0  0
 22 28  1  0  0  0
 22 32  2  0  0  0
 26 27  1  0  0  0
 28101  1  0  0  0
 28102  1  0  0  0
 29103  1  0  0  0
 29104  1  0  0  0
 33 34  1  0  0  0
 33 66  1  0  0  0
 33 70  2  0  0  0
 34 36  1  0  0  0
 34 59  1  0  0  0
 34105  1  0  0  0
 35 44  2  0  0  0
 35 45  1  0  0  0
 35 68  1  0  0  0
 36 56  1  0  0  0
 36106  1  0  0  0
 37 39  1  0  0  0
 37 47  1  0  0  0
 37 66  1  0  0  0
 37107  1  0  0  0
 38 43  2  0  0  0
 38 46  1  0  0  0
 38 47  1  0  0  0
 39 64  1  0  0  0
 39 67  2  0  0  0
 40 52  1  0  0  0
 40 53  2  0  0  0
 40 58  1  0  0  0
 41108  1  0  0  0
 41109  1  0  0  0
 41110  1  0  0  0
 41 48  1  0  0  0
 42 43  1  0  0  0
 42 66  1  0  0  0
 42111  1  0  0  0
 42112  1  0  0  0
 43 44  1  0  0  0
 44113  1  0  0  0
 45 46  2  0  0  0
 45114  1  0  0  0
 46115  1  0  0  0
 47116  1  0  0  0
 47117  1  0  0  0
 48 56  1  0  0  0
 48 65  1  0  0  0
 48118  1  0  0  0
 49 50  1  0  0  0
 49 53  1  0  0  0
 49 64  1  0  0  0
 49119  1  0  0  0
 50 51  1  0  0  0
 50120  1  0  0  0
 50121  1  0  0  0
 51 52  1  0  0  0
 51122  1  0  0  0
 51123  1  0  0  0
 52124  1  0  0  0
 52125  1  0  0  0
 53 54  1  0  0  0
 54 55  2  0  0  0
 54126  1  0  0  0
 55 57  1  0  0  0
 55127  1  0  0  0
 56 69  2  0  0  0
 57 58  2  0  0  0
 57128  1  0  0  0
 58129  1  0  0  0
 59 60  1  0  0  0
 59 61  1  0  0  0
 59 62  1  0  0  0
 60130  1  0  0  0
 60131  1  0  0  0
 60132  1  0  0  0
 61133  1  0  0  0
 61134  1  0  0  0
 61135  1  0  0  0
 62136  1  0  0  0
 62137  1  0  0  0
 62138  1  0  0  0
 63 65  1  0  0  0
 63139  1  0  0  0
 63140  1  0  0  0
 63141  1  0  0  0
 64142  1  0  0  0
 65143  1  0  0  0
 68 82  1  0  0  0
 71 73  2  0  0  0
 71 74  1  0  0  0
 71144  1  0  0  0
 72 74  2  0  0  0
 72 83  1  0  0  0
 72145  1  0  0  0
 73 75  1  0  0  0
 73 76  1  0  0  0
 74 80  1  0  0  0
 75 78  1  0  0  0
 75 83  2  0  0  0
 76 77  2  0  0  0
 76146  1  0  0  0
 77 79  1  0  0  0
 77 81  1  0  0  0
 78147  1  0  0  0
 78148  1  0  0  0
 78149  1  0  0  0
 79150  1  0  0  0
 79151  1  0  0  0
 79152  1  0  0  0
 80 82  1  0  0  0
 80153  1  0  0  0
 80154  1  0  0  0
 81 84  1  0  0  0
 81155  1  0  0  0
 81156  1  0  0  0
 82157  1  0  0  0
 82158  1  0  0  0
 84159  1  0  0  0
M  ISO  4   1 100  68 101  82 101  84 100
M  END
> <chiral flag>
0

> <version>
0

> <s_m_source_file>
/data/baiqing/PycharmProjects/Reinvent-master-3.2/result/LINK_invent/BTK/process_docking_weight1_custom_sum_contain_oxygen_bond_distance_aromatic_linkinvent_7_9_3/rearranged_h_0105.sdf

> <i_m_source_file_index>
29

> <r_mmod_Potential_Energy-OPLS-2005>
-111.959526062012

> <r_mmod_Stretch_Energy-OPLS-2005>
63.7474517822266

> <r_mmod_Bend_Energy-OPLS-2005>
168.756790161133

> <r_mmod_Torsional_Energy-OPLS-2005>
242.187271118164

> <r_mmod_Improper_Torsional_Energy-OPLS-2005>
6.88497543334961

> <r_mmod_Van_der_Waal_Energy-OPLS-2005>
147.529296875

> <r_mmod_Electrostatic_Energy-OPLS-2005>
-553.669311523438

> <r_mmod_Solvation_Energy-OPLS-2005>
-218.680267333984

> <b_mmod_Minimization_Converged-OPLS-2005>
0

> <r_mmod_RMS_Derivative-OPLS-2005>
3.1328239440918

$$$$
29
                    3D
 Structure written by MMmdl.
160167  0  0  1  0            999 V2000
  -30.5215  -14.9443   20.3890 C   0  0  0  0  0  0
  -30.4430  -12.5764   19.4937 C   0  0  0  0  0  0
  -29.5277  -12.5771   18.2463 C   0  0  0  0  0  0
  -28.0456  -12.3948   18.6301 C   0  0  0  0  0  0
  -27.6424  -13.2589   19.8524 C   0  0  2  0  0  0
  -28.6913  -13.2287   20.9844 C   0  0  0  0  0  0
  -25.2570  -13.8215   20.5729 C   0  0  0  0  0  0
  -24.1898  -13.0459   20.9240 C   0  0  0  0  0  0
  -24.6484  -11.6927   20.8738 C   0  0  0  0  0  0
  -23.9127  -10.4304   21.0405 C   0  0  0  0  0  0
  -24.3659   -9.4206   21.9149 C   0  0  0  0  0  0
  -23.6346   -8.2238   22.0692 C   0  0  0  0  0  0
  -22.4337   -8.0257   21.3497 C   0  0  0  0  0  0
  -21.9977   -9.0233   20.4600 C   0  0  0  0  0  0
  -22.7303  -10.2130   20.3047 C   0  0  0  0  0  0
  -21.6850   -6.0767   22.5278 C   0  0  0  0  0  0
  -21.4003   -6.5684   23.8228 C   0  0  0  0  0  0
  -21.3664   -5.6815   24.9191 C   0  0  0  0  0  0
  -21.6053   -4.3065   24.7195 C   0  0  0  0  0  0
  -21.8844   -3.8159   23.4311 C   0  0  0  0  0  0
  -21.9203   -4.6991   22.3379 C   0  0  0  0  0  0
  -22.7927  -13.5204   21.1938 C   0  0  0  0  0  0
  -22.1702   -4.2174   21.0960 F   0  0  0  0  0  0
  -21.5638   -3.4551   25.7706 F   0  0  0  0  0  0
  -29.9731  -13.6573   20.4071 N   0  0  0  0  0  0
  -26.3000  -12.9479   20.3288 N   0  0  0  0  0  0
  -25.9429  -11.6601   20.5689 N   0  0  0  0  0  0
  -22.0609  -12.8098   22.0436 N   0  0  0  0  0  0
  -25.4210  -15.1936   20.4075 N   0  0  0  0  0  0
  -31.6801  -15.0653   19.9888 O   0  0  0  0  0  0
  -21.6694   -6.8876   21.4224 O   0  0  0  0  0  0
  -22.3584  -14.5505   20.6783 O   0  0  0  0  0  0
  -24.6440  -31.8493   23.1867 C   0  0  0  0  0  0
  -25.9155  -32.4726   23.8329 C   0  0  1  0  0  0
  -27.2380  -27.1179   20.1408 C   0  0  0  0  0  0
  -25.5902  -33.8549   24.2209 N   0  0  0  0  0  0
  -23.4544  -30.4576   21.5353 C   0  0  2  0  0  0
  -24.9095  -28.8777   20.1133 C   0  0  0  0  0  0
  -22.7566  -29.4513   22.4885 C   0  0  0  0  0  0
  -18.0298  -28.1389   22.8482 C   0  0  0  0  0  0
  -24.1483  -36.7279   23.2646 C   0  0  0  0  0  0
  -26.0181  -30.6958   21.4025 C   0  0  0  0  0  0
  -26.0873  -29.3094   20.7354 C   0  0  0  0  0  0
  -27.2545  -28.4499   20.7217 C   0  0  0  0  0  0
  -26.0329  -26.7896   19.4825 C   0  0  0  0  0  0
  -24.8976  -27.6320   19.4672 C   0  0  0  0  0  0
  -23.6854  -29.7878   20.1551 C   0  0  0  0  0  0
  -25.4120  -36.3081   24.0335 C   0  0  1  0  0  0
  -20.5902  -28.3745   23.1254 C   0  0  2  0  0  0
  -20.6773  -26.9446   22.5430 C   0  0  0  0  0  0
  -19.5745  -26.6372   21.5244 C   0  0  0  0  0  0
  -18.1930  -26.7942   22.1646 C   0  0  0  0  0  0
  -19.1550  -28.8887   23.2857 C   0  0  0  0  0  0
  -18.9479  -30.1461   23.8905 C   0  0  0  0  0  0
  -17.6481  -30.6606   24.0538 C   0  0  0  0  0  0
  -25.9090  -34.9437   23.5111 C   0  0  0  0  0  0
  -16.5359  -29.9102   23.6318 C   0  0  0  0  0  0
  -16.7280  -28.6500   23.0381 C   0  0  0  0  0  0
  -26.4449  -31.6590   25.0786 C   0  0  0  0  0  0
  -25.3578  -31.3784   26.1440 C   0  0  0  0  0  0
  -27.0297  -30.2956   24.6432 C   0  0  0  0  0  0
  -27.6012  -32.4335   25.7552 C   0  0  0  0  0  0
  -27.5608  -37.1796   24.8463 C   0  0  0  0  0  0
  -21.4256  -29.3089   22.3641 N   0  0  0  0  0  0
  -26.4294  -37.3790   23.9416 N   0  0  0  0  0  0
  -24.7248  -31.0238   22.0953 N   0  0  0  0  0  0
  -23.4197  -28.8092   23.3062 O   0  0  0  0  0  0
  -28.3126  -26.1373   20.1478 O   0  0  0  0  0  0
  -26.5736  -34.8919   22.4714 O   0  0  0  0  0  0
  -23.5513  -32.1456   23.6983 O   0  0  0  0  0  0
  -31.7265  -18.5356   18.2595 C   0  0  0  0  0  0
  -29.4237  -21.6653   22.0529 C   0  0  0  0  0  0
  -29.0412  -23.2463   19.9463 C   0  0  0  0  0  0
  -29.4065  -17.5238   20.0648 C   0  0  0  0  0  0
  -28.0927  -24.5967   20.3930 C   0  0  0  0  0  0
  -31.6103  -18.9059   19.7593 C   0  0  2  0  0  0
  -28.9776  -21.6506   20.5724 C   0  0  1  0  0  0
  -30.1613  -18.9975   20.3620 C   0  0  1  0  0  0
  -32.2760  -20.2024   19.8780 N   0  0  0  0  0  0
  -29.7005  -16.0662   20.6499 N   0  0  0  0  0  0
  -29.6484  -20.4085   19.8204 N   0  3  0  0  0  0
  -31.4882  -12.7107   19.1926 H   0  0  0  0  0  0
  -30.4032  -11.6077   19.9933 H   0  0  0  0  0  0
  -29.8212  -11.8046   17.5401 H   0  0  0  0  0  0
  -29.6436  -13.5241   17.7144 H   0  0  0  0  0  0
  -27.8693  -11.3397   18.8345 H   0  0  0  0  0  0
  -27.4078  -12.6501   17.7797 H   0  0  0  0  0  0
  -27.6123  -14.2837   19.4783 H   0  0  0  0  0  0
  -28.7763  -12.2342   21.4184 H   0  0  0  0  0  0
  -28.3962  -13.8738   21.8118 H   0  0  0  0  0  0
  -25.2796   -9.5728   22.4716 H   0  0  0  0  0  0
  -24.0071   -7.4636   22.7403 H   0  0  0  0  0  0
  -21.0931   -8.8761   19.8858 H   0  0  0  0  0  0
  -22.3747  -10.9675   19.6168 H   0  0  0  0  0  0
  -21.2012   -7.6198   23.9741 H   0  0  0  0  0  0
  -21.1473   -6.0546   25.9107 H   0  0  0  0  0  0
  -22.0607   -2.7613   23.2805 H   0  0  0  0  0  0
  -22.4277  -11.9755   22.4797 H   0  0  0  0  0  0
  -21.1141  -13.0952   22.2564 H   0  0  0  0  0  0
  -24.6408  -15.8348   20.4881 H   0  0  0  0  0  0
  -26.2499  -15.6057   20.0023 H   0  0  0  0  0  0
  -26.7237  -32.5273   23.1069 H   0  0  0  0  0  0
  -24.9831  -33.9717   25.0215 H   0  0  0  0  0  0
  -22.7569  -31.2835   21.3776 H   0  0  0  0  0  0
  -23.3820  -35.9538   23.3250 H   0  0  0  0  0  0
  -24.3585  -36.8988   22.2080 H   0  0  0  0  0  0
  -23.7166  -37.6412   23.6737 H   0  0  0  0  0  0
  -26.1920  -31.4427   20.6296 H   0  0  0  0  0  0
  -26.8839  -30.7369   22.0529 H   0  0  0  0  0  0
  -28.1577  -28.7875   21.2125 H   0  0  0  0  0  0
  -25.9528  -25.8447   18.9681 H   0  0  0  0  0  0
  -24.0114  -27.2936   18.9465 H   0  0  0  0  0  0
  -23.8296  -30.5749   19.4120 H   0  0  0  0  0  0
  -22.7999  -29.2367   19.8332 H   0  0  0  0  0  0
  -25.1288  -36.1945   25.0835 H   0  0  0  0  0  0
  -20.9981  -28.3328   24.1375 H   0  0  0  0  0  0
  -20.5670  -26.2382   23.3679 H   0  0  0  0  0  0
  -21.6656  -26.7458   22.1229 H   0  0  0  0  0  0
  -19.6927  -25.6274   21.1326 H   0  0  0  0  0  0
  -19.6668  -27.3155   20.6752 H   0  0  0  0  0  0
  -17.4208  -26.6696   21.4032 H   0  0  0  0  0  0
  -18.0273  -26.0081   22.9032 H   0  0  0  0  0  0
  -19.7920  -30.7245   24.2348 H   0  0  0  0  0  0
  -17.5022  -31.6300   24.5115 H   0  0  0  0  0  0
  -15.5361  -30.3020   23.7652 H   0  0  0  0  0  0
  -15.8652  -28.0804   22.7170 H   0  0  0  0  0  0
  -24.5769  -30.7141   25.7724 H   0  0  0  0  0  0
  -24.8728  -32.2937   26.4805 H   0  0  0  0  0  0
  -25.7786  -30.8968   27.0266 H   0  0  0  0  0  0
  -26.2929  -29.6706   24.1368 H   0  0  0  0  0  0
  -27.3773  -29.7228   25.5046 H   0  0  0  0  0  0
  -27.8900  -30.4180   23.9858 H   0  0  0  0  0  0
  -27.2668  -33.3679   26.2058 H   0  0  0  0  0  0
  -28.3827  -32.6816   25.0368 H   0  0  0  0  0  0
  -28.0647  -31.8488   26.5504 H   0  0  0  0  0  0
  -28.2580  -38.0137   24.7560 H   0  0  0  0  0  0
  -28.1154  -36.2679   24.6206 H   0  0  0  0  0  0
  -27.2336  -37.1312   25.8863 H   0  0  0  0  0  0
  -20.9504  -29.8833   21.6849 H   0  0  0  0  0  0
  -26.0192  -38.2871   24.1395 H   0  0  0  0  0  0
  -31.3048  -17.5531   18.0228 H   0  0  0  0  0  0
  -32.7770  -18.4842   17.9554 H   0  0  0  0  0  0
  -31.2468  -19.2704   17.6097 H   0  0  0  0  0  0
  -29.1624  -22.6025   22.5499 H   0  0  0  0  0  0
  -30.5071  -21.5770   22.1450 H   0  0  0  0  0  0
  -28.9654  -20.8506   22.6221 H   0  0  0  0  0  0
  -30.0829  -23.5549   20.0301 H   0  0  0  0  0  0
  -28.8855  -23.1428   18.8703 H   0  0  0  0  0  0
  -29.2792  -17.4051   18.9866 H   0  0  0  0  0  0
  -28.3831  -17.6914   20.4068 H   0  0  0  0  0  0
  -27.9900  -24.5385   21.4768 H   0  0  0  0  0  0
  -27.0958  -24.3634   20.0288 H   0  0  0  0  0  0
  -32.1805  -18.1621   20.3153 H   0  0  0  0  0  0
  -27.9181  -21.3911   20.5646 H   0  0  0  0  0  0
  -30.2413  -19.0838   21.4462 H   0  0  0  0  0  0
  -33.0146  -20.2305   19.1769 H   0  0  0  0  0  0
  -32.7861  -20.2312   20.7565 H   0  0  0  0  0  0
  -28.9092  -15.7503   21.1956 H   0  0  0  0  0  0
  -30.6143  -20.7283   19.6880 H   0  0  0  0  0  0
  -29.2889  -20.3192   18.8861 H   0  0  0  0  0  0
  1 25  1  0  0  0
  1 30  2  0  0  0
  1 80  1  0  0  0
  2  3  1  0  0  0
  2 25  1  0  0  0
  2 82  1  0  0  0
  2 83  1  0  0  0
  3  4  1  0  0  0
  3 84  1  0  0  0
  3 85  1  0  0  0
  4  5  1  0  0  0
  4 86  1  0  0  0
  4 87  1  0  0  0
  5  6  1  0  0  0
  5 26  1  0  0  0
  5 88  1  0  0  0
  6 25  1  0  0  0
  6 89  1  0  0  0
  6 90  1  0  0  0
  7  8  2  0  0  0
  7 26  1  0  0  0
  7 29  1  0  0  0
  8  9  1  0  0  0
  8 22  1  0  0  0
  9 10  1  0  0  0
  9 27  2  0  0  0
 10 11  2  0  0  0
 10 15  1  0  0  0
 11 12  1  0  0  0
 11 91  1  0  0  0
 12 13  2  0  0  0
 12 92  1  0  0  0
 13 14  1  0  0  0
 13 31  1  0  0  0
 14 15  2  0  0  0
 14 93  1  0  0  0
 15 94  1  0  0  0
 16 17  2  0  0  0
 16 21  1  0  0  0
 16 31  1  0  0  0
 17 18  1  0  0  0
 17 95  1  0  0  0
 18 19  2  0  0  0
 18 96  1  0  0  0
 19 20  1  0  0  0
 19 24  1  0  0  0
 20 21  2  0  0  0
 20 97  1  0  0  0
 21 23  1  0  0  0
 22 28  1  0  0  0
 22 32  2  0  0  0
 26 27  1  0  0  0
 28 98  1  0  0  0
 28 99  1  0  0  0
 29100  1  0  0  0
 29101  1  0  0  0
 33 34  1  0  0  0
 33 66  1  0  0  0
 33 70  2  0  0  0
 34 36  1  0  0  0
 34 59  1  0  0  0
 34102  1  0  0  0
 35 44  2  0  0  0
 35 45  1  0  0  0
 35 68  1  0  0  0
 36 56  1  0  0  0
 36103  1  0  0  0
 37 39  1  0  0  0
 37 47  1  0  0  0
 37 66  1  0  0  0
 37104  1  0  0  0
 38 43  2  0  0  0
 38 46  1  0  0  0
 38 47  1  0  0  0
 39 64  1  0  0  0
 39 67  2  0  0  0
 40 52  1  0  0  0
 40 53  2  0  0  0
 40 58  1  0  0  0
 41105  1  0  0  0
 41106  1  0  0  0
 41107  1  0  0  0
 41 48  1  0  0  0
 42 43  1  0  0  0
 42 66  1  0  0  0
 42108  1  0  0  0
 42109  1  0  0  0
 43 44  1  0  0  0
 44110  1  0  0  0
 45 46  2  0  0  0
 45111  1  0  0  0
 46112  1  0  0  0
 47113  1  0  0  0
 47114  1  0  0  0
 48 56  1  0  0  0
 48 65  1  0  0  0
 48115  1  0  0  0
 49 50  1  0  0  0
 49 53  1  0  0  0
 49 64  1  0  0  0
 49116  1  0  0  0
 50 51  1  0  0  0
 50117  1  0  0  0
 50118  1  0  0  0
 51 52  1  0  0  0
 51119  1  0  0  0
 51120  1  0  0  0
 52121  1  0  0  0
 52122  1  0  0  0
 53 54  1  0  0  0
 54 55  2  0  0  0
 54123  1  0  0  0
 55 57  1  0  0  0
 55124  1  0  0  0
 56 69  2  0  0  0
 57 58  2  0  0  0
 57125  1  0  0  0
 58126  1  0  0  0
 59 60  1  0  0  0
 59 61  1  0  0  0
 59 62  1  0  0  0
 60127  1  0  0  0
 60128  1  0  0  0
 60129  1  0  0  0
 61130  1  0  0  0
 61131  1  0  0  0
 61132  1  0  0  0
 62133  1  0  0  0
 62134  1  0  0  0
 62135  1  0  0  0
 63 65  1  0  0  0
 63136  1  0  0  0
 63137  1  0  0  0
 63138  1  0  0  0
 64139  1  0  0  0
 65140  1  0  0  0
 68 75  1  0  0  0
 71141  1  0  0  0
 71142  1  0  0  0
 71143  1  0  0  0
 71 76  1  0  0  0
 72144  1  0  0  0
 72145  1  0  0  0
 72146  1  0  0  0
 72 77  1  0  0  0
 73 75  1  0  0  0
 73 77  1  0  0  0
 73147  1  0  0  0
 73148  1  0  0  0
 74 80  1  0  0  0
 74149  1  0  0  0
 74150  1  0  0  0
 74 78  1  0  0  0
 75151  1  0  0  0
 75152  1  0  0  0
 76 78  1  0  0  0
 76 79  1  0  0  0
 76153  1  0  0  0
 77 81  1  0  0  0
 77154  1  0  0  0
 78 81  1  0  0  0
 78155  1  0  0  0
 79156  1  0  0  0
 79157  1  0  0  0
 80158  1  0  0  0
 81159  1  0  0  0
 81160  1  0  0  0
M  CHG  1  81   1
M  ISO  4   1 100  68 101  75 101  80 100
M  END
> <chiral flag>
0

> <version>
0

> <s_m_source_file>
/data/baiqing/PycharmProjects/Reinvent-master-3.2/result/LINK_invent/BTK/process_docking_weight1_custom_sum_contain_oxygen_bond_distance_aromatic_linkinvent_7_9_3/rearranged_h_0105.sdf

> <i_m_source_file_index>
30

> <r_mmod_Potential_Energy-OPLS-2005>
410.5595703125

> <r_mmod_Stretch_Energy-OPLS-2005>
305.506011962891

> <r_mmod_Bend_Energy-OPLS-2005>
356.525909423828

> <r_mmod_Torsional_Energy-OPLS-2005>
269.064788818359

> <r_mmod_Improper_Torsional_Energy-OPLS-2005>
5.52659702301025

> <r_mmod_Van_der_Waal_Energy-OPLS-2005>
118.560600280762

> <r_mmod_Electrostatic_Energy-OPLS-2005>
-386.724731445312

> <r_mmod_Solvation_Energy-OPLS-2005>
-452.7216796875

> <b_mmod_Minimization_Converged-OPLS-2005>
0

> <r_mmod_RMS_Derivative-OPLS-2005>
8.06575584411621

$$$$
30
                    3D
 Structure written by MMmdl.
167175  0  0  1  0            999 V2000
  -30.6605  -14.6183   20.4772 C   0  0  0  0  0  0
  -30.4360  -12.3822   19.4301 C   0  0  0  0  0  0
  -29.4967  -12.4775   18.2070 C   0  0  0  0  0  0
  -28.0196  -12.3381   18.6278 C   0  0  0  0  0  0
  -27.6483  -13.2183   19.8507 C   0  0  2  0  0  0
  -28.7021  -13.0932   20.9741 C   0  0  0  0  0  0
  -25.2547  -13.8172   20.5708 C   0  0  0  0  0  0
  -24.1824  -13.0441   20.9211 C   0  0  0  0  0  0
  -24.6396  -11.6909   20.8743 C   0  0  0  0  0  0
  -23.9066  -10.4303   21.0413 C   0  0  0  0  0  0
  -24.3617   -9.4211   21.9187 C   0  0  0  0  0  0
  -23.6296   -8.2237   22.0745 C   0  0  0  0  0  0
  -22.4278   -8.0278   21.3534 C   0  0  0  0  0  0
  -21.9922   -9.0254   20.4633 C   0  0  0  0  0  0
  -22.7246  -10.2131   20.3058 C   0  0  0  0  0  0
  -21.6841   -6.0732   22.5280 C   0  0  0  0  0  0
  -21.4005   -6.5634   23.8210 C   0  0  0  0  0  0
  -21.3656   -5.6793   24.9172 C   0  0  0  0  0  0
  -21.6043   -4.3059   24.7229 C   0  0  0  0  0  0
  -21.8825   -3.8148   23.4354 C   0  0  0  0  0  0
  -21.9196   -4.6962   22.3406 C   0  0  0  0  0  0
  -22.7846  -13.5217   21.1884 C   0  0  0  0  0  0
  -22.1664   -4.2154   21.0988 F   0  0  0  0  0  0
  -21.5634   -3.4542   25.7739 F   0  0  0  0  0  0
  -30.0163  -13.4153   20.3957 N   0  0  0  0  0  0
  -26.2974  -12.9364   20.3284 N   0  0  0  0  0  0
  -25.9327  -11.6513   20.5749 N   0  0  0  0  0  0
  -22.0487  -12.8188   22.0413 N   0  0  0  0  0  0
  -25.4265  -15.1892   20.4123 N   0  0  0  0  0  0
  -31.8389  -14.7544   20.1466 O   0  0  0  0  0  0
  -21.6635   -6.8876   21.4243 O   0  0  0  0  0  0
  -22.3534  -14.5527   20.6736 O   0  0  0  0  0  0
  -24.6217  -31.8595   23.2015 C   0  0  0  0  0  0
  -25.9073  -32.4761   23.8307 C   0  0  1  0  0  0
  -27.2242  -27.3311   20.1054 C   0  0  0  0  0  0
  -25.5865  -33.8564   24.2195 N   0  0  0  0  0  0
  -23.4149  -30.4803   21.5459 C   0  0  2  0  0  0
  -24.8598  -28.9398   20.1029 C   0  0  0  0  0  0
  -22.7458  -29.4603   22.4976 C   0  0  0  0  0  0
  -18.0246  -28.1393   22.8502 C   0  0  0  0  0  0
  -24.1479  -36.7334   23.2638 C   0  0  0  0  0  0
  -25.9547  -30.7912   21.3705 C   0  0  0  0  0  0
  -26.0256  -29.4188   20.7155 C   0  0  0  0  0  0
  -27.2034  -28.6203   20.7160 C   0  0  0  0  0  0
  -26.0420  -26.9118   19.4508 C   0  0  0  0  0  0
  -24.8705  -27.6911   19.4638 C   0  0  0  0  0  0
  -23.6263  -29.8168   20.1602 C   0  0  0  0  0  0
  -25.4100  -36.3060   24.0312 C   0  0  1  0  0  0
  -20.5854  -28.3691   23.1334 C   0  0  2  0  0  0
  -20.6766  -26.9426   22.5446 C   0  0  0  0  0  0
  -19.5731  -26.6402   21.5254 C   0  0  0  0  0  0
  -18.1888  -26.7928   22.1649 C   0  0  0  0  0  0
  -19.1503  -28.8859   23.2897 C   0  0  0  0  0  0
  -18.9447  -30.1464   23.8917 C   0  0  0  0  0  0
  -17.6447  -30.6610   24.0568 C   0  0  0  0  0  0
  -25.9058  -34.9447   23.5068 C   0  0  0  0  0  0
  -16.5334  -29.9115   23.6337 C   0  0  0  0  0  0
  -16.7232  -28.6526   23.0366 C   0  0  0  0  0  0
  -26.4452  -31.6569   25.0674 C   0  0  0  0  0  0
  -25.3645  -31.3756   26.1380 C   0  0  0  0  0  0
  -27.0263  -30.2958   24.6154 C   0  0  0  0  0  0
  -27.5983  -32.4310   25.7461 C   0  0  0  0  0  0
  -27.5571  -37.1795   24.8443 C   0  0  0  0  0  0
  -21.4169  -29.3017   22.3723 N   0  0  0  0  0  0
  -26.4269  -37.3753   23.9404 N   0  0  0  0  0  0
  -24.6827  -31.0608   22.0959 N   0  0  0  0  0  0
  -23.4203  -28.8129   23.3022 O   0  0  0  0  0  0
  -28.3596  -26.5119   20.1703 O   0  0  0  0  0  0
  -26.5692  -34.8918   22.4682 O   0  0  0  0  0  0
  -23.5401  -32.1387   23.7388 O   0  0  0  0  0  0
  -28.9366  -21.9808   19.1082 C   0  0  0  0  0  0
  -29.9342  -20.3613   21.1156 C   0  0  0  0  0  0
  -29.5595  -19.7015   19.9104 C   0  0  0  0  0  0
  -29.0138  -20.5646   18.9022 C   0  0  0  0  0  0
  -29.3147  -22.5741   20.3352 C   0  0  0  0  0  0
  -27.4828  -19.9289   15.5144 C   0  0  0  0  0  0
  -29.6252  -21.2213   15.8554 C   0  0  0  0  0  0
  -29.2706  -24.1195   20.6360 C   0  0  0  0  0  0
  -30.2308  -17.1713   20.8322 C   0  0  0  0  0  0
  -28.2512  -25.0674   19.8782 C   0  0  0  0  0  0
  -29.6667  -18.1244   19.6947 C   0  0  2  0  0  0
  -28.3088  -20.7582   16.5028 C   0  0  0  0  0  0
  -29.7917  -21.7153   21.2808 N   0  3  0  0  0  0
  -28.5514  -19.9704   17.7082 N   0  0  0  0  0  0
  -29.8781  -15.7112   20.7104 N   0  0  0  0  0  0
  -30.3606  -17.7959   18.4322 N   0  3  0  0  0  0
  -31.4738  -12.5068   19.1149 H   0  0  0  0  0  0
  -30.3756  -11.3940   19.8890 H   0  0  0  0  0  0
  -29.7483  -11.6992   17.4838 H   0  0  0  0  0  0
  -29.6456  -13.4294   17.6958 H   0  0  0  0  0  0
  -27.8428  -11.2880   18.8599 H   0  0  0  0  0  0
  -27.3668  -12.5710   17.7858 H   0  0  0  0  0  0
  -27.6592  -14.2487   19.4950 H   0  0  0  0  0  0
  -28.7112  -12.0816   21.3790 H   0  0  0  0  0  0
  -28.4595  -13.7523   21.8096 H   0  0  0  0  0  0
  -25.2767   -9.5669   22.4752 H   0  0  0  0  0  0
  -24.0001   -7.4622   22.7457 H   0  0  0  0  0  0
  -21.0852   -8.8772   19.8934 H   0  0  0  0  0  0
  -22.3714  -10.9669   19.6153 H   0  0  0  0  0  0
  -21.1979   -7.6139   23.9709 H   0  0  0  0  0  0
  -21.1472   -6.0522   25.9069 H   0  0  0  0  0  0
  -22.0606   -2.7620   23.2857 H   0  0  0  0  0  0
  -22.4119  -11.9849   22.4807 H   0  0  0  0  0  0
  -21.1089  -13.1177   22.2613 H   0  0  0  0  0  0
  -24.6608  -15.8443   20.5288 H   0  0  0  0  0  0
  -26.2655  -15.6249   20.0557 H   0  0  0  0  0  0
  -26.7132  -32.5427   23.1047 H   0  0  0  0  0  0
  -24.9779  -33.9667   25.0163 H   0  0  0  0  0  0
  -22.7039  -31.2975   21.4049 H   0  0  0  0  0  0
  -23.3703  -35.9709   23.3267 H   0  0  0  0  0  0
  -24.3553  -36.9034   22.2060 H   0  0  0  0  0  0
  -23.7298  -37.6549   23.6704 H   0  0  0  0  0  0
  -26.0743  -31.5512   20.5976 H   0  0  0  0  0  0
  -26.8437  -30.8457   21.9895 H   0  0  0  0  0  0
  -28.0939  -28.9754   21.2155 H   0  0  0  0  0  0
  -25.9965  -25.9739   18.9208 H   0  0  0  0  0  0
  -23.9806  -27.3250   18.9667 H   0  0  0  0  0  0
  -23.7298  -30.5928   19.3995 H   0  0  0  0  0  0
  -22.7486  -29.2391   19.8677 H   0  0  0  0  0  0
  -25.1264  -36.1894   25.0803 H   0  0  0  0  0  0
  -20.9890  -28.3272   24.1487 H   0  0  0  0  0  0
  -20.5756  -26.2281   23.3634 H   0  0  0  0  0  0
  -21.6631  -26.7518   22.1201 H   0  0  0  0  0  0
  -19.6939  -25.6325   21.1276 H   0  0  0  0  0  0
  -19.6702  -27.3236   20.6802 H   0  0  0  0  0  0
  -17.4180  -26.6670   21.4016 H   0  0  0  0  0  0
  -18.0277  -26.0084   22.9067 H   0  0  0  0  0  0
  -19.7936  -30.7247   24.2326 H   0  0  0  0  0  0
  -17.5016  -31.6304   24.5156 H   0  0  0  0  0  0
  -15.5344  -30.3024   23.7683 H   0  0  0  0  0  0
  -15.8616  -28.0862   22.7093 H   0  0  0  0  0  0
  -24.5796  -30.7131   25.7702 H   0  0  0  0  0  0
  -24.8844  -32.2946   26.4748 H   0  0  0  0  0  0
  -25.7921  -30.8953   27.0182 H   0  0  0  0  0  0
  -26.2834  -29.6723   24.1161 H   0  0  0  0  0  0
  -27.3878  -29.7208   25.4688 H   0  0  0  0  0  0
  -27.8728  -30.4171   23.9391 H   0  0  0  0  0  0
  -27.2543  -33.3608   26.2019 H   0  0  0  0  0  0
  -28.3806  -32.6912   25.0299 H   0  0  0  0  0  0
  -28.0606  -31.8438   26.5407 H   0  0  0  0  0  0
  -28.2540  -38.0128   24.7510 H   0  0  0  0  0  0
  -28.1116  -36.2668   24.6220 H   0  0  0  0  0  0
  -27.2306  -37.1396   25.8847 H   0  0  0  0  0  0
  -20.9365  -29.8715   21.6912 H   0  0  0  0  0  0
  -26.0153  -38.2829   24.1409 H   0  0  0  0  0  0
  -28.5741  -22.6372   18.3363 H   0  0  0  0  0  0
  -30.3329  -19.8431   21.9764 H   0  0  0  0  0  0
  -27.2295  -20.5135   14.6286 H   0  0  0  0  0  0
  -26.5434  -19.5962   15.9577 H   0  0  0  0  0  0
  -28.0248  -19.0434   15.1827 H   0  0  0  0  0  0
  -29.4233  -21.8563   14.9915 H   0  0  0  0  0  0
  -30.2215  -20.3770   15.5084 H   0  0  0  0  0  0
  -30.2431  -21.7964   16.5433 H   0  0  0  0  0  0
  -30.2739  -24.5137   20.4779 H   0  0  0  0  0  0
  -29.0826  -24.2341   21.7020 H   0  0  0  0  0  0
  -29.8235  -17.4913   21.7913 H   0  0  0  0  0  0
  -31.3120  -17.2919   20.9236 H   0  0  0  0  0  0
  -27.2544  -24.6988   20.1226 H   0  0  0  0  0  0
  -28.3826  -24.9468   18.8022 H   0  0  0  0  0  0
  -28.6315  -17.8134   19.5517 H   0  0  0  0  0  0
  -27.7009  -21.6302   16.7514 H   0  0  0  0  0  0
  -30.0749  -22.1090   22.1837 H   0  0  0  0  0  0
  -27.7893  -19.3226   17.8909 H   0  0  0  0  0  0
  -28.9134  -15.4882   20.9040 H   0  0  0  0  0  0
  -31.3338  -18.0432   18.4645 H   0  0  0  0  0  0
  -29.9320  -18.3040   17.6728 H   0  0  0  0  0  0
  -30.2902  -16.8131   18.2370 H   0  0  0  0  0  0
  1 25  1  0  0  0
  1 30  2  0  0  0
  1 85  1  0  0  0
  2  3  1  0  0  0
  2 25  1  0  0  0
  2 87  1  0  0  0
  2 88  1  0  0  0
  3  4  1  0  0  0
  3 89  1  0  0  0
  3 90  1  0  0  0
  4  5  1  0  0  0
  4 91  1  0  0  0
  4 92  1  0  0  0
  5  6  1  0  0  0
  5 26  1  0  0  0
  5 93  1  0  0  0
  6 25  1  0  0  0
  6 94  1  0  0  0
  6 95  1  0  0  0
  7  8  2  0  0  0
  7 26  1  0  0  0
  7 29  1  0  0  0
  8  9  1  0  0  0
  8 22  1  0  0  0
  9 10  1  0  0  0
  9 27  2  0  0  0
 10 11  2  0  0  0
 10 15  1  0  0  0
 11 12  1  0  0  0
 11 96  1  0  0  0
 12 13  2  0  0  0
 12 97  1  0  0  0
 13 14  1  0  0  0
 13 31  1  0  0  0
 14 15  2  0  0  0
 14 98  1  0  0  0
 15 99  1  0  0  0
 16 17  2  0  0  0
 16 21  1  0  0  0
 16 31  1  0  0  0
 17 18  1  0  0  0
 17100  1  0  0  0
 18 19  2  0  0  0
 18101  1  0  0  0
 19 20  1  0  0  0
 19 24  1  0  0  0
 20 21  2  0  0  0
 20102  1  0  0  0
 21 23  1  0  0  0
 22 28  1  0  0  0
 22 32  2  0  0  0
 26 27  1  0  0  0
 28103  1  0  0  0
 28104  1  0  0  0
 29105  1  0  0  0
 29106  1  0  0  0
 33 34  1  0  0  0
 33 66  1  0  0  0
 33 70  2  0  0  0
 34 36  1  0  0  0
 34 59  1  0  0  0
 34107  1  0  0  0
 35 44  2  0  0  0
 35 45  1  0  0  0
 35 68  1  0  0  0
 36 56  1  0  0  0
 36108  1  0  0  0
 37 39  1  0  0  0
 37 47  1  0  0  0
 37 66  1  0  0  0
 37109  1  0  0  0
 38 43  2  0  0  0
 38 46  1  0  0  0
 38 47  1  0  0  0
 39 64  1  0  0  0
 39 67  2  0  0  0
 40 52  1  0  0  0
 40 53  2  0  0  0
 40 58  1  0  0  0
 41110  1  0  0  0
 41111  1  0  0  0
 41112  1  0  0  0
 41 48  1  0  0  0
 42 43  1  0  0  0
 42 66  1  0  0  0
 42113  1  0  0  0
 42114  1  0  0  0
 43 44  1  0  0  0
 44115  1  0  0  0
 45 46  2  0  0  0
 45116  1  0  0  0
 46117  1  0  0  0
 47118  1  0  0  0
 47119  1  0  0  0
 48 56  1  0  0  0
 48 65  1  0  0  0
 48120  1  0  0  0
 49 50  1  0  0  0
 49 53  1  0  0  0
 49 64  1  0  0  0
 49121  1  0  0  0
 50 51  1  0  0  0
 50122  1  0  0  0
 50123  1  0  0  0
 51 52  1  0  0  0
 51124  1  0  0  0
 51125  1  0  0  0
 52126  1  0  0  0
 52127  1  0  0  0
 53 54  1  0  0  0
 54 55  2  0  0  0
 54128  1  0  0  0
 55 57  1  0  0  0
 55129  1  0  0  0
 56 69  2  0  0  0
 57 58  2  0  0  0
 57130  1  0  0  0
 58131  1  0  0  0
 59 60  1  0  0  0
 59 61  1  0  0  0
 59 62  1  0  0  0
 60132  1  0  0  0
 60133  1  0  0  0
 60134  1  0  0  0
 61135  1  0  0  0
 61136  1  0  0  0
 61137  1  0  0  0
 62138  1  0  0  0
 62139  1  0  0  0
 62140  1  0  0  0
 63 65  1  0  0  0
 63141  1  0  0  0
 63142  1  0  0  0
 63143  1  0  0  0
 64144  1  0  0  0
 65145  1  0  0  0
 68 80  1  0  0  0
 71 74  2  0  0  0
 71 75  1  0  0  0
 71146  1  0  0  0
 72 73  2  0  0  0
 72 83  1  0  0  0
 72147  1  0  0  0
 73 74  1  0  0  0
 73 81  1  0  0  0
 74 84  1  0  0  0
 75 78  1  0  0  0
 75 83  2  0  0  0
 76148  1  0  0  0
 76149  1  0  0  0
 76150  1  0  0  0
 76 82  1  0  0  0
 77 82  1  0  0  0
 77151  1  0  0  0
 77152  1  0  0  0
 77153  1  0  0  0
 78 80  1  0  0  0
 78154  1  0  0  0
 78155  1  0  0  0
 79 81  1  0  0  0
 79 85  1  0  0  0
 79156  1  0  0  0
 79157  1  0  0  0
 80158  1  0  0  0
 80159  1  0  0  0
 81 86  1  0  0  0
 81160  1  0  0  0
 82 84  1  0  0  0
 82161  1  0  0  0
 83162  1  0  0  0
 84163  1  0  0  0
 85164  1  0  0  0
 86165  1  0  0  0
 86166  1  0  0  0
 86167  1  0  0  0
M  CHG  2  83   1  86   1
M  ISO  4   1 100  68 101  80 101  85 100
M  END
> <chiral flag>
0

> <version>
0

> <s_m_source_file>
/data/baiqing/PycharmProjects/Reinvent-master-3.2/result/LINK_invent/BTK/process_docking_weight1_custom_sum_contain_oxygen_bond_distance_aromatic_linkinvent_7_9_3/rearranged_h_0105.sdf

> <i_m_source_file_index>
31

> <r_mmod_Potential_Energy-OPLS-2005>
-372.226287841797

> <r_mmod_Stretch_Energy-OPLS-2005>
80.929573059082

> <r_mmod_Bend_Energy-OPLS-2005>
146.427383422852

> <r_mmod_Torsional_Energy-OPLS-2005>
235.635971069336

> <r_mmod_Improper_Torsional_Energy-OPLS-2005>
9.70399284362793

> <r_mmod_Van_der_Waal_Energy-OPLS-2005>
150.790451049805

> <r_mmod_Electrostatic_Energy-OPLS-2005>
-47.3400268554688

> <r_mmod_Solvation_Energy-OPLS-2005>
-993.33056640625

> <b_mmod_Minimization_Converged-OPLS-2005>
0

> <r_mmod_RMS_Derivative-OPLS-2005>
4.05661201477051

$$$$
31
                    3D
 Structure written by MMmdl.
181189  0  0  1  0            999 V2000
  -30.6297  -14.7466   20.4303 C   0  0  0  0  0  0
  -30.4279  -12.4602   19.4527 C   0  0  0  0  0  0
  -29.4979  -12.4981   18.2218 C   0  0  0  0  0  0
  -28.0315  -12.3140   18.6525 C   0  0  0  0  0  0
  -27.6385  -13.2307   19.8419 C   0  0  2  0  0  0
  -28.6893  -13.1892   20.9712 C   0  0  0  0  0  0
  -25.2522  -13.8204   20.5703 C   0  0  0  0  0  0
  -24.1827  -13.0449   20.9251 C   0  0  0  0  0  0
  -24.6406  -11.6915   20.8775 C   0  0  0  0  0  0
  -23.9090  -10.4291   21.0402 C   0  0  0  0  0  0
  -24.3633   -9.4210   21.9185 C   0  0  0  0  0  0
  -23.6292   -8.2258   22.0780 C   0  0  0  0  0  0
  -22.4284   -8.0287   21.3557 C   0  0  0  0  0  0
  -21.9922   -9.0272   20.4670 C   0  0  0  0  0  0
  -22.7257  -10.2139   20.3047 C   0  0  0  0  0  0
  -21.6858   -6.0734   22.5275 C   0  0  0  0  0  0
  -21.4025   -6.5624   23.8219 C   0  0  0  0  0  0
  -21.3662   -5.6790   24.9185 C   0  0  0  0  0  0
  -21.6033   -4.3048   24.7233 C   0  0  0  0  0  0
  -21.8827   -3.8129   23.4361 C   0  0  0  0  0  0
  -21.9207   -4.6957   22.3422 C   0  0  0  0  0  0
  -22.7836  -13.5209   21.1884 C   0  0  0  0  0  0
  -22.1650   -4.2119   21.0992 F   0  0  0  0  0  0
  -21.5617   -3.4538   25.7755 F   0  0  0  0  0  0
  -29.9825  -13.5337   20.3683 N   0  0  0  0  0  0
  -26.2944  -12.9406   20.3289 N   0  0  0  0  0  0
  -25.9333  -11.6545   20.5779 N   0  0  0  0  0  0
  -22.0475  -12.8196   22.0437 N   0  0  0  0  0  0
  -25.4160  -15.1929   20.4017 N   0  0  0  0  0  0
  -31.8387  -14.7890   20.1998 O   0  0  0  0  0  0
  -21.6640   -6.8884   21.4246 O   0  0  0  0  0  0
  -22.3512  -14.5528   20.6743 O   0  0  0  0  0  0
  -24.6323  -31.8546   23.1980 C   0  0  0  0  0  0
  -25.9135  -32.4749   23.8335 C   0  0  1  0  0  0
  -27.2227  -27.2560   20.1322 C   0  0  0  0  0  0
  -25.5922  -33.8557   24.2255 N   0  0  0  0  0  0
  -23.4307  -30.4771   21.5417 C   0  0  2  0  0  0
  -24.8787  -28.9278   20.1070 C   0  0  0  0  0  0
  -22.7511  -29.4596   22.4904 C   0  0  0  0  0  0
  -18.0298  -28.1402   22.8483 C   0  0  0  0  0  0
  -24.1498  -36.7278   23.2633 C   0  0  0  0  0  0
  -25.9785  -30.7662   21.3817 C   0  0  0  0  0  0
  -26.0510  -29.3906   20.7200 C   0  0  0  0  0  0
  -27.2246  -28.5684   20.7178 C   0  0  0  0  0  0
  -26.0311  -26.8749   19.4712 C   0  0  0  0  0  0
  -24.8766  -27.6793   19.4687 C   0  0  0  0  0  0
  -23.6492  -29.8129   20.1576 C   0  0  0  0  0  0
  -25.4123  -36.3058   24.0321 C   0  0  1  0  0  0
  -20.5897  -28.3703   23.1268 C   0  0  2  0  0  0
  -20.6789  -26.9418   22.5407 C   0  0  0  0  0  0
  -19.5760  -26.6389   21.5218 C   0  0  0  0  0  0
  -18.1940  -26.7939   22.1631 C   0  0  0  0  0  0
  -19.1544  -28.8866   23.2874 C   0  0  0  0  0  0
  -18.9471  -30.1474   23.8885 C   0  0  0  0  0  0
  -17.6465  -30.6593   24.0563 C   0  0  0  0  0  0
  -25.9059  -34.9431   23.5091 C   0  0  0  0  0  0
  -16.5360  -29.9090   23.6333 C   0  0  0  0  0  0
  -16.7283  -28.6515   23.0344 C   0  0  0  0  0  0
  -26.4494  -31.6565   25.0716 C   0  0  0  0  0  0
  -25.3706  -31.3715   26.1418 C   0  0  0  0  0  0
  -27.0323  -30.2968   24.6219 C   0  0  0  0  0  0
  -27.6034  -32.4303   25.7503 C   0  0  0  0  0  0
  -27.5586  -37.1792   24.8458 C   0  0  0  0  0  0
  -21.4211  -29.3052   22.3652 N   0  0  0  0  0  0
  -26.4300  -37.3761   23.9395 N   0  0  0  0  0  0
  -24.6992  -31.0512   22.0962 N   0  0  0  0  0  0
  -23.4212  -28.8140   23.3006 O   0  0  0  0  0  0
  -28.3076  -26.3433   20.2219 O   0  0  0  0  0  0
  -26.5655  -34.8895   22.4675 O   0  0  0  0  0  0
  -23.5457  -32.1369   23.7268 O   0  0  0  0  0  0
  -29.0334  -21.6991   22.5147 C   0  0  0  0  0  0
  -28.7255  -20.7266   23.4186 C   0  0  0  0  0  0
  -28.4010  -19.5728   22.6327 C   0  0  0  0  0  0
  -28.9399  -19.7580   21.3667 C   0  0  0  0  0  0
  -28.2525  -17.0934   23.4217 C   0  0  0  0  0  0
  -26.2734  -18.2441   22.2853 C   0  0  0  0  0  0
  -31.5952  -17.7459   20.0682 C   0  0  0  0  0  0
  -27.1506  -24.5421   21.4805 C   0  0  0  0  0  0
  -29.5524  -22.1304   25.3431 C   0  0  0  0  0  0
  -29.1430  -19.7184   25.7344 C   0  0  0  0  0  0
  -27.2076  -21.2973   25.3586 C   0  0  0  0  0  0
  -29.1932  -18.5926   20.3346 C   0  0  0  0  0  0
  -29.2836  -23.7982   20.2897 C   0  0  0  0  0  0
  -29.1180  -22.1765   20.0603 C   0  0  0  0  0  0
  -27.5371  -18.4180   23.1405 C   0  0  0  0  0  0
  -30.2448  -17.3989   20.7246 C   0  0  1  0  0  0
  -28.0515  -24.8480   20.2685 C   0  0  2  0  0  0
  -28.6466  -20.9467   24.9378 C   0  0  0  0  0  0
  -29.0345  -21.2046   21.2275 N   0  0  0  0  0  0
  -29.8676  -15.9086   20.5427 N   0  0  0  0  0  0
  -31.4677  -12.5811   19.1438 H   0  0  0  0  0  0
  -30.3717  -11.4917   19.9509 H   0  0  0  0  0  0
  -29.7803  -11.7175   17.5139 H   0  0  0  0  0  0
  -29.6132  -13.4474   17.6954 H   0  0  0  0  0  0
  -27.9012  -11.2676   18.9324 H   0  0  0  0  0  0
  -27.3654  -12.4848   17.8070 H   0  0  0  0  0  0
  -27.6265  -14.2449   19.4417 H   0  0  0  0  0  0
  -28.7348  -12.1984   21.4275 H   0  0  0  0  0  0
  -28.4299  -13.8892   21.7684 H   0  0  0  0  0  0
  -25.2776   -9.5663   22.4767 H   0  0  0  0  0  0
  -23.9975   -7.4647   22.7498 H   0  0  0  0  0  0
  -21.0870   -8.8839   19.8954 H   0  0  0  0  0  0
  -22.3769  -10.9704   19.6145 H   0  0  0  0  0  0
  -21.2021   -7.6138   23.9713 H   0  0  0  0  0  0
  -21.1459   -6.0516   25.9085 H   0  0  0  0  0  0
  -22.0607   -2.7589   23.2899 H   0  0  0  0  0  0
  -22.4040  -11.9832   22.4826 H   0  0  0  0  0  0
  -21.1086  -13.1216   22.2607 H   0  0  0  0  0  0
  -24.6433  -15.8385   20.5171 H   0  0  0  0  0  0
  -26.2483  -15.6407   20.0437 H   0  0  0  0  0  0
  -26.7188  -32.5402   23.1061 H   0  0  0  0  0  0
  -25.0033  -33.9697   25.0373 H   0  0  0  0  0  0
  -22.7279  -31.3004   21.3961 H   0  0  0  0  0  0
  -23.3761  -35.9609   23.3281 H   0  0  0  0  0  0
  -24.3582  -36.8922   22.2050 H   0  0  0  0  0  0
  -23.7252  -37.6470   23.6677 H   0  0  0  0  0  0
  -26.1197  -31.5304   20.6161 H   0  0  0  0  0  0
  -26.8549  -30.8118   22.0171 H   0  0  0  0  0  0
  -28.1185  -28.9149   21.2157 H   0  0  0  0  0  0
  -25.9562  -25.9246   18.9685 H   0  0  0  0  0  0
  -23.9840  -27.3243   18.9726 H   0  0  0  0  0  0
  -23.7679  -30.5910   19.4022 H   0  0  0  0  0  0
  -22.7701  -29.2419   19.8538 H   0  0  0  0  0  0
  -25.1309  -36.1904   25.0819 H   0  0  0  0  0  0
  -21.0006  -28.3286   24.1380 H   0  0  0  0  0  0
  -20.5697  -26.2311   23.3617 H   0  0  0  0  0  0
  -21.6656  -26.7439   22.1196 H   0  0  0  0  0  0
  -19.6914  -25.6298   21.1259 H   0  0  0  0  0  0
  -19.6704  -27.3193   20.6747 H   0  0  0  0  0  0
  -17.4211  -26.6691   21.4035 H   0  0  0  0  0  0
  -18.0333  -26.0091   22.9036 H   0  0  0  0  0  0
  -19.7940  -30.7309   24.2239 H   0  0  0  0  0  0
  -17.5007  -31.6260   24.5180 H   0  0  0  0  0  0
  -15.5357  -30.2985   23.7647 H   0  0  0  0  0  0
  -15.8695  -28.0838   22.7042 H   0  0  0  0  0  0
  -24.5892  -30.7066   25.7712 H   0  0  0  0  0  0
  -24.8892  -32.2886   26.4827 H   0  0  0  0  0  0
  -25.8013  -30.8880   27.0196 H   0  0  0  0  0  0
  -26.2904  -29.6734   24.1218 H   0  0  0  0  0  0
  -27.3929  -29.7217   25.4754 H   0  0  0  0  0  0
  -27.8819  -30.4196   23.9502 H   0  0  0  0  0  0
  -27.2630  -33.3595   26.2090 H   0  0  0  0  0  0
  -28.3861  -32.6890   25.0355 H   0  0  0  0  0  0
  -28.0690  -31.8424   26.5423 H   0  0  0  0  0  0
  -28.2578  -38.0110   24.7506 H   0  0  0  0  0  0
  -28.1111  -36.2633   24.6293 H   0  0  0  0  0  0
  -27.2291  -37.1440   25.8858 H   0  0  0  0  0  0
  -20.9398  -29.8762   21.6843 H   0  0  0  0  0  0
  -26.0172  -38.2828   24.1411 H   0  0  0  0  0  0
  -29.2086  -22.7458   22.7009 H   0  0  0  0  0  0
  -29.1809  -17.2402   23.9740 H   0  0  0  0  0  0
  -28.4621  -16.5470   22.5119 H   0  0  0  0  0  0
  -27.6108  -16.4443   24.0158 H   0  0  0  0  0  0
  -25.7373  -19.1908   22.2044 H   0  0  0  0  0  0
  -25.5937  -17.5225   22.7349 H   0  0  0  0  0  0
  -26.4885  -17.8988   21.2781 H   0  0  0  0  0  0
  -31.8312  -18.8021   20.2038 H   0  0  0  0  0  0
  -31.5851  -17.5412   18.9974 H   0  0  0  0  0  0
  -32.4253  -17.1950   20.5096 H   0  0  0  0  0  0
  -26.9026  -23.4817   21.5238 H   0  0  0  0  0  0
  -26.2041  -25.0800   21.4449 H   0  0  0  0  0  0
  -27.6443  -24.8019   22.4172 H   0  0  0  0  0  0
  -30.5767  -21.9766   25.0016 H   0  0  0  0  0  0
  -29.5864  -22.2618   26.4254 H   0  0  0  0  0  0
  -29.1985  -23.0729   24.9257 H   0  0  0  0  0  0
  -30.1180  -19.3796   25.3830 H   0  0  0  0  0  0
  -28.4711  -18.8651   25.6966 H   0  0  0  0  0  0
  -29.2458  -19.9553   26.7931 H   0  0  0  0  0  0
  -26.8674  -22.2188   24.8833 H   0  0  0  0  0  0
  -27.1495  -21.4452   26.4371 H   0  0  0  0  0  0
  -26.4888  -20.5214   25.1015 H   0  0  0  0  0  0
  -29.5068  -19.0396   19.3892 H   0  0  0  0  0  0
  -28.2401  -18.1395   20.0755 H   0  0  0  0  0  0
  -29.9123  -24.1235   19.4616 H   0  0  0  0  0  0
  -29.9166  -24.0007   21.1518 H   0  0  0  0  0  0
  -29.9713  -21.8514   19.4624 H   0  0  0  0  0  0
  -28.2436  -22.0121   19.4305 H   0  0  0  0  0  0
  -27.1381  -18.7384   24.0963 H   0  0  0  0  0  0
  -30.4188  -17.4916   21.7970 H   0  0  0  0  0  0
  -27.5092  -24.5904   19.3615 H   0  0  0  0  0  0
  -28.8816  -15.7168   20.6397 H   0  0  0  0  0  0
  1 25  1  0  0  0
  1 30  2  0  0  0
  1 90  1  0  0  0
  2  3  1  0  0  0
  2 25  1  0  0  0
  2 91  1  0  0  0
  2 92  1  0  0  0
  3  4  1  0  0  0
  3 93  1  0  0  0
  3 94  1  0  0  0
  4  5  1  0  0  0
  4 95  1  0  0  0
  4 96  1  0  0  0
  5  6  1  0  0  0
  5 26  1  0  0  0
  5 97  1  0  0  0
  6 25  1  0  0  0
  6 98  1  0  0  0
  6 99  1  0  0  0
  7  8  2  0  0  0
  7 26  1  0  0  0
  7 29  1  0  0  0
  8  9  1  0  0  0
  8 22  1  0  0  0
  9 10  1  0  0  0
  9 27  2  0  0  0
 10 11  2  0  0  0
 10 15  1  0  0  0
 11 12  1  0  0  0
 11100  1  0  0  0
 12 13  2  0  0  0
 12101  1  0  0  0
 13 14  1  0  0  0
 13 31  1  0  0  0
 14 15  2  0  0  0
 14102  1  0  0  0
 15103  1  0  0  0
 16 17  2  0  0  0
 16 21  1  0  0  0
 16 31  1  0  0  0
 17 18  1  0  0  0
 17104  1  0  0  0
 18 19  2  0  0  0
 18105  1  0  0  0
 19 20  1  0  0  0
 19 24  1  0  0  0
 20 21  2  0  0  0
 20106  1  0  0  0
 21 23  1  0  0  0
 22 28  1  0  0  0
 22 32  2  0  0  0
 26 27  1  0  0  0
 28107  1  0  0  0
 28108  1  0  0  0
 29109  1  0  0  0
 29110  1  0  0  0
 33 34  1  0  0  0
 33 66  1  0  0  0
 33 70  2  0  0  0
 34 36  1  0  0  0
 34 59  1  0  0  0
 34111  1  0  0  0
 35 44  2  0  0  0
 35 45  1  0  0  0
 35 68  1  0  0  0
 36 56  1  0  0  0
 36112  1  0  0  0
 37 39  1  0  0  0
 37 47  1  0  0  0
 37 66  1  0  0  0
 37113  1  0  0  0
 38 43  2  0  0  0
 38 46  1  0  0  0
 38 47  1  0  0  0
 39 64  1  0  0  0
 39 67  2  0  0  0
 40 52  1  0  0  0
 40 53  2  0  0  0
 40 58  1  0  0  0
 41114  1  0  0  0
 41115  1  0  0  0
 41116  1  0  0  0
 41 48  1  0  0  0
 42 43  1  0  0  0
 42 66  1  0  0  0
 42117  1  0  0  0
 42118  1  0  0  0
 43 44  1  0  0  0
 44119  1  0  0  0
 45 46  2  0  0  0
 45120  1  0  0  0
 46121  1  0  0  0
 47122  1  0  0  0
 47123  1  0  0  0
 48 56  1  0  0  0
 48 65  1  0  0  0
 48124  1  0  0  0
 49 50  1  0  0  0
 49 53  1  0  0  0
 49 64  1  0  0  0
 49125  1  0  0  0
 50 51  1  0  0  0
 50126  1  0  0  0
 50127  1  0  0  0
 51 52  1  0  0  0
 51128  1  0  0  0
 51129  1  0  0  0
 52130  1  0  0  0
 52131  1  0  0  0
 53 54  1  0  0  0
 54 55  2  0  0  0
 54132  1  0  0  0
 55 57  1  0  0  0
 55133  1  0  0  0
 56 69  2  0  0  0
 57 58  2  0  0  0
 57134  1  0  0  0
 58135  1  0  0  0
 59 60  1  0  0  0
 59 61  1  0  0  0
 59 62  1  0  0  0
 60136  1  0  0  0
 60137  1  0  0  0
 60138  1  0  0  0
 61139  1  0  0  0
 61140  1  0  0  0
 61141  1  0  0  0
 62142  1  0  0  0
 62143  1  0  0  0
 62144  1  0  0  0
 63 65  1  0  0  0
 63145  1  0  0  0
 63146  1  0  0  0
 63147  1  0  0  0
 64148  1  0  0  0
 65149  1  0  0  0
 68 87  1  0  0  0
 71 72  2  0  0  0
 71 89  1  0  0  0
 71150  1  0  0  0
 72 73  1  0  0  0
 72 88  1  0  0  0
 73 74  2  0  0  0
 73 85  1  0  0  0
 74 82  1  0  0  0
 74 89  1  0  0  0
 75151  1  0  0  0
 75152  1  0  0  0
 75153  1  0  0  0
 75 85  1  0  0  0
 76 85  1  0  0  0
 76154  1  0  0  0
 76155  1  0  0  0
 76156  1  0  0  0
 77157  1  0  0  0
 77158  1  0  0  0
 77159  1  0  0  0
 77 86  1  0  0  0
 78160  1  0  0  0
 78161  1  0  0  0
 78162  1  0  0  0
 78 87  1  0  0  0
 79163  1  0  0  0
 79164  1  0  0  0
 79165  1  0  0  0
 79 88  1  0  0  0
 80 88  1  0  0  0
 80166  1  0  0  0
 80167  1  0  0  0
 80168  1  0  0  0
 81 88  1  0  0  0
 81169  1  0  0  0
 81170  1  0  0  0
 81171  1  0  0  0
 82 86  1  0  0  0
 82172  1  0  0  0
 82173  1  0  0  0
 83 84  1  0  0  0
 83 87  1  0  0  0
 83174  1  0  0  0
 83175  1  0  0  0
 84 89  1  0  0  0
 84176  1  0  0  0
 84177  1  0  0  0
 85178  1  0  0  0
 86 90  1  0  0  0
 86179  1  0  0  0
 87180  1  0  0  0
 90181  1  0  0  0
M  ISO  4   1 100  68 101  87 101  90 100
M  END
> <chiral flag>
0

> <version>
0

> <s_m_source_file>
/data/baiqing/PycharmProjects/Reinvent-master-3.2/result/LINK_invent/BTK/process_docking_weight1_custom_sum_contain_oxygen_bond_distance_aromatic_linkinvent_7_9_3/rearranged_h_0105.sdf

> <i_m_source_file_index>
32

> <r_mmod_Potential_Energy-OPLS-2005>
234.814056396484

> <r_mmod_Stretch_Energy-OPLS-2005>
150.702285766602

> <r_mmod_Bend_Energy-OPLS-2005>
218.470413208008

> <r_mmod_Torsional_Energy-OPLS-2005>
295.554351806641

> <r_mmod_Improper_Torsional_Energy-OPLS-2005>
5.80595874786377

> <r_mmod_Van_der_Waal_Energy-OPLS-2005>
119.968742370605

> <r_mmod_Electrostatic_Energy-OPLS-2005>
-459.101623535156

> <r_mmod_Solvation_Energy-OPLS-2005>
-189.739410400391

> <b_mmod_Minimization_Converged-OPLS-2005>
0

> <r_mmod_RMS_Derivative-OPLS-2005>
3.18274760246277

$$$$
32
                    3D
 Structure written by MMmdl.
159166  0  0  1  0            999 V2000
  -30.3237  -15.5394   20.3096 C   0  0  0  0  0  0
  -30.4413  -12.9928   19.5526 C   0  0  0  0  0  0
  -29.5567  -12.6548   18.3171 C   0  0  0  0  0  0
  -28.1114  -12.3304   18.7306 C   0  0  0  0  0  0
  -27.6047  -13.3065   19.8157 C   0  0  2  0  0  0
  -28.6244  -13.5854   20.9414 C   0  0  0  0  0  0
  -25.2379  -13.8290   20.5749 C   0  0  0  0  0  0
  -24.1758  -13.0431   20.9251 C   0  0  0  0  0  0
  -24.6452  -11.6939   20.8726 C   0  0  0  0  0  0
  -23.9141  -10.4285   21.0386 C   0  0  0  0  0  0
  -24.3678   -9.4202   21.9175 C   0  0  0  0  0  0
  -23.6342   -8.2243   22.0754 C   0  0  0  0  0  0
  -22.4323   -8.0283   21.3543 C   0  0  0  0  0  0
  -21.9965   -9.0251   20.4642 C   0  0  0  0  0  0
  -22.7303  -10.2125   20.3046 C   0  0  0  0  0  0
  -21.6874   -6.0753   22.5276 C   0  0  0  0  0  0
  -21.4023   -6.5647   23.8204 C   0  0  0  0  0  0
  -21.3669   -5.6791   24.9164 C   0  0  0  0  0  0
  -21.6058   -4.3060   24.7222 C   0  0  0  0  0  0
  -21.8826   -3.8161   23.4337 C   0  0  0  0  0  0
  -21.9190   -4.6975   22.3388 C   0  0  0  0  0  0
  -22.7774  -13.5161   21.1923 C   0  0  0  0  0  0
  -22.1663   -4.2153   21.0962 F   0  0  0  0  0  0
  -21.5626   -3.4546   25.7729 F   0  0  0  0  0  0
  -29.8347  -14.1655   20.3181 N   0  0  0  0  0  0
  -26.2828  -12.9608   20.3204 N   0  0  0  0  0  0
  -25.9395  -11.6683   20.5657 N   0  0  0  0  0  0
  -22.0450  -12.8097   22.0471 N   0  0  0  0  0  0
  -25.4011  -15.2022   20.4167 N   0  0  0  0  0  0
  -31.5589  -15.5004   20.1699 O   0  0  0  0  0  0
  -21.6674   -6.8895   21.4245 O   0  0  0  0  0  0
  -22.3421  -14.5456   20.6778 O   0  0  0  0  0  0
  -24.6784  -31.8056   23.1546 C   0  0  0  0  0  0
  -25.9388  -32.4492   23.8076 C   0  0  1  0  0  0
  -27.2256  -26.7507   20.2073 C   0  0  0  0  0  0
  -25.5995  -33.8317   24.1984 N   0  0  0  0  0  0
  -23.5018  -30.4084   21.5074 C   0  0  2  0  0  0
  -24.9597  -28.7582   20.1153 C   0  0  0  0  0  0
  -22.7734  -29.4350   22.4727 C   0  0  0  0  0  0
  -18.0338  -28.1412   22.8477 C   0  0  0  0  0  0
  -24.1498  -36.7153   23.2650 C   0  0  0  0  0  0
  -26.0799  -30.5552   21.4106 C   0  0  0  0  0  0
  -26.1462  -29.1247   20.7602 C   0  0  0  0  0  0
  -27.2667  -28.1467   20.7745 C   0  0  0  0  0  0
  -26.0046  -26.5815   19.5075 C   0  0  0  0  0  0
  -24.9258  -27.5128   19.4652 C   0  0  0  0  0  0
  -23.7527  -29.7067   20.1420 C   0  0  0  0  0  0
  -25.4144  -36.2903   24.0286 C   0  0  1  0  0  0
  -20.5973  -28.3775   23.1161 C   0  0  2  0  0  0
  -20.6805  -26.9437   22.5414 C   0  0  0  0  0  0
  -19.5782  -26.6372   21.5226 C   0  0  0  0  0  0
  -18.1965  -26.7950   22.1623 C   0  0  0  0  0  0
  -19.1604  -28.8916   23.2804 C   0  0  0  0  0  0
  -18.9509  -30.1502   23.8846 C   0  0  0  0  0  0
  -17.6497  -30.6600   24.0554 C   0  0  0  0  0  0
  -25.9123  -34.9294   23.4964 C   0  0  0  0  0  0
  -16.5393  -29.9081   23.6346 C   0  0  0  0  0  0
  -16.7319  -28.6497   23.0381 C   0  0  0  0  0  0
  -26.4596  -31.6499   25.0668 C   0  0  0  0  0  0
  -25.3679  -31.3786   26.1292 C   0  0  0  0  0  0
  -27.0517  -30.2849   24.6509 C   0  0  0  0  0  0
  -27.6061  -32.4334   25.7484 C   0  0  0  0  0  0
  -27.5570  -37.1731   24.8458 C   0  0  0  0  0  0
  -21.4391  -29.3026   22.3480 N   0  0  0  0  0  0
  -26.4270  -37.3666   23.9410 N   0  0  0  0  0  0
  -24.7764  -30.9544   22.0777 N   0  0  0  0  0  0
  -23.4202  -28.7958   23.3056 O   0  0  0  0  0  0
  -28.2028  -25.5632   20.2973 O   0  0  0  0  0  0
  -26.5760  -34.8863   22.4577 O   0  0  0  0  0  0
  -23.5815  -32.1105   23.6530 O   0  0  0  0  0  0
  -26.5185  -20.1809   16.9883 C   0  0  0  0  0  0
  -29.0386  -17.0908   18.6609 C   0  0  0  0  0  0
  -29.1586  -22.2392   22.0237 C   0  0  0  0  0  0
  -26.9186  -20.6084   18.4069 C   0  0  0  0  0  0
  -28.4361  -20.5062   18.6340 C   0  0  0  0  0  0
  -29.6900  -19.0520   20.4345 C   0  0  0  0  0  0
  -28.0401  -23.8385   20.1044 C   0  0  0  0  0  0
  -29.4366  -17.1635   20.1479 C   0  0  2  0  0  0
  -28.9848  -22.2137   20.4978 C   0  0  2  0  0  0
  -28.7856  -20.5236   20.0739 N   0  3  1  0  0  0
  -31.4492  -13.2300   19.2111 H   0  0  0  0  0  0
  -30.5581  -12.1182   20.1928 H   0  0  0  0  0  0
  -29.9819  -11.8220   17.7559 H   0  0  0  0  0  0
  -29.5553  -13.5131   17.6422 H   0  0  0  0  0  0
  -28.0864  -11.3052   19.1021 H   0  0  0  0  0  0
  -27.4539  -12.3633   17.8617 H   0  0  0  0  0  0
  -27.4865  -14.2520   19.2857 H   0  0  0  0  0  0
  -28.8425  -12.6848   21.5166 H   0  0  0  0  0  0
  -28.2122  -14.3082   21.6478 H   0  0  0  0  0  0
  -25.2808   -9.5675   22.4757 H   0  0  0  0  0  0
  -24.0039   -7.4633   22.7477 H   0  0  0  0  0  0
  -21.0910   -8.8788   19.8926 H   0  0  0  0  0  0
  -22.3780  -10.9667   19.6167 H   0  0  0  0  0  0
  -21.2033   -7.6160   23.9711 H   0  0  0  0  0  0
  -21.1488   -6.0525   25.9062 H   0  0  0  0  0  0
  -22.0603   -2.7628   23.2835 H   0  0  0  0  0  0
  -22.4116  -11.9748   22.4804 H   0  0  0  0  0  0
  -21.1053  -13.1066   22.2676 H   0  0  0  0  0  0
  -24.6349  -15.8558   20.5289 H   0  0  0  0  0  0
  -26.2466  -15.6381   20.0697 H   0  0  0  0  0  0
  -26.7457  -32.4993   23.0783 H   0  0  0  0  0  0
  -25.0078  -33.9371   25.0096 H   0  0  0  0  0  0
  -22.8239  -31.2435   21.3201 H   0  0  0  0  0  0
  -23.3790  -35.9450   23.3236 H   0  0  0  0  0  0
  -24.3577  -36.8886   22.2077 H   0  0  0  0  0  0
  -23.7217  -37.6299   23.6770 H   0  0  0  0  0  0
  -26.2738  -31.2836   20.6222 H   0  0  0  0  0  0
  -26.9339  -30.6248   22.0713 H   0  0  0  0  0  0
  -28.1624  -28.4321   21.3082 H   0  0  0  0  0  0
  -25.8428  -25.6358   19.0104 H   0  0  0  0  0  0
  -24.0267  -27.2281   18.9354 H   0  0  0  0  0  0
  -23.9202  -30.4672   19.3781 H   0  0  0  0  0  0
  -22.8597  -29.1676   19.8216 H   0  0  0  0  0  0
  -25.1351  -36.1677   25.0778 H   0  0  0  0  0  0
  -21.0062  -28.3400   24.1282 H   0  0  0  0  0  0
  -20.5676  -26.2399   23.3669 H   0  0  0  0  0  0
  -21.6669  -26.7387   22.1228 H   0  0  0  0  0  0
  -19.6937  -25.6265   21.1298 H   0  0  0  0  0  0
  -19.6724  -27.3152   20.6727 H   0  0  0  0  0  0
  -17.4235  -26.6722   21.4015 H   0  0  0  0  0  0
  -18.0337  -26.0095   22.9015 H   0  0  0  0  0  0
  -19.7978  -30.7346   24.2195 H   0  0  0  0  0  0
  -17.5037  -31.6275   24.5158 H   0  0  0  0  0  0
  -15.5391  -30.2966   23.7681 H   0  0  0  0  0  0
  -15.8725  -28.0783   22.7142 H   0  0  0  0  0  0
  -24.5908  -30.7094   25.7587 H   0  0  0  0  0  0
  -24.8826  -32.2998   26.4532 H   0  0  0  0  0  0
  -25.7880  -30.9077   27.0190 H   0  0  0  0  0  0
  -26.3225  -29.6490   24.1488 H   0  0  0  0  0  0
  -27.3966  -29.7260   25.5219 H   0  0  0  0  0  0
  -27.9195  -30.3999   24.0008 H   0  0  0  0  0  0
  -27.2635  -33.3718   26.1861 H   0  0  0  0  0  0
  -28.3990  -32.6759   25.0391 H   0  0  0  0  0  0
  -28.0603  -31.8589   26.5572 H   0  0  0  0  0  0
  -28.2525  -38.0085   24.7547 H   0  0  0  0  0  0
  -28.1129  -36.2610   24.6239 H   0  0  0  0  0  0
  -27.2291  -37.1303   25.8859 H   0  0  0  0  0  0
  -20.9684  -29.8676   21.6558 H   0  0  0  0  0  0
  -26.0098  -38.2707   24.1457 H   0  0  0  0  0  0
  -25.4472  -20.3106   16.8320 H   0  0  0  0  0  0
  -26.7458  -19.1256   16.8220 H   0  0  0  0  0  0
  -27.0447  -20.7584   16.2261 H   0  0  0  0  0  0
  -28.0812  -17.5775   18.4879 H   0  0  0  0  0  0
  -28.9311  -16.0721   18.2867 H   0  0  0  0  0  0
  -29.8017  -17.5673   18.0414 H   0  0  0  0  0  0
  -29.4901  -23.2207   22.3656 H   0  0  0  0  0  0
  -29.8959  -21.5089   22.3570 H   0  0  0  0  0  0
  -28.2175  -22.0210   22.5286 H   0  0  0  0  0  0
  -26.3835  -19.9806   19.1219 H   0  0  0  0  0  0
  -26.5880  -21.6326   18.5867 H   0  0  0  0  0  0
  -28.9531  -21.3116   18.1100 H   0  0  0  0  0  0
  -28.8135  -19.6073   18.1615 H   0  0  0  0  0  0
  -30.6596  -19.2508   19.9791 H   0  0  0  0  0  0
  -29.8976  -19.1373   21.5018 H   0  0  0  0  0  0
  -27.0619  -23.6704   20.5550 H   0  0  0  0  0  0
  -27.8432  -23.7621   19.0357 H   0  0  0  0  0  0
  -28.5335  -16.9471   20.7183 H   0  0  0  0  0  0
  -29.9706  -22.4201   20.0797 H   0  0  0  0  0  0
  -27.9104  -20.3075   20.5292 H   0  0  0  0  0  0
  1 25  1  0  0  0
  1 30  2  0  0  0
  1 78  1  0  0  0
  2  3  1  0  0  0
  2 25  1  0  0  0
  2 81  1  0  0  0
  2 82  1  0  0  0
  3  4  1  0  0  0
  3 83  1  0  0  0
  3 84  1  0  0  0
  4  5  1  0  0  0
  4 85  1  0  0  0
  4 86  1  0  0  0
  5  6  1  0  0  0
  5 26  1  0  0  0
  5 87  1  0  0  0
  6 25  1  0  0  0
  6 88  1  0  0  0
  6 89  1  0  0  0
  7  8  2  0  0  0
  7 26  1  0  0  0
  7 29  1  0  0  0
  8  9  1  0  0  0
  8 22  1  0  0  0
  9 10  1  0  0  0
  9 27  2  0  0  0
 10 11  2  0  0  0
 10 15  1  0  0  0
 11 12  1  0  0  0
 11 90  1  0  0  0
 12 13  2  0  0  0
 12 91  1  0  0  0
 13 14  1  0  0  0
 13 31  1  0  0  0
 14 15  2  0  0  0
 14 92  1  0  0  0
 15 93  1  0  0  0
 16 17  2  0  0  0
 16 21  1  0  0  0
 16 31  1  0  0  0
 17 18  1  0  0  0
 17 94  1  0  0  0
 18 19  2  0  0  0
 18 95  1  0  0  0
 19 20  1  0  0  0
 19 24  1  0  0  0
 20 21  2  0  0  0
 20 96  1  0  0  0
 21 23  1  0  0  0
 22 28  1  0  0  0
 22 32  2  0  0  0
 26 27  1  0  0  0
 28 97  1  0  0  0
 28 98  1  0  0  0
 29 99  1  0  0  0
 29100  1  0  0  0
 33 34  1  0  0  0
 33 66  1  0  0  0
 33 70  2  0  0  0
 34 36  1  0  0  0
 34 59  1  0  0  0
 34101  1  0  0  0
 35 44  2  0  0  0
 35 45  1  0  0  0
 35 68  1  0  0  0
 36 56  1  0  0  0
 36102  1  0  0  0
 37 39  1  0  0  0
 37 47  1  0  0  0
 37 66  1  0  0  0
 37103  1  0  0  0
 38 43  2  0  0  0
 38 46  1  0  0  0
 38 47  1  0  0  0
 39 64  1  0  0  0
 39 67  2  0  0  0
 40 52  1  0  0  0
 40 53  2  0  0  0
 40 58  1  0  0  0
 41104  1  0  0  0
 41105  1  0  0  0
 41106  1  0  0  0
 41 48  1  0  0  0
 42 43  1  0  0  0
 42 66  1  0  0  0
 42107  1  0  0  0
 42108  1  0  0  0
 43 44  1  0  0  0
 44109  1  0  0  0
 45 46  2  0  0  0
 45110  1  0  0  0
 46111  1  0  0  0
 47112  1  0  0  0
 47113  1  0  0  0
 48 56  1  0  0  0
 48 65  1  0  0  0
 48114  1  0  0  0
 49 50  1  0  0  0
 49 53  1  0  0  0
 49 64  1  0  0  0
 49115  1  0  0  0
 50 51  1  0  0  0
 50116  1  0  0  0
 50117  1  0  0  0
 51 52  1  0  0  0
 51118  1  0  0  0
 51119  1  0  0  0
 52120  1  0  0  0
 52121  1  0  0  0
 53 54  1  0  0  0
 54 55  2  0  0  0
 54122  1  0  0  0
 55 57  1  0  0  0
 55123  1  0  0  0
 56 69  2  0  0  0
 57 58  2  0  0  0
 57124  1  0  0  0
 58125  1  0  0  0
 59 60  1  0  0  0
 59 61  1  0  0  0
 59 62  1  0  0  0
 60126  1  0  0  0
 60127  1  0  0  0
 60128  1  0  0  0
 61129  1  0  0  0
 61130  1  0  0  0
 61131  1  0  0  0
 62132  1  0  0  0
 62133  1  0  0  0
 62134  1  0  0  0
 63 65  1  0  0  0
 63135  1  0  0  0
 63136  1  0  0  0
 63137  1  0  0  0
 64138  1  0  0  0
 65139  1  0  0  0
 68 77  1  0  0  0
 71 74  1  0  0  0
 71140  1  0  0  0
 71141  1  0  0  0
 71142  1  0  0  0
 72143  1  0  0  0
 72144  1  0  0  0
 72145  1  0  0  0
 72 78  1  0  0  0
 73146  1  0  0  0
 73147  1  0  0  0
 73148  1  0  0  0
 73 79  1  0  0  0
 74 75  1  0  0  0
 74149  1  0  0  0
 74150  1  0  0  0
 75151  1  0  0  0
 75152  1  0  0  0
 75 80  1  0  0  0
 76 78  1  0  0  0
 76 80  1  0  0  0
 76153  1  0  0  0
 76154  1  0  0  0
 77 79  1  0  0  0
 77155  1  0  0  0
 77156  1  0  0  0
 78157  1  0  0  0
 79 80  1  0  0  0
 79158  1  0  0  0
 80159  1  0  0  0
M  CHG  1  80   1
M  ISO  4   1 100  68 101  77 101  78 100
M  END
> <chiral flag>
0

> <version>
0

> <s_m_source_file>
/data/baiqing/PycharmProjects/Reinvent-master-3.2/result/LINK_invent/BTK/process_docking_weight1_custom_sum_contain_oxygen_bond_distance_aromatic_linkinvent_7_9_3/rearranged_h_0105.sdf

> <i_m_source_file_index>
33

> <r_mmod_Potential_Energy-OPLS-2005>
2237.30688476562

> <r_mmod_Stretch_Energy-OPLS-2005>
1082.65881347656

> <r_mmod_Bend_Energy-OPLS-2005>
610.869689941406

> <r_mmod_Torsional_Energy-OPLS-2005>
233.606948852539

> <r_mmod_Improper_Torsional_Energy-OPLS-2005>
6.85910034179688

> <r_mmod_Van_der_Waal_Energy-OPLS-2005>
102.165657043457

> <r_mmod_Electrostatic_Energy-OPLS-2005>
-159.113510131836

> <r_mmod_Solvation_Energy-OPLS-2005>
-413.85986328125

> <b_mmod_Minimization_Converged-OPLS-2005>
0

> <r_mmod_RMS_Derivative-OPLS-2005>
3.06214690208435

$$$$
33
                    3D
 Structure written by MMmdl.
177186  0  0  1  0            999 V2000
  -30.6541  -14.5815   20.5266 C   0  0  0  0  0  0
  -30.4322  -12.3637   19.4337 C   0  0  0  0  0  0
  -29.4966  -12.4943   18.2110 C   0  0  0  0  0  0
  -28.0209  -12.3453   18.6284 C   0  0  0  0  0  0
  -27.6539  -13.2122   19.8634 C   0  0  2  0  0  0
  -28.6991  -13.0565   20.9897 C   0  0  0  0  0  0
  -25.2587  -13.8172   20.5704 C   0  0  0  0  0  0
  -24.1852  -13.0456   20.9196 C   0  0  0  0  0  0
  -24.6395  -11.6923   20.8746 C   0  0  0  0  0  0
  -23.9073  -10.4309   21.0407 C   0  0  0  0  0  0
  -24.3639   -9.4216   21.9168 C   0  0  0  0  0  0
  -23.6313   -8.2257   22.0740 C   0  0  0  0  0  0
  -22.4292   -8.0297   21.3547 C   0  0  0  0  0  0
  -21.9938   -9.0259   20.4625 C   0  0  0  0  0  0
  -22.7261  -10.2145   20.3032 C   0  0  0  0  0  0
  -21.6865   -6.0746   22.5285 C   0  0  0  0  0  0
  -21.4014   -6.5648   23.8219 C   0  0  0  0  0  0
  -21.3653   -5.6809   24.9176 C   0  0  0  0  0  0
  -21.6044   -4.3073   24.7234 C   0  0  0  0  0  0
  -21.8819   -3.8166   23.4355 C   0  0  0  0  0  0
  -21.9198   -4.6981   22.3419 C   0  0  0  0  0  0
  -22.7865  -13.5243   21.1857 C   0  0  0  0  0  0
  -22.1675   -4.2155   21.1002 F   0  0  0  0  0  0
  -21.5620   -3.4555   25.7748 F   0  0  0  0  0  0
  -30.0163  -13.3798   20.4187 N   0  0  0  0  0  0
  -26.3004  -12.9350   20.3337 N   0  0  0  0  0  0
  -25.9322  -11.6512   20.5792 N   0  0  0  0  0  0
  -22.0520  -12.8224   22.0387 N   0  0  0  0  0  0
  -25.4292  -15.1884   20.4112 N   0  0  0  0  0  0
  -31.8199  -14.7408   20.1537 O   0  0  0  0  0  0
  -21.6666   -6.8895   21.4246 O   0  0  0  0  0  0
  -22.3539  -14.5536   20.6685 O   0  0  0  0  0  0
  -24.6189  -31.8610   23.2018 C   0  0  0  0  0  0
  -25.9070  -32.4773   23.8331 C   0  0  1  0  0  0
  -27.2477  -27.3686   20.1198 C   0  0  0  0  0  0
  -25.5902  -33.8572   24.2250 N   0  0  0  0  0  0
  -23.4102  -30.4810   21.5423 C   0  0  2  0  0  0
  -24.8608  -28.9301   20.1201 C   0  0  0  0  0  0
  -22.7418  -29.4618   22.4927 C   0  0  0  0  0  0
  -18.0262  -28.1376   22.8478 C   0  0  0  0  0  0
  -24.1496  -36.7310   23.2635 C   0  0  0  0  0  0
  -25.9428  -30.8095   21.3620 C   0  0  0  0  0  0
  -26.0230  -29.4352   20.7147 C   0  0  0  0  0  0
  -27.2163  -28.6658   20.7026 C   0  0  0  0  0  0
  -26.0603  -26.8908   19.5177 C   0  0  0  0  0  0
  -24.8782  -27.6603   19.5164 C   0  0  0  0  0  0
  -23.6256  -29.8050   20.1616 C   0  0  0  0  0  0
  -25.4117  -36.3063   24.0309 C   0  0  1  0  0  0
  -20.5857  -28.3670   23.1301 C   0  0  2  0  0  0
  -20.6750  -26.9398   22.5412 C   0  0  0  0  0  0
  -19.5738  -26.6379   21.5197 C   0  0  0  0  0  0
  -18.1913  -26.7921   22.1605 C   0  0  0  0  0  0
  -19.1515  -28.8832   23.2891 C   0  0  0  0  0  0
  -18.9449  -30.1437   23.8905 C   0  0  0  0  0  0
  -17.6456  -30.6587   24.0560 C   0  0  0  0  0  0
  -25.9050  -34.9437   23.5075 C   0  0  0  0  0  0
  -16.5343  -29.9091   23.6327 C   0  0  0  0  0  0
  -16.7252  -28.6500   23.0354 C   0  0  0  0  0  0
  -26.4491  -31.6577   25.0680 C   0  0  0  0  0  0
  -25.3764  -31.3730   26.1440 C   0  0  0  0  0  0
  -27.0309  -30.2986   24.6107 C   0  0  0  0  0  0
  -27.6004  -32.4334   25.7493 C   0  0  0  0  0  0
  -27.5576  -37.1810   24.8454 C   0  0  0  0  0  0
  -21.4133  -29.3039   22.3701 N   0  0  0  0  0  0
  -26.4286  -37.3762   23.9399 N   0  0  0  0  0  0
  -24.6751  -31.0670   22.0937 N   0  0  0  0  0  0
  -23.4160  -28.8169   23.3003 O   0  0  0  0  0  0
  -28.4368  -26.6426   20.1137 O   0  0  0  0  0  0
  -26.5622  -34.8906   22.4643 O   0  0  0  0  0  0
  -23.5367  -32.1368   23.7393 O   0  0  0  0  0  0
  -30.3508  -25.4027   18.5616 C   0  0  0  0  0  0
  -31.5038  -24.9880   17.8982 C   0  0  0  0  0  0
  -29.7058  -24.5519   19.4868 C   0  0  0  0  0  0
  -30.2551  -23.2202   19.6779 C   0  0  0  0  0  0
  -31.4453  -22.9128   18.9388 C   0  0  0  0  0  0
  -34.2888  -19.5579   18.3961 C   0  0  0  0  0  0
  -34.2343  -20.2784   19.7543 C   0  0  0  0  0  0
  -32.8971  -19.4719   17.7458 C   0  0  0  0  0  0
  -33.5960  -21.6741   19.6257 C   0  0  0  0  0  0
  -32.2351  -20.8560   17.6399 C   0  0  0  0  0  0
  -32.1882  -21.5696   19.0091 C   0  0  0  0  0  0
  -27.8106  -20.8265   19.9272 C   0  0  0  0  0  0
  -29.7221  -22.1877   20.7290 C   0  0  0  0  0  0
  -28.4658  -25.1767   20.1831 C   0  0  0  0  0  0
  -29.4908  -18.1983   20.4831 C   0  0  0  0  0  0
  -30.3106  -17.0442   21.1842 C   0  0  0  0  0  0
  -29.6894  -19.6500   21.0885 C   0  0  0  0  0  0
  -32.0394  -23.7763   18.0882 N   0  0  0  0  0  0
  -29.8863  -15.6392   20.9096 N   0  0  0  0  0  0
  -29.2605  -20.8301   20.2304 N   0  3  1  0  0  0
  -31.4687  -12.4889   19.1210 H   0  0  0  0  0  0
  -30.3729  -11.3641   19.8680 H   0  0  0  0  0  0
  -29.7450  -11.7434   17.4602 H   0  0  0  0  0  0
  -29.6480  -13.4642   17.7330 H   0  0  0  0  0  0
  -27.8440  -11.2928   18.8483 H   0  0  0  0  0  0
  -27.3672  -12.5875   17.7909 H   0  0  0  0  0  0
  -27.6790  -14.2471   19.5276 H   0  0  0  0  0  0
  -28.7037  -12.0384   21.3784 H   0  0  0  0  0  0
  -28.4561  -13.6933   21.8405 H   0  0  0  0  0  0
  -25.2788   -9.5724   22.4725 H   0  0  0  0  0  0
  -24.0025   -7.4687   22.7478 H   0  0  0  0  0  0
  -21.0865   -8.8806   19.8941 H   0  0  0  0  0  0
  -22.3714  -10.9705   19.6158 H   0  0  0  0  0  0
  -21.1996   -7.6154   23.9727 H   0  0  0  0  0  0
  -21.1460   -6.0530   25.9079 H   0  0  0  0  0  0
  -22.0584   -2.7623   23.2869 H   0  0  0  0  0  0
  -22.4199  -11.9884   22.4748 H   0  0  0  0  0  0
  -21.1101  -13.1162   22.2585 H   0  0  0  0  0  0
  -24.6541  -15.8321   20.5148 H   0  0  0  0  0  0
  -26.2567  -15.6285   20.0306 H   0  0  0  0  0  0
  -26.7117  -32.5469   23.1071 H   0  0  0  0  0  0
  -25.0044  -33.9740   25.0386 H   0  0  0  0  0  0
  -22.7010  -31.2970   21.3930 H   0  0  0  0  0  0
  -23.3729  -35.9675   23.3282 H   0  0  0  0  0  0
  -24.3581  -36.8961   22.2051 H   0  0  0  0  0  0
  -23.7294  -37.6520   23.6682 H   0  0  0  0  0  0
  -26.0597  -31.5706   20.5887 H   0  0  0  0  0  0
  -26.8293  -30.8674   21.9821 H   0  0  0  0  0  0
  -28.1155  -29.0627   21.1544 H   0  0  0  0  0  0
  -26.0280  -25.9314   19.0235 H   0  0  0  0  0  0
  -23.9871  -27.2669   19.0473 H   0  0  0  0  0  0
  -23.7440  -30.5743   19.3979 H   0  0  0  0  0  0
  -22.7496  -29.2275   19.8607 H   0  0  0  0  0  0
  -25.1303  -36.1891   25.0798 H   0  0  0  0  0  0
  -20.9943  -28.3231   24.1426 H   0  0  0  0  0  0
  -20.5624  -26.2270   23.3601 H   0  0  0  0  0  0
  -21.6631  -26.7426   22.1233 H   0  0  0  0  0  0
  -19.6922  -25.6289   21.1229 H   0  0  0  0  0  0
  -19.6705  -27.3182   20.6719 H   0  0  0  0  0  0
  -17.4189  -26.6647   21.4004 H   0  0  0  0  0  0
  -18.0336  -26.0064   22.8995 H   0  0  0  0  0  0
  -19.7932  -30.7239   24.2287 H   0  0  0  0  0  0
  -17.5023  -31.6276   24.5153 H   0  0  0  0  0  0
  -15.5349  -30.3012   23.7663 H   0  0  0  0  0  0
  -15.8634  -28.0839   22.7081 H   0  0  0  0  0  0
  -24.5913  -30.7094   25.7811 H   0  0  0  0  0  0
  -24.9022  -32.2921   26.4874 H   0  0  0  0  0  0
  -25.8149  -30.8918   27.0189 H   0  0  0  0  0  0
  -26.2853  -29.6757   24.1149 H   0  0  0  0  0  0
  -27.4006  -29.7219   25.4595 H   0  0  0  0  0  0
  -27.8719  -30.4232   23.9284 H   0  0  0  0  0  0
  -27.2522  -33.3591   26.2084 H   0  0  0  0  0  0
  -28.3838  -32.6981   25.0381 H   0  0  0  0  0  0
  -28.0639  -31.8471   26.5435 H   0  0  0  0  0  0
  -28.2569  -38.0128   24.7482 H   0  0  0  0  0  0
  -28.1096  -36.2648   24.6288 H   0  0  0  0  0  0
  -27.2293  -37.1462   25.8860 H   0  0  0  0  0  0
  -20.9271  -29.8771   21.6950 H   0  0  0  0  0  0
  -26.0147  -38.2822   24.1430 H   0  0  0  0  0  0
  -29.9857  -26.3999   18.3575 H   0  0  0  0  0  0
  -32.0099  -25.6431   17.2058 H   0  0  0  0  0  0
  -34.6975  -18.5537   18.5269 H   0  0  0  0  0  0
  -34.9749  -20.0830   17.7296 H   0  0  0  0  0  0
  -35.2358  -20.3623   20.1749 H   0  0  0  0  0  0
  -33.6624  -19.6741   20.4611 H   0  0  0  0  0  0
  -32.2634  -18.8071   18.3335 H   0  0  0  0  0  0
  -32.9720  -19.0216   16.7554 H   0  0  0  0  0  0
  -34.2279  -22.3139   19.0086 H   0  0  0  0  0  0
  -33.5387  -22.1431   20.6080 H   0  0  0  0  0  0
  -31.2235  -20.7457   17.2496 H   0  0  0  0  0  0
  -32.7748  -21.4639   16.9134 H   0  0  0  0  0  0
  -31.6622  -20.8955   19.6647 H   0  0  0  0  0  0
  -27.5612  -21.6474   19.2550 H   0  0  0  0  0  0
  -27.2120  -20.9404   20.8341 H   0  0  0  0  0  0
  -27.5119  -19.9005   19.4344 H   0  0  0  0  0  0
  -28.9408  -22.6352   21.3415 H   0  0  0  0  0  0
  -30.5470  -22.0397   21.4302 H   0  0  0  0  0  0
  -28.4795  -24.9061   21.2394 H   0  0  0  0  0  0
  -27.5828  -24.7063   19.7587 H   0  0  0  0  0  0
  -28.4300  -17.9474   20.5241 H   0  0  0  0  0  0
  -29.7528  -18.2124   19.4261 H   0  0  0  0  0  0
  -30.2400  -17.1827   22.2656 H   0  0  0  0  0  0
  -31.3692  -17.1638   20.9439 H   0  0  0  0  0  0
  -30.7462  -19.7619   21.3363 H   0  0  0  0  0  0
  -29.1669  -19.7093   22.0439 H   0  0  0  0  0  0
  -28.9221  -15.4167   21.1095 H   0  0  0  0  0  0
  -29.7128  -20.7006   19.3405 H   0  0  0  0  0  0
  1 25  1  0  0  0
  1 30  2  0  0  0
  1 89  1  0  0  0
  2  3  1  0  0  0
  2 25  1  0  0  0
  2 91  1  0  0  0
  2 92  1  0  0  0
  3  4  1  0  0  0
  3 93  1  0  0  0
  3 94  1  0  0  0
  4  5  1  0  0  0
  4 95  1  0  0  0
  4 96  1  0  0  0
  5  6  1  0  0  0
  5 26  1  0  0  0
  5 97  1  0  0  0
  6 25  1  0  0  0
  6 98  1  0  0  0
  6 99  1  0  0  0
  7  8  2  0  0  0
  7 26  1  0  0  0
  7 29  1  0  0  0
  8  9  1  0  0  0
  8 22  1  0  0  0
  9 10  1  0  0  0
  9 27  2  0  0  0
 10 11  2  0  0  0
 10 15  1  0  0  0
 11 12  1  0  0  0
 11100  1  0  0  0
 12 13  2  0  0  0
 12101  1  0  0  0
 13 14  1  0  0  0
 13 31  1  0  0  0
 14 15  2  0  0  0
 14102  1  0  0  0
 15103  1  0  0  0
 16 17  2  0  0  0
 16 21  1  0  0  0
 16 31  1  0  0  0
 17 18  1  0  0  0
 17104  1  0  0  0
 18 19  2  0  0  0
 18105  1  0  0  0
 19 20  1  0  0  0
 19 24  1  0  0  0
 20 21  2  0  0  0
 20106  1  0  0  0
 21 23  1  0  0  0
 22 28  1  0  0  0
 22 32  2  0  0  0
 26 27  1  0  0  0
 28107  1  0  0  0
 28108  1  0  0  0
 29109  1  0  0  0
 29110  1  0  0  0
 33 34  1  0  0  0
 33 66  1  0  0  0
 33 70  2  0  0  0
 34 36  1  0  0  0
 34 59  1  0  0  0
 34111  1  0  0  0
 35 44  2  0  0  0
 35 45  1  0  0  0
 35 68  1  0  0  0
 36 56  1  0  0  0
 36112  1  0  0  0
 37 39  1  0  0  0
 37 47  1  0  0  0
 37 66  1  0  0  0
 37113  1  0  0  0
 38 43  2  0  0  0
 38 46  1  0  0  0
 38 47  1  0  0  0
 39 64  1  0  0  0
 39 67  2  0  0  0
 40 52  1  0  0  0
 40 53  2  0  0  0
 40 58  1  0  0  0
 41114  1  0  0  0
 41115  1  0  0  0
 41116  1  0  0  0
 41 48  1  0  0  0
 42 43  1  0  0  0
 42 66  1  0  0  0
 42117  1  0  0  0
 42118  1  0  0  0
 43 44  1  0  0  0
 44119  1  0  0  0
 45 46  2  0  0  0
 45120  1  0  0  0
 46121  1  0  0  0
 47122  1  0  0  0
 47123  1  0  0  0
 48 56  1  0  0  0
 48 65  1  0  0  0
 48124  1  0  0  0
 49 50  1  0  0  0
 49 53  1  0  0  0
 49 64  1  0  0  0
 49125  1  0  0  0
 50 51  1  0  0  0
 50126  1  0  0  0
 50127  1  0  0  0
 51 52  1  0  0  0
 51128  1  0  0  0
 51129  1  0  0  0
 52130  1  0  0  0
 52131  1  0  0  0
 53 54  1  0  0  0
 54 55  2  0  0  0
 54132  1  0  0  0
 55 57  1  0  0  0
 55133  1  0  0  0
 56 69  2  0  0  0
 57 58  2  0  0  0
 57134  1  0  0  0
 58135  1  0  0  0
 59 60  1  0  0  0
 59 61  1  0  0  0
 59 62  1  0  0  0
 60136  1  0  0  0
 60137  1  0  0  0
 60138  1  0  0  0
 61139  1  0  0  0
 61140  1  0  0  0
 61141  1  0  0  0
 62142  1  0  0  0
 62143  1  0  0  0
 62144  1  0  0  0
 63 65  1  0  0  0
 63145  1  0  0  0
 63146  1  0  0  0
 63147  1  0  0  0
 64148  1  0  0  0
 65149  1  0  0  0
 68 84  1  0  0  0
 71 72  2  0  0  0
 71 73  1  0  0  0
 71150  1  0  0  0
 72 88  1  0  0  0
 72151  1  0  0  0
 73 74  2  0  0  0
 73 84  1  0  0  0
 74 75  1  0  0  0
 74 83  1  0  0  0
 75 88  2  0  0  0
 75 81  1  0  0  0
 76 77  1  0  0  0
 76 78  1  0  0  0
 76152  1  0  0  0
 76153  1  0  0  0
 77 79  1  0  0  0
 77154  1  0  0  0
 77155  1  0  0  0
 78 80  1  0  0  0
 78156  1  0  0  0
 78157  1  0  0  0
 79 81  1  0  0  0
 79158  1  0  0  0
 79159  1  0  0  0
 80 81  1  0  0  0
 80160  1  0  0  0
 80161  1  0  0  0
 81162  1  0  0  0
 82163  1  0  0  0
 82164  1  0  0  0
 82165  1  0  0  0
 82 90  1  0  0  0
 83 90  1  0  0  0
 83166  1  0  0  0
 83167  1  0  0  0
 84168  1  0  0  0
 84169  1  0  0  0
 85 86  1  0  0  0
 85 87  1  0  0  0
 85170  1  0  0  0
 85171  1  0  0  0
 86 89  1  0  0  0
 86172  1  0  0  0
 86173  1  0  0  0
 87 90  1  0  0  0
 87174  1  0  0  0
 87175  1  0  0  0
 89176  1  0  0  0
 90177  1  0  0  0
M  CHG  1  90   1
M  ISO  4   1 100  68 101  84 101  89 100
M  END
> <chiral flag>
0

> <version>
0

> <s_m_source_file>
/data/baiqing/PycharmProjects/Reinvent-master-3.2/result/LINK_invent/BTK/process_docking_weight1_custom_sum_contain_oxygen_bond_distance_aromatic_linkinvent_7_9_3/rearranged_h_0105.sdf

> <i_m_source_file_index>
34

> <r_mmod_Potential_Energy-OPLS-2005>
-185.488433837891

> <r_mmod_Stretch_Energy-OPLS-2005>
73.1389846801758

> <r_mmod_Bend_Energy-OPLS-2005>
139.736129760742

> <r_mmod_Torsional_Energy-OPLS-2005>
227.522705078125

> <r_mmod_Improper_Torsional_Energy-OPLS-2005>
4.27609300613403

> <r_mmod_Van_der_Waal_Energy-OPLS-2005>
150.119491577148

> <r_mmod_Electrostatic_Energy-OPLS-2005>
-343.173309326172

> <r_mmod_Solvation_Energy-OPLS-2005>
-465.805358886719

> <b_mmod_Minimization_Converged-OPLS-2005>
0

> <r_mmod_RMS_Derivative-OPLS-2005>
3.64497971534729

$$$$
34
                    3D
 Structure written by MMmdl.
154162  0  0  1  0            999 V2000
  -30.4253  -15.2540   20.4025 C   0  0  0  0  0  0
  -30.4430  -12.8053   19.5351 C   0  0  0  0  0  0
  -29.5369  -12.5719   18.3006 C   0  0  0  0  0  0
  -28.0900  -12.2787   18.7335 C   0  0  0  0  0  0
  -27.6096  -13.2660   19.8255 C   0  0  2  0  0  0
  -28.6382  -13.4265   20.9641 C   0  0  0  0  0  0
  -25.2369  -13.8218   20.5729 C   0  0  0  0  0  0
  -24.1700  -13.0427   20.9256 C   0  0  0  0  0  0
  -24.6350  -11.6939   20.8771 C   0  0  0  0  0  0
  -23.9072  -10.4283   21.0406 C   0  0  0  0  0  0
  -24.3631   -9.4201   21.9184 C   0  0  0  0  0  0
  -23.6309   -8.2231   22.0736 C   0  0  0  0  0  0
  -22.4278   -8.0278   21.3545 C   0  0  0  0  0  0
  -21.9925   -9.0258   20.4637 C   0  0  0  0  0  0
  -22.7247  -10.2138   20.3060 C   0  0  0  0  0  0
  -21.6840   -6.0748   22.5288 C   0  0  0  0  0  0
  -21.4004   -6.5640   23.8227 C   0  0  0  0  0  0
  -21.3671   -5.6782   24.9177 C   0  0  0  0  0  0
  -21.6044   -4.3041   24.7213 C   0  0  0  0  0  0
  -21.8821   -3.8152   23.4328 C   0  0  0  0  0  0
  -21.9183   -4.6980   22.3400 C   0  0  0  0  0  0
  -22.7726  -13.5210   21.1917 C   0  0  0  0  0  0
  -22.1654   -4.2177   21.0966 F   0  0  0  0  0  0
  -21.5645   -3.4524   25.7721 F   0  0  0  0  0  0
  -29.8698  -13.9451   20.3424 N   0  0  0  0  0  0
  -26.2775  -12.9468   20.3198 N   0  0  0  0  0  0
  -25.9268  -11.6606   20.5727 N   0  0  0  0  0  0
  -22.0365  -12.8230   22.0488 N   0  0  0  0  0  0
  -25.4000  -15.1928   20.4144 N   0  0  0  0  0  0
  -31.6510  -15.2656   20.2100 O   0  0  0  0  0  0
  -21.6624   -6.8895   21.4251 O   0  0  0  0  0  0
  -22.3438  -14.5508   20.6739 O   0  0  0  0  0  0
  -24.6673  -31.8184   23.1659 C   0  0  0  0  0  0
  -25.9351  -32.4546   23.8116 C   0  0  1  0  0  0
  -27.1980  -26.9041   20.1727 C   0  0  0  0  0  0
  -25.6005  -33.8364   24.2016 N   0  0  0  0  0  0
  -23.4781  -30.4362   21.5147 C   0  0  2  0  0  0
  -24.9234  -28.8177   20.0997 C   0  0  0  0  0  0
  -22.7660  -29.4445   22.4722 C   0  0  0  0  0  0
  -18.0328  -28.1443   22.8435 C   0  0  0  0  0  0
  -24.1510  -36.7211   23.2640 C   0  0  0  0  0  0
  -26.0477  -30.6165   21.3955 C   0  0  0  0  0  0
  -26.1080  -29.2066   20.7372 C   0  0  0  0  0  0
  -27.2378  -28.2709   20.7469 C   0  0  0  0  0  0
  -25.9874  -26.6728   19.4790 C   0  0  0  0  0  0
  -24.8912  -27.5737   19.4471 C   0  0  0  0  0  0
  -23.7136  -29.7535   20.1384 C   0  0  0  0  0  0
  -25.4144  -36.2927   24.0270 C   0  0  1  0  0  0
  -20.5955  -28.3775   23.1161 C   0  0  2  0  0  0
  -20.6790  -26.9448   22.5388 C   0  0  0  0  0  0
  -19.5770  -26.6393   21.5196 C   0  0  0  0  0  0
  -18.1958  -26.7966   22.1601 C   0  0  0  0  0  0
  -19.1591  -28.8924   23.2792 C   0  0  0  0  0  0
  -18.9495  -30.1514   23.8830 C   0  0  0  0  0  0
  -17.6482  -30.6608   24.0560 C   0  0  0  0  0  0
  -25.9113  -34.9322   23.4956 C   0  0  0  0  0  0
  -16.5379  -29.9093   23.6354 C   0  0  0  0  0  0
  -16.7305  -28.6534   23.0333 C   0  0  0  0  0  0
  -26.4586  -31.6523   25.0677 C   0  0  0  0  0  0
  -25.3702  -31.3790   26.1335 C   0  0  0  0  0  0
  -27.0476  -30.2881   24.6444 C   0  0  0  0  0  0
  -27.6062  -32.4352   25.7487 C   0  0  0  0  0  0
  -27.5571  -37.1754   24.8450 C   0  0  0  0  0  0
  -21.4326  -29.3063   22.3494 N   0  0  0  0  0  0
  -26.4271  -37.3677   23.9408 N   0  0  0  0  0  0
  -24.7538  -30.9831   22.0795 N   0  0  0  0  0  0
  -23.4213  -28.7994   23.2957 O   0  0  0  0  0  0
  -28.1892  -25.7922   20.2883 O   0  0  0  0  0  0
  -26.5722  -34.8866   22.4558 O   0  0  0  0  0  0
  -23.5748  -32.1162   23.6756 O   0  0  0  0  0  0
  -29.5376  -23.4358   21.8694 C   0  0  0  0  0  0
  -29.9876  -22.5058   22.7275 C   0  0  0  0  0  0
  -28.8244  -22.8294   20.7994 C   0  0  0  0  0  0
  -29.1110  -21.3215   20.9348 C   0  0  0  0  0  0
  -27.4912  -19.2467   20.6065 C   0  0  0  0  0  0
  -29.7985  -20.1321   23.1443 C   0  0  0  0  0  0
  -28.0079  -24.1648   20.0062 C   0  0  0  0  0  0
  -29.9438  -18.1592   20.6215 C   0  0  0  0  0  0
  -28.9426  -19.6631   20.3394 C   0  0  2  0  0  0
  -29.6279  -21.2719   22.2535 N   0  0  0  0  0  0
  -29.6509  -16.5176   20.4838 N   0  0  0  0  0  0
  -28.9873  -19.7033   19.0082 F   0  0  0  0  0  0
  -31.4612  -13.0202   19.2083 H   0  0  0  0  0  0
  -30.5180  -11.8972   20.1392 H   0  0  0  0  0  0
  -29.9293  -11.7522   17.6971 H   0  0  0  0  0  0
  -29.5478  -13.4610   17.6660 H   0  0  0  0  0  0
  -28.0689  -11.2652   19.1401 H   0  0  0  0  0  0
  -27.4196  -12.2777   17.8728 H   0  0  0  0  0  0
  -27.5373  -14.2340   19.3289 H   0  0  0  0  0  0
  -28.8100  -12.4759   21.4738 H   0  0  0  0  0  0
  -28.2671  -14.1244   21.7170 H   0  0  0  0  0  0
  -25.2771   -9.5674   22.4770 H   0  0  0  0  0  0
  -24.0019   -7.4612   22.7459 H   0  0  0  0  0  0
  -21.0858   -8.8775   19.8943 H   0  0  0  0  0  0
  -22.3711  -10.9675   19.6168 H   0  0  0  0  0  0
  -21.1996   -7.6144   23.9752 H   0  0  0  0  0  0
  -21.1498   -6.0492   25.9089 H   0  0  0  0  0  0
  -22.0600   -2.7625   23.2802 H   0  0  0  0  0  0
  -22.3954  -11.9914   22.4923 H   0  0  0  0  0  0
  -21.0982  -13.1282   22.2666 H   0  0  0  0  0  0
  -24.6289  -15.8406   20.5297 H   0  0  0  0  0  0
  -26.2346  -15.6288   20.0496 H   0  0  0  0  0  0
  -26.7414  -32.5045   23.0818 H   0  0  0  0  0  0
  -25.0098  -33.9435   25.0124 H   0  0  0  0  0  0
  -22.7934  -31.2704   21.3481 H   0  0  0  0  0  0
  -23.3756  -35.9561   23.3244 H   0  0  0  0  0  0
  -24.3581  -36.8930   22.2066 H   0  0  0  0  0  0
  -23.7304  -37.6389   23.6751 H   0  0  0  0  0  0
  -26.2336  -31.3559   20.6144 H   0  0  0  0  0  0
  -26.9086  -30.6658   22.0511 H   0  0  0  0  0  0
  -28.1365  -28.5629   21.2713 H   0  0  0  0  0  0
  -25.8481  -25.7251   18.9788 H   0  0  0  0  0  0
  -23.9950  -27.2811   18.9171 H   0  0  0  0  0  0
  -23.8653  -30.5232   19.3811 H   0  0  0  0  0  0
  -22.8178  -29.2159   19.8209 H   0  0  0  0  0  0
  -25.1359  -36.1668   25.0752 H   0  0  0  0  0  0
  -21.0064  -28.3391   24.1280 H   0  0  0  0  0  0
  -20.5650  -26.2392   23.3640 H   0  0  0  0  0  0
  -21.6650  -26.7399   22.1210 H   0  0  0  0  0  0
  -19.6912  -25.6286   21.1269 H   0  0  0  0  0  0
  -19.6722  -27.3163   20.6698 H   0  0  0  0  0  0
  -17.4222  -26.6698   21.4018 H   0  0  0  0  0  0
  -18.0351  -26.0152   22.9034 H   0  0  0  0  0  0
  -19.7974  -30.7356   24.2158 H   0  0  0  0  0  0
  -17.5038  -31.6270   24.5198 H   0  0  0  0  0  0
  -15.5375  -30.2970   23.7732 H   0  0  0  0  0  0
  -15.8709  -28.0854   22.7044 H   0  0  0  0  0  0
  -24.5868  -30.7163   25.7633 H   0  0  0  0  0  0
  -24.8923  -32.3001   26.4667 H   0  0  0  0  0  0
  -25.7928  -30.8992   27.0171 H   0  0  0  0  0  0
  -26.3130  -29.6547   24.1457 H   0  0  0  0  0  0
  -27.3986  -29.7265   25.5110 H   0  0  0  0  0  0
  -27.9080  -30.4039   23.9859 H   0  0  0  0  0  0
  -27.2596  -33.3657   26.1987 H   0  0  0  0  0  0
  -28.3912  -32.6920   25.0363 H   0  0  0  0  0  0
  -28.0699  -31.8551   26.5471 H   0  0  0  0  0  0
  -28.2548  -38.0089   24.7507 H   0  0  0  0  0  0
  -28.1111  -36.2613   24.6251 H   0  0  0  0  0  0
  -27.2295  -37.1359   25.8854 H   0  0  0  0  0  0
  -20.9570  -29.8776   21.6648 H   0  0  0  0  0  0
  -26.0090  -38.2717   24.1435 H   0  0  0  0  0  0
  -29.6124  -24.4996   22.0580 H   0  0  0  0  0  0
  -30.4765  -22.6255   23.6879 H   0  0  0  0  0  0
  -27.2973  -18.2189   20.2996 H   0  0  0  0  0  0
  -26.8044  -19.8783   20.0458 H   0  0  0  0  0  0
  -27.2391  -19.3418   21.6626 H   0  0  0  0  0  0
  -29.6494  -20.4563   24.1755 H   0  0  0  0  0  0
  -30.8102  -19.7367   23.0699 H   0  0  0  0  0  0
  -29.0496  -19.3622   22.9687 H   0  0  0  0  0  0
  -26.9471  -23.9580   20.1617 H   0  0  0  0  0  0
  -28.1583  -24.0139   18.9367 H   0  0  0  0  0  0
  -30.2887  -18.1767   21.6481 H   0  0  0  0  0  0
  -30.8694  -18.3262   20.0710 H   0  0  0  0  0  0
  -28.6621  -16.3194   20.5326 H   0  0  0  0  0  0
  1 25  1  0  0  0
  1 30  2  0  0  0
  1 81  1  0  0  0
  2  3  1  0  0  0
  2 25  1  0  0  0
  2 83  1  0  0  0
  2 84  1  0  0  0
  3  4  1  0  0  0
  3 85  1  0  0  0
  3 86  1  0  0  0
  4  5  1  0  0  0
  4 87  1  0  0  0
  4 88  1  0  0  0
  5  6  1  0  0  0
  5 26  1  0  0  0
  5 89  1  0  0  0
  6 25  1  0  0  0
  6 90  1  0  0  0
  6 91  1  0  0  0
  7  8  2  0  0  0
  7 26  1  0  0  0
  7 29  1  0  0  0
  8  9  1  0  0  0
  8 22  1  0  0  0
  9 10  1  0  0  0
  9 27  2  0  0  0
 10 11  2  0  0  0
 10 15  1  0  0  0
 11 12  1  0  0  0
 11 92  1  0  0  0
 12 13  2  0  0  0
 12 93  1  0  0  0
 13 14  1  0  0  0
 13 31  1  0  0  0
 14 15  2  0  0  0
 14 94  1  0  0  0
 15 95  1  0  0  0
 16 17  2  0  0  0
 16 21  1  0  0  0
 16 31  1  0  0  0
 17 18  1  0  0  0
 17 96  1  0  0  0
 18 19  2  0  0  0
 18 97  1  0  0  0
 19 20  1  0  0  0
 19 24  1  0  0  0
 20 21  2  0  0  0
 20 98  1  0  0  0
 21 23  1  0  0  0
 22 28  1  0  0  0
 22 32  2  0  0  0
 26 27  1  0  0  0
 28 99  1  0  0  0
 28100  1  0  0  0
 29101  1  0  0  0
 29102  1  0  0  0
 33 34  1  0  0  0
 33 66  1  0  0  0
 33 70  2  0  0  0
 34 36  1  0  0  0
 34 59  1  0  0  0
 34103  1  0  0  0
 35 44  2  0  0  0
 35 45  1  0  0  0
 35 68  1  0  0  0
 36 56  1  0  0  0
 36104  1  0  0  0
 37 39  1  0  0  0
 37 47  1  0  0  0
 37 66  1  0  0  0
 37105  1  0  0  0
 38 43  2  0  0  0
 38 46  1  0  0  0
 38 47  1  0  0  0
 39 64  1  0  0  0
 39 67  2  0  0  0
 40 52  1  0  0  0
 40 53  2  0  0  0
 40 58  1  0  0  0
 41106  1  0  0  0
 41107  1  0  0  0
 41108  1  0  0  0
 41 48  1  0  0  0
 42 43  1  0  0  0
 42 66  1  0  0  0
 42109  1  0  0  0
 42110  1  0  0  0
 43 44  1  0  0  0
 44111  1  0  0  0
 45 46  2  0  0  0
 45112  1  0  0  0
 46113  1  0  0  0
 47114  1  0  0  0
 47115  1  0  0  0
 48 56  1  0  0  0
 48 65  1  0  0  0
 48116  1  0  0  0
 49 50  1  0  0  0
 49 53  1  0  0  0
 49 64  1  0  0  0
 49117  1  0  0  0
 50 51  1  0  0  0
 50118  1  0  0  0
 50119  1  0  0  0
 51 52  1  0  0  0
 51120  1  0  0  0
 51121  1  0  0  0
 52122  1  0  0  0
 52123  1  0  0  0
 53 54  1  0  0  0
 54 55  2  0  0  0
 54124  1  0  0  0
 55 57  1  0  0  0
 55125  1  0  0  0
 56 69  2  0  0  0
 57 58  2  0  0  0
 57126  1  0  0  0
 58127  1  0  0  0
 59 60  1  0  0  0
 59 61  1  0  0  0
 59 62  1  0  0  0
 60128  1  0  0  0
 60129  1  0  0  0
 60130  1  0  0  0
 61131  1  0  0  0
 61132  1  0  0  0
 61133  1  0  0  0
 62134  1  0  0  0
 62135  1  0  0  0
 62136  1  0  0  0
 63 65  1  0  0  0
 63137  1  0  0  0
 63138  1  0  0  0
 63139  1  0  0  0
 64140  1  0  0  0
 65141  1  0  0  0
 68 77  1  0  0  0
 71 72  2  0  0  0
 71 73  1  0  0  0
 71142  1  0  0  0
 72 80  1  0  0  0
 72143  1  0  0  0
 73 74  2  0  0  0
 73 77  1  0  0  0
 74 79  1  0  0  0
 74 80  1  0  0  0
 75144  1  0  0  0
 75145  1  0  0  0
 75146  1  0  0  0
 75 79  1  0  0  0
 76 80  1  0  0  0
 76147  1  0  0  0
 76148  1  0  0  0
 76149  1  0  0  0
 77150  1  0  0  0
 77151  1  0  0  0
 78 79  1  0  0  0
 78 81  1  0  0  0
 78152  1  0  0  0
 78153  1  0  0  0
 79 82  1  0  0  0
 81154  1  0  0  0
M  ISO  4   1 100  68 101  77 101  81 100
M  END
> <chiral flag>
0

> <version>
0

> <s_m_source_file>
/data/baiqing/PycharmProjects/Reinvent-master-3.2/result/LINK_invent/BTK/process_docking_weight1_custom_sum_contain_oxygen_bond_distance_aromatic_linkinvent_7_9_3/rearranged_h_0105.sdf

> <i_m_source_file_index>
35

> <r_mmod_Potential_Energy-OPLS-2005>
1360.71203613281

> <r_mmod_Stretch_Energy-OPLS-2005>
660.895812988281

> <r_mmod_Bend_Energy-OPLS-2005>
479.5224609375

> <r_mmod_Torsional_Energy-OPLS-2005>
251.762741088867

> <r_mmod_Improper_Torsional_Energy-OPLS-2005>
4.71699142456055

> <r_mmod_Van_der_Waal_Energy-OPLS-2005>
115.054161071777

> <r_mmod_Electrostatic_Energy-OPLS-2005>
-397.281890869141

> <r_mmod_Solvation_Energy-OPLS-2005>
-224.242141723633

> <b_mmod_Minimization_Converged-OPLS-2005>
0

> <r_mmod_RMS_Derivative-OPLS-2005>
4.09543561935425

$$$$
35
                    3D
 Structure written by MMmdl.
165173  0  0  1  0            999 V2000
  -30.5991  -14.8073   20.4926 C   0  0  0  0  0  0
  -30.4261  -12.5054   19.4942 C   0  0  0  0  0  0
  -29.5120  -12.5342   18.2472 C   0  0  0  0  0  0
  -28.0403  -12.3365   18.6580 C   0  0  0  0  0  0
  -27.6324  -13.2443   19.8496 C   0  0  2  0  0  0
  -28.6696  -13.2080   20.9921 C   0  0  0  0  0  0
  -25.2421  -13.8209   20.5718 C   0  0  0  0  0  0
  -24.1732  -13.0436   20.9186 C   0  0  0  0  0  0
  -24.6326  -11.6905   20.8710 C   0  0  0  0  0  0
  -23.9013  -10.4298   21.0380 C   0  0  0  0  0  0
  -24.3578   -9.4219   21.9158 C   0  0  0  0  0  0
  -23.6264   -8.2251   22.0756 C   0  0  0  0  0  0
  -22.4256   -8.0257   21.3533 C   0  0  0  0  0  0
  -21.9882   -9.0215   20.4625 C   0  0  0  0  0  0
  -22.7183  -10.2109   20.3032 C   0  0  0  0  0  0
  -21.6837   -6.0706   22.5273 C   0  0  0  0  0  0
  -21.4010   -6.5629   23.8199 C   0  0  0  0  0  0
  -21.3682   -5.6794   24.9169 C   0  0  0  0  0  0
  -21.6041   -4.3062   24.7244 C   0  0  0  0  0  0
  -21.8813   -3.8137   23.4368 C   0  0  0  0  0  0
  -21.9184   -4.6934   22.3410 C   0  0  0  0  0  0
  -22.7756  -13.5174   21.1876 C   0  0  0  0  0  0
  -22.1654   -4.2108   21.0989 F   0  0  0  0  0  0
  -21.5636   -3.4560   25.7775 F   0  0  0  0  0  0
  -29.9701  -13.5752   20.4207 N   0  0  0  0  0  0
  -26.2858  -12.9446   20.3259 N   0  0  0  0  0  0
  -25.9272  -11.6563   20.5706 N   0  0  0  0  0  0
  -22.0435  -12.8164   22.0442 N   0  0  0  0  0  0
  -25.4101  -15.1932   20.4221 N   0  0  0  0  0  0
  -31.7604  -14.9023   20.0774 O   0  0  0  0  0  0
  -21.6633   -6.8845   21.4239 O   0  0  0  0  0  0
  -22.3429  -14.5474   20.6728 O   0  0  0  0  0  0
  -24.6326  -31.8494   23.1968 C   0  0  0  0  0  0
  -25.9129  -32.4713   23.8326 C   0  0  1  0  0  0
  -27.2043  -27.2098   20.1413 C   0  0  0  0  0  0
  -25.5898  -33.8519   24.2219 N   0  0  0  0  0  0
  -23.4332  -30.4734   21.5432 C   0  0  2  0  0  0
  -24.8776  -28.9121   20.1161 C   0  0  0  0  0  0
  -22.7500  -29.4587   22.4919 C   0  0  0  0  0  0
  -18.0273  -28.1421   22.8467 C   0  0  0  0  0  0
  -24.1488  -36.7280   23.2645 C   0  0  0  0  0  0
  -25.9823  -30.7445   21.3934 C   0  0  0  0  0  0
  -26.0491  -29.3620   20.7365 C   0  0  0  0  0  0
  -27.2167  -28.5225   20.7372 C   0  0  0  0  0  0
  -26.0206  -26.8550   19.4679 C   0  0  0  0  0  0
  -24.8710  -27.6683   19.4699 C   0  0  0  0  0  0
  -23.6520  -29.8045   20.1621 C   0  0  0  0  0  0
  -25.4116  -36.3042   24.0321 C   0  0  1  0  0  0
  -20.5870  -28.3733   23.1250 C   0  0  2  0  0  0
  -20.6761  -26.9442   22.5413 C   0  0  0  0  0  0
  -19.5749  -26.6402   21.5210 C   0  0  0  0  0  0
  -18.1920  -26.7955   22.1615 C   0  0  0  0  0  0
  -19.1531  -28.8893   23.2861 C   0  0  0  0  0  0
  -18.9459  -30.1484   23.8903 C   0  0  0  0  0  0
  -17.6462  -30.6619   24.0566 C   0  0  0  0  0  0
  -25.9050  -34.9419   23.5086 C   0  0  0  0  0  0
  -16.5353  -29.9114   23.6335 C   0  0  0  0  0  0
  -16.7262  -28.6527   23.0359 C   0  0  0  0  0  0
  -26.4504  -31.6561   25.0731 C   0  0  0  0  0  0
  -25.3712  -31.3699   26.1434 C   0  0  0  0  0  0
  -27.0388  -30.2967   24.6310 C   0  0  0  0  0  0
  -27.6069  -32.4341   25.7468 C   0  0  0  0  0  0
  -27.5569  -37.1788   24.8464 C   0  0  0  0  0  0
  -21.4203  -29.3062   22.3640 N   0  0  0  0  0  0
  -26.4279  -37.3740   23.9400 N   0  0  0  0  0  0
  -24.7015  -31.0427   22.0992 N   0  0  0  0  0  0
  -23.4163  -28.8111   23.3041 O   0  0  0  0  0  0
  -28.3002  -26.3030   20.1344 O   0  0  0  0  0  0
  -26.5682  -34.8907   22.4682 O   0  0  0  0  0  0
  -23.5463  -32.1374   23.7215 O   0  0  0  0  0  0
  -27.3206  -22.2909   20.2674 C   0  0  0  0  0  0
  -29.6283  -22.5403   21.0135 C   0  0  0  0  0  0
  -27.3153  -23.7911   19.7361 C   0  0  0  0  0  0
  -29.5831  -24.0702   20.5314 C   0  0  0  0  0  0
  -28.6855  -21.4893   20.2975 C   0  0  1  0  0  0
  -28.1978  -24.8267   20.5259 C   0  0  2  0  0  0
  -27.2181  -19.3401   20.5586 C   0  0  0  0  0  0
  -28.7453  -19.9385   22.3908 C   0  0  0  0  0  0
  -30.0991  -16.3591   22.2905 C   0  0  0  0  0  0
  -29.7143  -18.7839   20.3183 C   0  0  0  0  0  0
  -29.4499  -17.1617   20.0333 C   0  0  0  0  0  0
  -28.6252  -19.9074   20.8531 C   0  0  0  0  0  0
  -29.8986  -15.9573   20.9016 N   0  0  0  0  0  0
  -31.4660  -12.6352   19.1971 H   0  0  0  0  0  0
  -30.3805  -11.5332   19.9892 H   0  0  0  0  0  0
  -29.8120  -11.7662   17.5334 H   0  0  0  0  0  0
  -29.6230  -13.4912   17.7339 H   0  0  0  0  0  0
  -27.9122  -11.2877   18.9271 H   0  0  0  0  0  0
  -27.3824  -12.5139   17.8056 H   0  0  0  0  0  0
  -27.6131  -14.2629   19.4560 H   0  0  0  0  0  0
  -28.7088  -12.2160   21.4420 H   0  0  0  0  0  0
  -28.3859  -13.8961   21.7897 H   0  0  0  0  0  0
  -25.2746   -9.5708   22.4723 H   0  0  0  0  0  0
  -23.9962   -7.4658   22.7504 H   0  0  0  0  0  0
  -21.0809   -8.8704   19.8948 H   0  0  0  0  0  0
  -22.3615  -10.9628   19.6134 H   0  0  0  0  0  0
  -21.2002   -7.6136   23.9698 H   0  0  0  0  0  0
  -21.1515   -6.0541   25.9065 H   0  0  0  0  0  0
  -22.0572   -2.7609   23.2892 H   0  0  0  0  0  0
  -22.4075  -11.9844   22.4869 H   0  0  0  0  0  0
  -21.1045  -13.1155   22.2652 H   0  0  0  0  0  0
  -24.6430  -15.8476   20.5328 H   0  0  0  0  0  0
  -26.2750  -15.6378   20.1460 H   0  0  0  0  0  0
  -26.7186  -32.5346   23.1060 H   0  0  0  0  0  0
  -24.9909  -33.9629   25.0277 H   0  0  0  0  0  0
  -22.7321  -31.2977   21.3922 H   0  0  0  0  0  0
  -23.3729  -35.9622   23.3289 H   0  0  0  0  0  0
  -24.3580  -36.8916   22.2053 H   0  0  0  0  0  0
  -23.7245  -37.6478   23.6695 H   0  0  0  0  0  0
  -26.1341  -31.4999   20.6208 H   0  0  0  0  0  0
  -26.8523  -30.7862   22.0354 H   0  0  0  0  0  0
  -28.1133  -28.8601   21.2370 H   0  0  0  0  0  0
  -25.9657  -25.9413   18.9040 H   0  0  0  0  0  0
  -23.9812  -27.3274   18.9595 H   0  0  0  0  0  0
  -23.7819  -30.5806   19.4073 H   0  0  0  0  0  0
  -22.7664  -29.2411   19.8560 H   0  0  0  0  0  0
  -25.1281  -36.1890   25.0803 H   0  0  0  0  0  0
  -20.9971  -28.3329   24.1370 H   0  0  0  0  0  0
  -20.5653  -26.2333   23.3621 H   0  0  0  0  0  0
  -21.6624  -26.7466   22.1216 H   0  0  0  0  0  0
  -19.6922  -25.6308   21.1232 H   0  0  0  0  0  0
  -19.6690  -27.3211   20.6740 H   0  0  0  0  0  0
  -17.4180  -26.6692   21.4029 H   0  0  0  0  0  0
  -18.0367  -26.0109   22.9037 H   0  0  0  0  0  0
  -19.7945  -30.7296   24.2270 H   0  0  0  0  0  0
  -17.5027  -31.6293   24.5190 H   0  0  0  0  0  0
  -15.5355  -30.3034   23.7677 H   0  0  0  0  0  0
  -15.8654  -28.0856   22.7096 H   0  0  0  0  0  0
  -24.5923  -30.7031   25.7720 H   0  0  0  0  0  0
  -24.8878  -32.2853   26.4863 H   0  0  0  0  0  0
  -25.8015  -30.8850   27.0211 H   0  0  0  0  0  0
  -26.3005  -29.6665   24.1346 H   0  0  0  0  0  0
  -27.4021  -29.7288   25.4893 H   0  0  0  0  0  0
  -27.8900  -30.4180   23.9603 H   0  0  0  0  0  0
  -27.2687  -33.3672   26.1999 H   0  0  0  0  0  0
  -28.3857  -32.6857   25.0246 H   0  0  0  0  0  0
  -28.0785  -31.8512   26.5386 H   0  0  0  0  0  0
  -28.2566  -38.0102   24.7473 H   0  0  0  0  0  0
  -28.1076  -36.2616   24.6316 H   0  0  0  0  0  0
  -27.2293  -37.1472   25.8873 H   0  0  0  0  0  0
  -20.9436  -29.8719   21.6765 H   0  0  0  0  0  0
  -26.0155  -38.2794   24.1437 H   0  0  0  0  0  0
  -26.5951  -21.7475   19.6580 H   0  0  0  0  0  0
  -26.8992  -22.2995   21.2736 H   0  0  0  0  0  0
  -29.4023  -22.5416   22.0792 H   0  0  0  0  0  0
  -30.6565  -22.1837   20.9356 H   0  0  0  0  0  0
  -27.6135  -23.7900   18.6865 H   0  0  0  0  0  0
  -26.2743  -24.0978   19.7667 H   0  0  0  0  0  0
  -29.9970  -24.1204   19.5240 H   0  0  0  0  0  0
  -30.2827  -24.6387   21.1481 H   0  0  0  0  0  0
  -29.0156  -21.4274   19.2608 H   0  0  0  0  0  0
  -27.8296  -24.8367   21.5510 H   0  0  0  0  0  0
  -26.4327  -19.9370   21.0209 H   0  0  0  0  0  0
  -27.0848  -18.3490   20.9876 H   0  0  0  0  0  0
  -27.0116  -19.2769   19.4884 H   0  0  0  0  0  0
  -28.0180  -20.6161   22.8452 H   0  0  0  0  0  0
  -29.7386  -20.2516   22.7129 H   0  0  0  0  0  0
  -28.5573  -18.9596   22.8311 H   0  0  0  0  0  0
  -30.3000  -15.5136   22.9522 H   0  0  0  0  0  0
  -29.2144  -16.8653   22.6667 H   0  0  0  0  0  0
  -30.9452  -17.0438   22.3643 H   0  0  0  0  0  0
  -29.9768  -19.1683   19.3309 H   0  0  0  0  0  0
  -30.6457  -18.8970   20.8692 H   0  0  0  0  0  0
  -29.9315  -16.9678   19.0733 H   0  0  0  0  0  0
  -28.3942  -17.0045   19.8151 H   0  0  0  0  0  0
  1 25  1  0  0  0
  1 30  2  0  0  0
  1 83  1  0  0  0
  2  3  1  0  0  0
  2 25  1  0  0  0
  2 84  1  0  0  0
  2 85  1  0  0  0
  3  4  1  0  0  0
  3 86  1  0  0  0
  3 87  1  0  0  0
  4  5  1  0  0  0
  4 88  1  0  0  0
  4 89  1  0  0  0
  5  6  1  0  0  0
  5 26  1  0  0  0
  5 90  1  0  0  0
  6 25  1  0  0  0
  6 91  1  0  0  0
  6 92  1  0  0  0
  7  8  2  0  0  0
  7 26  1  0  0  0
  7 29  1  0  0  0
  8  9  1  0  0  0
  8 22  1  0  0  0
  9 10  1  0  0  0
  9 27  2  0  0  0
 10 11  2  0  0  0
 10 15  1  0  0  0
 11 12  1  0  0  0
 11 93  1  0  0  0
 12 13  2  0  0  0
 12 94  1  0  0  0
 13 14  1  0  0  0
 13 31  1  0  0  0
 14 15  2  0  0  0
 14 95  1  0  0  0
 15 96  1  0  0  0
 16 17  2  0  0  0
 16 21  1  0  0  0
 16 31  1  0  0  0
 17 18  1  0  0  0
 17 97  1  0  0  0
 18 19  2  0  0  0
 18 98  1  0  0  0
 19 20  1  0  0  0
 19 24  1  0  0  0
 20 21  2  0  0  0
 20 99  1  0  0  0
 21 23  1  0  0  0
 22 28  1  0  0  0
 22 32  2  0  0  0
 26 27  1  0  0  0
 28100  1  0  0  0
 28101  1  0  0  0
 29102  1  0  0  0
 29103  1  0  0  0
 33 34  1  0  0  0
 33 66  1  0  0  0
 33 70  2  0  0  0
 34 36  1  0  0  0
 34 59  1  0  0  0
 34104  1  0  0  0
 35 44  2  0  0  0
 35 45  1  0  0  0
 35 68  1  0  0  0
 36 56  1  0  0  0
 36105  1  0  0  0
 37 39  1  0  0  0
 37 47  1  0  0  0
 37 66  1  0  0  0
 37106  1  0  0  0
 38 43  2  0  0  0
 38 46  1  0  0  0
 38 47  1  0  0  0
 39 64  1  0  0  0
 39 67  2  0  0  0
 40 52  1  0  0  0
 40 53  2  0  0  0
 40 58  1  0  0  0
 41107  1  0  0  0
 41108  1  0  0  0
 41109  1  0  0  0
 41 48  1  0  0  0
 42 43  1  0  0  0
 42 66  1  0  0  0
 42110  1  0  0  0
 42111  1  0  0  0
 43 44  1  0  0  0
 44112  1  0  0  0
 45 46  2  0  0  0
 45113  1  0  0  0
 46114  1  0  0  0
 47115  1  0  0  0
 47116  1  0  0  0
 48 56  1  0  0  0
 48 65  1  0  0  0
 48117  1  0  0  0
 49 50  1  0  0  0
 49 53  1  0  0  0
 49 64  1  0  0  0
 49118  1  0  0  0
 50 51  1  0  0  0
 50119  1  0  0  0
 50120  1  0  0  0
 51 52  1  0  0  0
 51121  1  0  0  0
 51122  1  0  0  0
 52123  1  0  0  0
 52124  1  0  0  0
 53 54  1  0  0  0
 54 55  2  0  0  0
 54125  1  0  0  0
 55 57  1  0  0  0
 55126  1  0  0  0
 56 69  2  0  0  0
 57 58  2  0  0  0
 57127  1  0  0  0
 58128  1  0  0  0
 59 60  1  0  0  0
 59 61  1  0  0  0
 59 62  1  0  0  0
 60129  1  0  0  0
 60130  1  0  0  0
 60131  1  0  0  0
 61132  1  0  0  0
 61133  1  0  0  0
 61134  1  0  0  0
 62135  1  0  0  0
 62136  1  0  0  0
 62137  1  0  0  0
 63 65  1  0  0  0
 63138  1  0  0  0
 63139  1  0  0  0
 63140  1  0  0  0
 64141  1  0  0  0
 65142  1  0  0  0
 68 76  1  0  0  0
 71 73  1  0  0  0
 71143  1  0  0  0
 71144  1  0  0  0
 71 75  1  0  0  0
 72 74  1  0  0  0
 72 75  1  0  0  0
 72145  1  0  0  0
 72146  1  0  0  0
 73 76  1  0  0  0
 73147  1  0  0  0
 73148  1  0  0  0
 74 76  1  0  0  0
 74149  1  0  0  0
 74150  1  0  0  0
 75 82  1  0  0  0
 75151  1  0  0  0
 76152  1  0  0  0
 77153  1  0  0  0
 77154  1  0  0  0
 77155  1  0  0  0
 77 82  1  0  0  0
 78 82  1  0  0  0
 78156  1  0  0  0
 78157  1  0  0  0
 78158  1  0  0  0
 79 83  1  0  0  0
 79159  1  0  0  0
 79160  1  0  0  0
 79161  1  0  0  0
 80 81  1  0  0  0
 80 82  1  0  0  0
 80162  1  0  0  0
 80163  1  0  0  0
 81 83  1  0  0  0
 81164  1  0  0  0
 81165  1  0  0  0
M  ISO  4   1 100  68 101  76 101  83 100
M  END
> <chiral flag>
0

> <version>
0

> <s_m_source_file>
/data/baiqing/PycharmProjects/Reinvent-master-3.2/result/LINK_invent/BTK/process_docking_weight1_custom_sum_contain_oxygen_bond_distance_aromatic_linkinvent_7_9_3/rearranged_h_0105.sdf

> <i_m_source_file_index>
36

> <r_mmod_Potential_Energy-OPLS-2005>
555.286987304688

> <r_mmod_Stretch_Energy-OPLS-2005>
179.500411987305

> <r_mmod_Bend_Energy-OPLS-2005>
257.088928222656

> <r_mmod_Torsional_Energy-OPLS-2005>
366.930755615234

> <r_mmod_Improper_Torsional_Energy-OPLS-2005>
4.60804224014282

> <r_mmod_Van_der_Waal_Energy-OPLS-2005>
123.609001159668

> <r_mmod_Electrostatic_Energy-OPLS-2005>
-311.4375

> <r_mmod_Solvation_Energy-OPLS-2005>
-177.283447265625

> <b_mmod_Minimization_Converged-OPLS-2005>
0

> <r_mmod_RMS_Derivative-OPLS-2005>
4.20477247238159

$$$$
36
                    3D
 Structure written by MMmdl.
154162  0  0  1  0            999 V2000
  -30.5728  -15.0291   20.3876 C   0  0  0  0  0  0
  -30.4400  -12.6450   19.4983 C   0  0  0  0  0  0
  -29.5158  -12.4914   18.2668 C   0  0  0  0  0  0
  -28.0498  -12.2915   18.6866 C   0  0  0  0  0  0
  -27.6230  -13.2507   19.8261 C   0  0  2  0  0  0
  -28.6727  -13.3494   20.9561 C   0  0  0  0  0  0
  -25.2504  -13.8232   20.5774 C   0  0  0  0  0  0
  -24.1807  -13.0474   20.9241 C   0  0  0  0  0  0
  -24.6387  -11.6940   20.8734 C   0  0  0  0  0  0
  -23.9055  -10.4314   21.0370 C   0  0  0  0  0  0
  -24.3619   -9.4229   21.9154 C   0  0  0  0  0  0
  -23.6329   -8.2241   22.0707 C   0  0  0  0  0  0
  -22.4305   -8.0262   21.3494 C   0  0  0  0  0  0
  -21.9911   -9.0231   20.4600 C   0  0  0  0  0  0
  -22.7213  -10.2146   20.3028 C   0  0  0  0  0  0
  -21.6891   -6.0722   22.5285 C   0  0  0  0  0  0
  -21.4003   -6.5632   23.8200 C   0  0  0  0  0  0
  -21.3672   -5.6794   24.9169 C   0  0  0  0  0  0
  -21.6046   -4.3059   24.7235 C   0  0  0  0  0  0
  -21.8835   -3.8144   23.4356 C   0  0  0  0  0  0
  -21.9210   -4.6943   22.3412 C   0  0  0  0  0  0
  -22.7819  -13.5204   21.1929 C   0  0  0  0  0  0
  -22.1696   -4.2123   21.0987 F   0  0  0  0  0  0
  -21.5620   -3.4550   25.7754 F   0  0  0  0  0  0
  -29.9397  -13.7757   20.3422 N   0  0  0  0  0  0
  -26.2898  -12.9459   20.3277 N   0  0  0  0  0  0
  -25.9320  -11.6588   20.5723 N   0  0  0  0  0  0
  -22.0536  -12.8128   22.0459 N   0  0  0  0  0  0
  -25.4292  -15.1955   20.4235 N   0  0  0  0  0  0
  -31.7770  -15.0336   20.1259 O   0  0  0  0  0  0
  -21.6685   -6.8850   21.4233 O   0  0  0  0  0  0
  -22.3461  -14.5508   20.6774 O   0  0  0  0  0  0
  -24.6496  -31.8380   23.1801 C   0  0  0  0  0  0
  -25.9214  -32.4694   23.8232 C   0  0  1  0  0  0
  -27.2197  -27.0876   20.1470 C   0  0  0  0  0  0
  -25.5909  -33.8491   24.2167 N   0  0  0  0  0  0
  -23.4555  -30.4524   21.5328 C   0  0  2  0  0  0
  -24.9058  -28.8696   20.1160 C   0  0  0  0  0  0
  -22.7607  -29.4490   22.4886 C   0  0  0  0  0  0
  -18.0284  -28.1456   22.8451 C   0  0  0  0  0  0
  -24.1453  -36.7228   23.2643 C   0  0  0  0  0  0
  -26.0135  -30.7039   21.3754 C   0  0  0  0  0  0
  -26.0906  -29.3082   20.7177 C   0  0  0  0  0  0
  -27.2513  -28.4352   20.7070 C   0  0  0  0  0  0
  -25.9992  -26.7542   19.5186 C   0  0  0  0  0  0
  -24.8747  -27.6112   19.5027 C   0  0  0  0  0  0
  -23.6834  -29.7725   20.1570 C   0  0  0  0  0  0
  -25.4092  -36.3023   24.0321 C   0  0  1  0  0  0
  -20.5883  -28.3736   23.1250 C   0  0  2  0  0  0
  -20.6778  -26.9455   22.5424 C   0  0  0  0  0  0
  -19.5777  -26.6411   21.5217 C   0  0  0  0  0  0
  -18.1930  -26.7986   22.1606 C   0  0  0  0  0  0
  -19.1545  -28.8935   23.2808 C   0  0  0  0  0  0
  -18.9460  -30.1502   23.8868 C   0  0  0  0  0  0
  -17.6476  -30.6640   24.0584 C   0  0  0  0  0  0
  -25.9057  -34.9393   23.5074 C   0  0  0  0  0  0
  -16.5365  -29.9154   23.6386 C   0  0  0  0  0  0
  -16.7255  -28.6578   23.0370 C   0  0  0  0  0  0
  -26.4511  -31.6592   25.0717 C   0  0  0  0  0  0
  -25.3659  -31.3768   26.1399 C   0  0  0  0  0  0
  -27.0396  -30.3027   24.6254 C   0  0  0  0  0  0
  -27.6079  -32.4385   25.7448 C   0  0  0  0  0  0
  -27.5543  -37.1735   24.8475 C   0  0  0  0  0  0
  -21.4295  -29.3033   22.3657 N   0  0  0  0  0  0
  -26.4247  -37.3768   23.9443 N   0  0  0  0  0  0
  -24.7288  -31.0141   22.0892 N   0  0  0  0  0  0
  -23.4230  -28.8060   23.3077 O   0  0  0  0  0  0
  -28.2878  -26.1022   20.1718 O   0  0  0  0  0  0
  -26.5679  -34.8895   22.4669 O   0  0  0  0  0  0
  -23.5584  -32.1263   23.6952 O   0  0  0  0  0  0
  -29.6163  -20.5215   19.8031 C   0  0  0  0  0  0
  -29.6542  -19.2858   20.5263 C   0  0  0  0  0  0
  -29.1589  -19.7638   21.7966 C   0  0  0  0  0  0
  -28.9179  -21.1426   21.7768 C   0  0  0  0  0  0
  -28.9993  -18.9050   23.0373 C   0  0  0  0  0  0
  -28.5527  -21.9916   22.9577 C   0  0  0  0  0  0
  -30.2826  -17.7670   20.1105 C   0  0  0  0  0  0
  -29.1595  -23.2601   20.0552 C   0  0  0  0  0  0
  -28.0714  -24.5465   20.3783 C   0  0  0  0  0  0
  -29.1504  -21.7075   20.5131 N   0  0  0  0  0  0
  -29.8596  -16.2733   20.4950 N   0  0  0  0  0  0
  -31.4569  -12.8180   19.1443 H   0  0  0  0  0  0
  -30.4841  -11.7228   20.0791 H   0  0  0  0  0  0
  -29.8314  -11.6394   17.6639 H   0  0  0  0  0  0
  -29.5989  -13.3701   17.6312 H   0  0  0  0  0  0
  -27.9271  -11.2544   19.0031 H   0  0  0  0  0  0
  -27.3909  -12.4112   17.8262 H   0  0  0  0  0  0
  -27.5619  -14.2334   19.3589 H   0  0  0  0  0  0
  -28.7904  -12.3919   21.4645 H   0  0  0  0  0  0
  -28.3538  -14.0678   21.7136 H   0  0  0  0  0  0
  -25.2761   -9.5753   22.4718 H   0  0  0  0  0  0
  -24.0095   -7.4615   22.7378 H   0  0  0  0  0  0
  -21.0846   -8.8688   19.8875 H   0  0  0  0  0  0
  -22.3609  -10.9666   19.6133 H   0  0  0  0  0  0
  -21.1981   -7.6134   23.9687 H   0  0  0  0  0  0
  -21.1477   -6.0522   25.9057 H   0  0  0  0  0  0
  -22.0605   -2.7602   23.2884 H   0  0  0  0  0  0
  -22.4306  -11.9861   22.4879 H   0  0  0  0  0  0
  -21.1086  -13.0959   22.2623 H   0  0  0  0  0  0
  -24.6944  -15.8717   20.5869 H   0  0  0  0  0  0
  -26.2739  -15.6178   20.0670 H   0  0  0  0  0  0
  -26.7321  -32.5319   23.0989 H   0  0  0  0  0  0
  -25.0038  -33.9641   25.0290 H   0  0  0  0  0  0
  -22.7593  -31.2758   21.3693 H   0  0  0  0  0  0
  -23.3763  -35.9521   23.3305 H   0  0  0  0  0  0
  -24.3525  -36.8882   22.2064 H   0  0  0  0  0  0
  -23.7135  -37.6387   23.6699 H   0  0  0  0  0  0
  -26.1472  -31.4499   20.5898 H   0  0  0  0  0  0
  -26.8899  -30.7783   22.0054 H   0  0  0  0  0  0
  -28.1650  -28.7708   21.1804 H   0  0  0  0  0  0
  -25.8694  -25.7943   19.0368 H   0  0  0  0  0  0
  -23.9631  -27.2766   19.0291 H   0  0  0  0  0  0
  -23.8153  -30.5356   19.3912 H   0  0  0  0  0  0
  -22.8005  -29.2047   19.8593 H   0  0  0  0  0  0
  -25.1255  -36.1881   25.0818 H   0  0  0  0  0  0
  -20.9888  -28.3334   24.1391 H   0  0  0  0  0  0
  -20.5700  -26.2333   23.3624 H   0  0  0  0  0  0
  -21.6638  -26.7542   22.1184 H   0  0  0  0  0  0
  -19.6942  -25.6294   21.1300 H   0  0  0  0  0  0
  -19.6739  -27.3171   20.6718 H   0  0  0  0  0  0
  -17.4207  -26.6705   21.4013 H   0  0  0  0  0  0
  -18.0337  -26.0144   22.9026 H   0  0  0  0  0  0
  -19.7927  -30.7308   24.2238 H   0  0  0  0  0  0
  -17.5038  -31.6309   24.5184 H   0  0  0  0  0  0
  -15.5349  -30.3073   23.7700 H   0  0  0  0  0  0
  -15.8638  -28.0887   22.7143 H   0  0  0  0  0  0
  -24.5837  -30.7173   25.7637 H   0  0  0  0  0  0
  -24.8822  -32.2935   26.4809 H   0  0  0  0  0  0
  -25.7851  -30.8907   27.0212 H   0  0  0  0  0  0
  -26.3024  -29.6761   24.1262 H   0  0  0  0  0  0
  -27.4086  -29.7347   25.4783 H   0  0  0  0  0  0
  -27.8864  -30.4351   23.9526 H   0  0  0  0  0  0
  -27.2772  -33.3779   26.1897 H   0  0  0  0  0  0
  -28.3886  -32.6831   25.0227 H   0  0  0  0  0  0
  -28.0768  -31.8615   26.5426 H   0  0  0  0  0  0
  -28.2578  -38.0024   24.7581 H   0  0  0  0  0  0
  -28.1029  -36.2568   24.6256 H   0  0  0  0  0  0
  -27.2287  -37.1343   25.8888 H   0  0  0  0  0  0
  -20.9577  -29.8707   21.6748 H   0  0  0  0  0  0
  -26.0127  -38.2822   24.1578 H   0  0  0  0  0  0
  -29.9632  -20.6925   18.7921 H   0  0  0  0  0  0
  -28.5805  -17.9304   22.7989 H   0  0  0  0  0  0
  -28.3271  -19.3660   23.7628 H   0  0  0  0  0  0
  -29.9568  -18.7476   23.5358 H   0  0  0  0  0  0
  -28.7417  -23.0504   22.7951 H   0  0  0  0  0  0
  -29.1461  -21.7057   23.8292 H   0  0  0  0  0  0
  -27.5068  -21.8609   23.2345 H   0  0  0  0  0  0
  -31.3387  -17.8284   20.3830 H   0  0  0  0  0  0
  -30.3237  -17.7690   19.0213 H   0  0  0  0  0  0
  -30.1310  -23.6310   20.3683 H   0  0  0  0  0  0
  -29.2510  -23.2288   18.9700 H   0  0  0  0  0  0
  -27.8246  -24.4846   21.4343 H   0  0  0  0  0  0
  -27.1486  -24.2711   19.8743 H   0  0  0  0  0  0
  -28.8756  -16.1663   20.6761 H   0  0  0  0  0  0
  1 25  1  0  0  0
  1 30  2  0  0  0
  1 81  1  0  0  0
  2  3  1  0  0  0
  2 25  1  0  0  0
  2 82  1  0  0  0
  2 83  1  0  0  0
  3  4  1  0  0  0
  3 84  1  0  0  0
  3 85  1  0  0  0
  4  5  1  0  0  0
  4 86  1  0  0  0
  4 87  1  0  0  0
  5  6  1  0  0  0
  5 26  1  0  0  0
  5 88  1  0  0  0
  6 25  1  0  0  0
  6 89  1  0  0  0
  6 90  1  0  0  0
  7  8  2  0  0  0
  7 26  1  0  0  0
  7 29  1  0  0  0
  8  9  1  0  0  0
  8 22  1  0  0  0
  9 10  1  0  0  0
  9 27  2  0  0  0
 10 11  2  0  0  0
 10 15  1  0  0  0
 11 12  1  0  0  0
 11 91  1  0  0  0
 12 13  2  0  0  0
 12 92  1  0  0  0
 13 14  1  0  0  0
 13 31  1  0  0  0
 14 15  2  0  0  0
 14 93  1  0  0  0
 15 94  1  0  0  0
 16 17  2  0  0  0
 16 21  1  0  0  0
 16 31  1  0  0  0
 17 18  1  0  0  0
 17 95  1  0  0  0
 18 19  2  0  0  0
 18 96  1  0  0  0
 19 20  1  0  0  0
 19 24  1  0  0  0
 20 21  2  0  0  0
 20 97  1  0  0  0
 21 23  1  0  0  0
 22 28  1  0  0  0
 22 32  2  0  0  0
 26 27  1  0  0  0
 28 98  1  0  0  0
 28 99  1  0  0  0
 29100  1  0  0  0
 29101  1  0  0  0
 33 34  1  0  0  0
 33 66  1  0  0  0
 33 70  2  0  0  0
 34 36  1  0  0  0
 34 59  1  0  0  0
 34102  1  0  0  0
 35 44  2  0  0  0
 35 45  1  0  0  0
 35 68  1  0  0  0
 36 56  1  0  0  0
 36103  1  0  0  0
 37 39  1  0  0  0
 37 47  1  0  0  0
 37 66  1  0  0  0
 37104  1  0  0  0
 38 43  2  0  0  0
 38 46  1  0  0  0
 38 47  1  0  0  0
 39 64  1  0  0  0
 39 67  2  0  0  0
 40 52  1  0  0  0
 40 53  2  0  0  0
 40 58  1  0  0  0
 41105  1  0  0  0
 41106  1  0  0  0
 41107  1  0  0  0
 41 48  1  0  0  0
 42 43  1  0  0  0
 42 66  1  0  0  0
 42108  1  0  0  0
 42109  1  0  0  0
 43 44  1  0  0  0
 44110  1  0  0  0
 45 46  2  0  0  0
 45111  1  0  0  0
 46112  1  0  0  0
 47113  1  0  0  0
 47114  1  0  0  0
 48 56  1  0  0  0
 48 65  1  0  0  0
 48115  1  0  0  0
 49 50  1  0  0  0
 49 53  1  0  0  0
 49 64  1  0  0  0
 49116  1  0  0  0
 50 51  1  0  0  0
 50117  1  0  0  0
 50118  1  0  0  0
 51 52  1  0  0  0
 51119  1  0  0  0
 51120  1  0  0  0
 52121  1  0  0  0
 52122  1  0  0  0
 53 54  1  0  0  0
 54 55  2  0  0  0
 54123  1  0  0  0
 55 57  1  0  0  0
 55124  1  0  0  0
 56 69  2  0  0  0
 57 58  2  0  0  0
 57125  1  0  0  0
 58126  1  0  0  0
 59 60  1  0  0  0
 59 61  1  0  0  0
 59 62  1  0  0  0
 60127  1  0  0  0
 60128  1  0  0  0
 60129  1  0  0  0
 61130  1  0  0  0
 61131  1  0  0  0
 61132  1  0  0  0
 62133  1  0  0  0
 62134  1  0  0  0
 62135  1  0  0  0
 63 65  1  0  0  0
 63136  1  0  0  0
 63137  1  0  0  0
 63138  1  0  0  0
 64139  1  0  0  0
 65140  1  0  0  0
 68 79  1  0  0  0
 71 72  2  0  0  0
 71 80  1  0  0  0
 71141  1  0  0  0
 72 73  1  0  0  0
 72 77  1  0  0  0
 73 74  2  0  0  0
 73 75  1  0  0  0
 74 76  1  0  0  0
 74 80  1  0  0  0
 75142  1  0  0  0
 75143  1  0  0  0
 75144  1  0  0  0
 76145  1  0  0  0
 76146  1  0  0  0
 76147  1  0  0  0
 77 81  1  0  0  0
 77148  1  0  0  0
 77149  1  0  0  0
 78 79  1  0  0  0
 78 80  1  0  0  0
 78150  1  0  0  0
 78151  1  0  0  0
 79152  1  0  0  0
 79153  1  0  0  0
 81154  1  0  0  0
M  ISO  4   1 100  68 101  79 101  81 100
M  END
> <chiral flag>
0

> <version>
0

> <s_m_source_file>
/data/baiqing/PycharmProjects/Reinvent-master-3.2/result/LINK_invent/BTK/process_docking_weight1_custom_sum_contain_oxygen_bond_distance_aromatic_linkinvent_7_9_3/rearranged_h_0105.sdf

> <i_m_source_file_index>
37

> <r_mmod_Potential_Energy-OPLS-2005>
571.156127929688

> <r_mmod_Stretch_Energy-OPLS-2005>
317.641662597656

> <r_mmod_Bend_Energy-OPLS-2005>
306.248565673828

> <r_mmod_Torsional_Energy-OPLS-2005>
228.43669128418

> <r_mmod_Improper_Torsional_Energy-OPLS-2005>
7.90929651260376

> <r_mmod_Van_der_Waal_Energy-OPLS-2005>
108.675827026367

> <r_mmod_Electrostatic_Energy-OPLS-2005>
-419.404541015625

> <r_mmod_Solvation_Energy-OPLS-2005>
-218.867294311523

> <b_mmod_Minimization_Converged-OPLS-2005>
0

> <r_mmod_RMS_Derivative-OPLS-2005>
6.90276575088501

$$$$
37
                    3D
 Structure written by MMmdl.
169177  0  0  1  0            999 V2000
  -30.5385  -14.9992   20.4274 C   0  0  0  0  0  0
  -30.4331  -12.6259   19.5135 C   0  0  0  0  0  0
  -29.5235  -12.5451   18.2660 C   0  0  0  0  0  0
  -28.0611  -12.3130   18.6839 C   0  0  0  0  0  0
  -27.6270  -13.2536   19.8387 C   0  0  2  0  0  0
  -28.6623  -13.3197   20.9819 C   0  0  0  0  0  0
  -25.2434  -13.8190   20.5636 C   0  0  0  0  0  0
  -24.1773  -13.0409   20.9170 C   0  0  0  0  0  0
  -24.6401  -11.6900   20.8738 C   0  0  0  0  0  0
  -23.9100  -10.4267   21.0391 C   0  0  0  0  0  0
  -24.3641   -9.4190   21.9187 C   0  0  0  0  0  0
  -23.6297   -8.2244   22.0779 C   0  0  0  0  0  0
  -22.4284   -8.0269   21.3561 C   0  0  0  0  0  0
  -21.9920   -9.0245   20.4669 C   0  0  0  0  0  0
  -22.7259  -10.2109   20.3056 C   0  0  0  0  0  0
  -21.6859   -6.0714   22.5277 C   0  0  0  0  0  0
  -21.4015   -6.5634   23.8196 C   0  0  0  0  0  0
  -21.3661   -5.6798   24.9170 C   0  0  0  0  0  0
  -21.6034   -4.3059   24.7235 C   0  0  0  0  0  0
  -21.8824   -3.8135   23.4367 C   0  0  0  0  0  0
  -21.9191   -4.6944   22.3405 C   0  0  0  0  0  0
  -22.7806  -13.5191   21.1816 C   0  0  0  0  0  0
  -22.1662   -4.2118   21.0989 F   0  0  0  0  0  0
  -21.5628   -3.4552   25.7755 F   0  0  0  0  0  0
  -29.9359  -13.7368   20.3832 N   0  0  0  0  0  0
  -26.2881  -12.9446   20.3244 N   0  0  0  0  0  0
  -25.9349  -11.6569   20.5771 N   0  0  0  0  0  0
  -22.0483  -12.8187   22.0395 N   0  0  0  0  0  0
  -25.4035  -15.1904   20.3960 N   0  0  0  0  0  0
  -31.7390  -15.0387   20.1358 O   0  0  0  0  0  0
  -21.6648   -6.8864   21.4237 O   0  0  0  0  0  0
  -22.3475  -14.5474   20.6629 O   0  0  0  0  0  0
  -24.6503  -31.8378   23.1820 C   0  0  0  0  0  0
  -25.9243  -32.4663   23.8218 C   0  0  1  0  0  0
  -27.2172  -27.1016   20.1757 C   0  0  0  0  0  0
  -25.5976  -33.8468   24.2149 N   0  0  0  0  0  0
  -23.4557  -30.4582   21.5250 C   0  0  2  0  0  0
  -24.9065  -28.8812   20.1039 C   0  0  0  0  0  0
  -22.7625  -29.4504   22.4781 C   0  0  0  0  0  0
  -18.0313  -28.1440   22.8450 C   0  0  0  0  0  0
  -24.1483  -36.7232   23.2652 C   0  0  0  0  0  0
  -26.0131  -30.7108   21.3774 C   0  0  0  0  0  0
  -26.0847  -29.3163   20.7242 C   0  0  0  0  0  0
  -27.2423  -28.4481   20.7337 C   0  0  0  0  0  0
  -26.0121  -26.7716   19.5167 C   0  0  0  0  0  0
  -24.8883  -27.6259   19.4769 C   0  0  0  0  0  0
  -23.6842  -29.7885   20.1437 C   0  0  0  0  0  0
  -25.4115  -36.3005   24.0322 C   0  0  1  0  0  0
  -20.5948  -28.3737   23.1220 C   0  0  2  0  0  0
  -20.6785  -26.9428   22.5416 C   0  0  0  0  0  0
  -19.5755  -26.6394   21.5231 C   0  0  0  0  0  0
  -18.1925  -26.7973   22.1625 C   0  0  0  0  0  0
  -19.1585  -28.8900   23.2819 C   0  0  0  0  0  0
  -18.9511  -30.1484   23.8856 C   0  0  0  0  0  0
  -17.6512  -30.6612   24.0570 C   0  0  0  0  0  0
  -25.9087  -34.9390   23.5043 C   0  0  0  0  0  0
  -16.5387  -29.9116   23.6357 C   0  0  0  0  0  0
  -16.7298  -28.6552   23.0332 C   0  0  0  0  0  0
  -26.4549  -31.6564   25.0688 C   0  0  0  0  0  0
  -25.3716  -31.3771   26.1385 C   0  0  0  0  0  0
  -27.0420  -30.2979   24.6245 C   0  0  0  0  0  0
  -27.6041  -32.4363   25.7486 C   0  0  0  0  0  0
  -27.5553  -37.1766   24.8477 C   0  0  0  0  0  0
  -21.4296  -29.3053   22.3579 N   0  0  0  0  0  0
  -26.4255  -37.3734   23.9444 N   0  0  0  0  0  0
  -24.7267  -31.0230   22.0842 N   0  0  0  0  0  0
  -23.4252  -28.8028   23.2921 O   0  0  0  0  0  0
  -28.2663  -26.1050   20.2465 O   0  0  0  0  0  0
  -26.5669  -34.8896   22.4626 O   0  0  0  0  0  0
  -23.5622  -32.1260   23.7038 O   0  0  0  0  0  0
  -29.6712  -20.4754   19.9971 C   0  0  0  0  0  0
  -28.2353  -20.9727   21.5306 C   0  0  0  0  0  0
  -28.9686  -21.6489   20.5831 C   0  0  0  0  0  0
  -29.4506  -19.2022   20.5978 C   0  0  0  0  0  0
  -32.4232  -23.4184   22.6485 C   0  0  0  0  0  0
  -27.0853  -19.4309   23.6759 C   0  0  0  0  0  0
  -29.1187  -18.0523   23.4825 C   0  0  0  0  0  0
  -27.0970  -17.6052   21.9913 C   0  0  0  0  0  0
  -30.2175  -17.7320   20.3445 C   0  0  0  0  0  0
  -31.5108  -22.9882   21.4947 C   0  0  0  0  0  0
  -30.1852  -23.7777   21.4541 C   0  0  0  0  0  0
  -28.0007  -24.5508   20.3017 C   0  0  0  0  0  0
  -29.1665  -23.3117   20.3856 C   0  0  2  0  0  0
  -27.9763  -18.6803   22.6548 C   0  0  0  0  0  0
  -28.5332  -19.5747   21.6127 N   0  0  0  0  0  0
  -29.7940  -16.2136   20.5878 N   0  0  0  0  0  0
  -31.4677  -12.7811   19.2047 H   0  0  0  0  0  0
  -30.4264  -11.6810   20.0573 H   0  0  0  0  0  0
  -29.8563  -11.7446   17.6045 H   0  0  0  0  0  0
  -29.5998  -13.4703   17.6924 H   0  0  0  0  0  0
  -27.9707  -11.2726   19.0005 H   0  0  0  0  0  0
  -27.3956  -12.4284   17.8274 H   0  0  0  0  0  0
  -27.5812  -14.2482   19.3955 H   0  0  0  0  0  0
  -28.7597  -12.3599   21.4914 H   0  0  0  0  0  0
  -28.3465  -14.0416   21.7377 H   0  0  0  0  0  0
  -25.2795   -9.5643   22.4759 H   0  0  0  0  0  0
  -23.9974   -7.4642   22.7531 H   0  0  0  0  0  0
  -21.0843   -8.8769   19.9000 H   0  0  0  0  0  0
  -22.3728  -10.9638   19.6158 H   0  0  0  0  0  0
  -21.2013   -7.6145   23.9681 H   0  0  0  0  0  0
  -21.1479   -6.0545   25.9062 H   0  0  0  0  0  0
  -22.0601   -2.7598   23.2883 H   0  0  0  0  0  0
  -22.4149  -11.9848   22.4745 H   0  0  0  0  0  0
  -21.1118  -13.1217   22.2663 H   0  0  0  0  0  0
  -24.6208  -15.8292   20.4816 H   0  0  0  0  0  0
  -26.2362  -15.6333   20.0312 H   0  0  0  0  0  0
  -26.7309  -32.5250   23.0935 H   0  0  0  0  0  0
  -25.0117  -33.9560   25.0294 H   0  0  0  0  0  0
  -22.7616  -31.2856   21.3662 H   0  0  0  0  0  0
  -23.3746  -35.9562   23.3307 H   0  0  0  0  0  0
  -24.3563  -36.8874   22.2066 H   0  0  0  0  0  0
  -23.7239  -37.6416   23.6702 H   0  0  0  0  0  0
  -26.1658  -31.4617   20.6000 H   0  0  0  0  0  0
  -26.8865  -30.7680   22.0156 H   0  0  0  0  0  0
  -28.1411  -28.7809   21.2345 H   0  0  0  0  0  0
  -25.9085  -25.8098   19.0416 H   0  0  0  0  0  0
  -23.9941  -27.2864   18.9719 H   0  0  0  0  0  0
  -23.8279  -30.5643   19.3899 H   0  0  0  0  0  0
  -22.7998  -29.2328   19.8249 H   0  0  0  0  0  0
  -25.1303  -36.1790   25.0808 H   0  0  0  0  0  0
  -21.0025  -28.3314   24.1352 H   0  0  0  0  0  0
  -20.5726  -26.2319   23.3619 H   0  0  0  0  0  0
  -21.6635  -26.7445   22.1175 H   0  0  0  0  0  0
  -19.6915  -25.6306   21.1248 H   0  0  0  0  0  0
  -19.6712  -27.3212   20.6769 H   0  0  0  0  0  0
  -17.4213  -26.6732   21.4007 H   0  0  0  0  0  0
  -18.0273  -26.0154   22.9059 H   0  0  0  0  0  0
  -19.7990  -30.7301   24.2201 H   0  0  0  0  0  0
  -17.5077  -31.6288   24.5188 H   0  0  0  0  0  0
  -15.5386  -30.3015   23.7713 H   0  0  0  0  0  0
  -15.8687  -28.0881   22.7040 H   0  0  0  0  0  0
  -24.5937  -30.7075   25.7714 H   0  0  0  0  0  0
  -24.8865  -32.2945   26.4697 H   0  0  0  0  0  0
  -25.8015  -30.9035   27.0225 H   0  0  0  0  0  0
  -26.3045  -29.6689   24.1245 H   0  0  0  0  0  0
  -27.4070  -29.7263   25.4782 H   0  0  0  0  0  0
  -27.8906  -30.4251   23.9535 H   0  0  0  0  0  0
  -27.2631  -33.3726   26.1919 H   0  0  0  0  0  0
  -28.3929  -32.6830   25.0374 H   0  0  0  0  0  0
  -28.0625  -31.8585   26.5520 H   0  0  0  0  0  0
  -28.2547  -38.0077   24.7524 H   0  0  0  0  0  0
  -28.1066  -36.2599   24.6301 H   0  0  0  0  0  0
  -27.2276  -37.1414   25.8879 H   0  0  0  0  0  0
  -20.9525  -29.8844   21.6825 H   0  0  0  0  0  0
  -26.0099  -38.2787   24.1480 H   0  0  0  0  0  0
  -30.4052  -20.5843   19.2107 H   0  0  0  0  0  0
  -27.5600  -21.4231   22.2438 H   0  0  0  0  0  0
  -33.3451  -22.8353   22.6430 H   0  0  0  0  0  0
  -31.9371  -23.2541   23.6111 H   0  0  0  0  0  0
  -32.6889  -24.4731   22.5772 H   0  0  0  0  0  0
  -26.6978  -18.7462   24.4309 H   0  0  0  0  0  0
  -26.2184  -19.8978   23.2063 H   0  0  0  0  0  0
  -27.6381  -20.2052   24.2104 H   0  0  0  0  0  0
  -28.7299  -17.4578   24.3103 H   0  0  0  0  0  0
  -29.7533  -18.8243   23.9203 H   0  0  0  0  0  0
  -29.7591  -17.3928   22.9064 H   0  0  0  0  0  0
  -26.9397  -16.7512   22.6499 H   0  0  0  0  0  0
  -27.5169  -17.2360   21.0619 H   0  0  0  0  0  0
  -26.1169  -18.0062   21.7331 H   0  0  0  0  0  0
  -31.1779  -17.8130   20.8562 H   0  0  0  0  0  0
  -30.5023  -17.7379   19.2911 H   0  0  0  0  0  0
  -31.3282  -21.9189   21.6022 H   0  0  0  0  0  0
  -32.0357  -23.1090   20.5464 H   0  0  0  0  0  0
  -30.4125  -24.8329   21.2987 H   0  0  0  0  0  0
  -29.7064  -23.7183   22.4310 H   0  0  0  0  0  0
  -27.3363  -24.4109   21.1565 H   0  0  0  0  0  0
  -27.3918  -24.3065   19.4333 H   0  0  0  0  0  0
  -29.6817  -23.3777   19.4261 H   0  0  0  0  0  0
  -28.8244  -16.0858   20.8298 H   0  0  0  0  0  0
  1 25  1  0  0  0
  1 30  2  0  0  0
  1 86  1  0  0  0
  2  3  1  0  0  0
  2 25  1  0  0  0
  2 87  1  0  0  0
  2 88  1  0  0  0
  3  4  1  0  0  0
  3 89  1  0  0  0
  3 90  1  0  0  0
  4  5  1  0  0  0
  4 91  1  0  0  0
  4 92  1  0  0  0
  5  6  1  0  0  0
  5 26  1  0  0  0
  5 93  1  0  0  0
  6 25  1  0  0  0
  6 94  1  0  0  0
  6 95  1  0  0  0
  7  8  2  0  0  0
  7 26  1  0  0  0
  7 29  1  0  0  0
  8  9  1  0  0  0
  8 22  1  0  0  0
  9 10  1  0  0  0
  9 27  2  0  0  0
 10 11  2  0  0  0
 10 15  1  0  0  0
 11 12  1  0  0  0
 11 96  1  0  0  0
 12 13  2  0  0  0
 12 97  1  0  0  0
 13 14  1  0  0  0
 13 31  1  0  0  0
 14 15  2  0  0  0
 14 98  1  0  0  0
 15 99  1  0  0  0
 16 17  2  0  0  0
 16 21  1  0  0  0
 16 31  1  0  0  0
 17 18  1  0  0  0
 17100  1  0  0  0
 18 19  2  0  0  0
 18101  1  0  0  0
 19 20  1  0  0  0
 19 24  1  0  0  0
 20 21  2  0  0  0
 20102  1  0  0  0
 21 23  1  0  0  0
 22 28  1  0  0  0
 22 32  2  0  0  0
 26 27  1  0  0  0
 28103  1  0  0  0
 28104  1  0  0  0
 29105  1  0  0  0
 29106  1  0  0  0
 33 34  1  0  0  0
 33 66  1  0  0  0
 33 70  2  0  0  0
 34 36  1  0  0  0
 34 59  1  0  0  0
 34107  1  0  0  0
 35 44  2  0  0  0
 35 45  1  0  0  0
 35 68  1  0  0  0
 36 56  1  0  0  0
 36108  1  0  0  0
 37 39  1  0  0  0
 37 47  1  0  0  0
 37 66  1  0  0  0
 37109  1  0  0  0
 38 43  2  0  0  0
 38 46  1  0  0  0
 38 47  1  0  0  0
 39 64  1  0  0  0
 39 67  2  0  0  0
 40 52  1  0  0  0
 40 53  2  0  0  0
 40 58  1  0  0  0
 41110  1  0  0  0
 41111  1  0  0  0
 41112  1  0  0  0
 41 48  1  0  0  0
 42 43  1  0  0  0
 42 66  1  0  0  0
 42113  1  0  0  0
 42114  1  0  0  0
 43 44  1  0  0  0
 44115  1  0  0  0
 45 46  2  0  0  0
 45116  1  0  0  0
 46117  1  0  0  0
 47118  1  0  0  0
 47119  1  0  0  0
 48 56  1  0  0  0
 48 65  1  0  0  0
 48120  1  0  0  0
 49 50  1  0  0  0
 49 53  1  0  0  0
 49 64  1  0  0  0
 49121  1  0  0  0
 50 51  1  0  0  0
 50122  1  0  0  0
 50123  1  0  0  0
 51 52  1  0  0  0
 51124  1  0  0  0
 51125  1  0  0  0
 52126  1  0  0  0
 52127  1  0  0  0
 53 54  1  0  0  0
 54 55  2  0  0  0
 54128  1  0  0  0
 55 57  1  0  0  0
 55129  1  0  0  0
 56 69  2  0  0  0
 57 58  2  0  0  0
 57130  1  0  0  0
 58131  1  0  0  0
 59 60  1  0  0  0
 59 61  1  0  0  0
 59 62  1  0  0  0
 60132  1  0  0  0
 60133  1  0  0  0
 60134  1  0  0  0
 61135  1  0  0  0
 61136  1  0  0  0
 61137  1  0  0  0
 62138  1  0  0  0
 62139  1  0  0  0
 62140  1  0  0  0
 63 65  1  0  0  0
 63141  1  0  0  0
 63142  1  0  0  0
 63143  1  0  0  0
 64144  1  0  0  0
 65145  1  0  0  0
 68 82  1  0  0  0
 71 73  1  0  0  0
 71 74  2  0  0  0
 71146  1  0  0  0
 72 73  2  0  0  0
 72 85  1  0  0  0
 72147  1  0  0  0
 73 83  1  0  0  0
 74 79  1  0  0  0
 74 85  1  0  0  0
 75 80  1  0  0  0
 75148  1  0  0  0
 75149  1  0  0  0
 75150  1  0  0  0
 76151  1  0  0  0
 76152  1  0  0  0
 76153  1  0  0  0
 76 84  1  0  0  0
 77 84  1  0  0  0
 77154  1  0  0  0
 77155  1  0  0  0
 77156  1  0  0  0
 78 84  1  0  0  0
 78157  1  0  0  0
 78158  1  0  0  0
 78159  1  0  0  0
 79 86  1  0  0  0
 79160  1  0  0  0
 79161  1  0  0  0
 80 81  1  0  0  0
 80162  1  0  0  0
 80163  1  0  0  0
 81164  1  0  0  0
 81165  1  0  0  0
 81 83  1  0  0  0
 82 83  1  0  0  0
 82166  1  0  0  0
 82167  1  0  0  0
 83168  1  0  0  0
 84 85  1  0  0  0
 86169  1  0  0  0
M  ISO  4   1 100  68 101  82 101  86 100
M  END
> <chiral flag>
0

> <version>
0

> <s_m_source_file>
/data/baiqing/PycharmProjects/Reinvent-master-3.2/result/LINK_invent/BTK/process_docking_weight1_custom_sum_contain_oxygen_bond_distance_aromatic_linkinvent_7_9_3/rearranged_h_0105.sdf

> <i_m_source_file_index>
38

> <r_mmod_Potential_Energy-OPLS-2005>
580.678405761719

> <r_mmod_Stretch_Energy-OPLS-2005>
299.766387939453

> <r_mmod_Bend_Energy-OPLS-2005>
301.977020263672

> <r_mmod_Torsional_Energy-OPLS-2005>
259.997650146484

> <r_mmod_Improper_Torsional_Energy-OPLS-2005>
6.92683887481689

> <r_mmod_Van_der_Waal_Energy-OPLS-2005>
115.425323486328

> <r_mmod_Electrostatic_Energy-OPLS-2005>
-435.576995849609

> <r_mmod_Solvation_Energy-OPLS-2005>
-194.448974609375

> <b_mmod_Minimization_Converged-OPLS-2005>
0

> <r_mmod_RMS_Derivative-OPLS-2005>
3.29545044898987

$$$$
38
                    3D
 Structure written by MMmdl.
159167  0  0  1  0            999 V2000
  -30.4386  -15.0682   20.4155 C   0  0  0  0  0  0
  -30.4549  -12.6713   19.5422 C   0  0  0  0  0  0
  -29.5413  -12.5587   18.2969 C   0  0  0  0  0  0
  -28.0740  -12.3304   18.7077 C   0  0  0  0  0  0
  -27.6253  -13.2640   19.8635 C   0  0  2  0  0  0
  -28.6588  -13.3038   21.0057 C   0  0  0  0  0  0
  -25.2455  -13.8301   20.5816 C   0  0  0  0  0  0
  -24.1736  -13.0501   20.9300 C   0  0  0  0  0  0
  -24.6370  -11.7023   20.8809 C   0  0  0  0  0  0
  -23.9075  -10.4372   21.0466 C   0  0  0  0  0  0
  -24.3638   -9.4250   21.9199 C   0  0  0  0  0  0
  -23.6309   -8.2274   22.0765 C   0  0  0  0  0  0
  -22.4282   -8.0306   21.3558 C   0  0  0  0  0  0
  -21.9932   -9.0289   20.4658 C   0  0  0  0  0  0
  -22.7275  -10.2176   20.3081 C   0  0  0  0  0  0
  -21.6871   -6.0756   22.5262 C   0  0  0  0  0  0
  -21.4008   -6.5660   23.8190 C   0  0  0  0  0  0
  -21.3670   -5.6818   24.9163 C   0  0  0  0  0  0
  -21.6025   -4.3070   24.7212 C   0  0  0  0  0  0
  -21.8837   -3.8172   23.4336 C   0  0  0  0  0  0
  -21.9195   -4.6988   22.3393 C   0  0  0  0  0  0
  -22.7751  -13.5270   21.1887 C   0  0  0  0  0  0
  -22.1673   -4.2173   21.0971 F   0  0  0  0  0  0
  -21.5635   -3.4541   25.7727 F   0  0  0  0  0  0
  -29.9128  -13.7627   20.4060 N   0  0  0  0  0  0
  -26.2846  -12.9519   20.3351 N   0  0  0  0  0  0
  -25.9311  -11.6649   20.5857 N   0  0  0  0  0  0
  -22.0356  -12.8261   22.0459 N   0  0  0  0  0  0
  -25.4160  -15.2000   20.4200 N   0  0  0  0  0  0
  -31.6387  -15.1628   20.1394 O   0  0  0  0  0  0
  -21.6667   -6.8874   21.4227 O   0  0  0  0  0  0
  -22.3472  -14.5564   20.6725 O   0  0  0  0  0  0
  -24.6354  -31.8456   23.1846 C   0  0  0  0  0  0
  -25.9204  -32.4699   23.8190 C   0  0  1  0  0  0
  -27.1745  -27.1383   20.1354 C   0  0  0  0  0  0
  -25.5917  -33.8466   24.2107 N   0  0  0  0  0  0
  -23.4354  -30.4723   21.5416 C   0  0  2  0  0  0
  -24.8622  -28.9068   20.1094 C   0  0  0  0  0  0
  -22.7546  -29.4580   22.4845 C   0  0  0  0  0  0
  -18.0309  -28.1501   22.8438 C   0  0  0  0  0  0
  -24.1571  -36.7301   23.2577 C   0  0  0  0  0  0
  -25.9795  -30.7327   21.3858 C   0  0  0  0  0  0
  -26.0410  -29.3425   20.7260 C   0  0  0  0  0  0
  -27.1911  -28.4716   20.7270 C   0  0  0  0  0  0
  -25.9786  -26.8115   19.4544 C   0  0  0  0  0  0
  -24.8503  -27.6708   19.4426 C   0  0  0  0  0  0
  -23.6400  -29.7990   20.1645 C   0  0  0  0  0  0
  -25.4203  -36.2982   24.0175 C   0  0  1  0  0  0
  -20.5912  -28.3773   23.1272 C   0  0  2  0  0  0
  -20.6837  -26.9489   22.5460 C   0  0  0  0  0  0
  -19.5844  -26.6431   21.5249 C   0  0  0  0  0  0
  -18.2008  -26.8043   22.1576 C   0  0  0  0  0  0
  -19.1545  -28.8891   23.2841 C   0  0  0  0  0  0
  -18.9463  -30.1509   23.8825 C   0  0  0  0  0  0
  -17.6461  -30.6603   24.0581 C   0  0  0  0  0  0
  -25.9072  -34.9386   23.4900 C   0  0  0  0  0  0
  -16.5336  -29.9133   23.6442 C   0  0  0  0  0  0
  -16.7283  -28.6624   23.0314 C   0  0  0  0  0  0
  -26.4578  -31.6535   25.0586 C   0  0  0  0  0  0
  -25.3720  -31.3709   26.1191 C   0  0  0  0  0  0
  -27.0389  -30.2876   24.6194 C   0  0  0  0  0  0
  -27.6114  -32.4226   25.7425 C   0  0  0  0  0  0
  -27.5600  -37.1770   24.8380 C   0  0  0  0  0  0
  -21.4203  -29.3095   22.3655 N   0  0  0  0  0  0
  -26.4349  -37.3691   23.9312 N   0  0  0  0  0  0
  -24.7046  -31.0329   22.0939 N   0  0  0  0  0  0
  -23.4228  -28.8076   23.2903 O   0  0  0  0  0  0
  -28.2371  -26.1537   20.1564 O   0  0  0  0  0  0
  -26.5663  -34.8875   22.4513 O   0  0  0  0  0  0
  -23.5482  -32.1250   23.7157 O   0  0  0  0  0  0
  -29.2828  -23.2999   18.8393 C   0  0  0  0  0  0
  -29.4790  -22.1095   18.0988 C   0  0  0  0  0  0
  -28.5073  -21.9122   20.6568 C   0  0  0  0  0  0
  -28.6224  -23.2846   20.0898 C   0  0  0  0  0  0
  -28.8285  -20.9191   18.5071 C   0  0  0  0  0  0
  -28.7457  -20.6408   19.9082 C   0  0  0  0  0  0
  -27.7615  -19.1921   16.8777 C   0  0  0  0  0  0
  -27.1732  -21.6824   16.6378 C   0  0  0  0  0  0
  -28.5968  -19.0564   20.4189 C   0  0  0  0  0  0
  -28.0007  -24.7042   20.6800 C   0  0  0  0  0  0
  -29.7859  -17.8150   20.3770 C   0  0  0  0  0  0
  -27.6286  -20.5380   17.5954 C   0  0  0  0  0  0
  -29.5877  -16.2196   20.5559 N   0  0  0  0  0  0
  -31.4807  -12.8870   19.2526 H   0  0  0  0  0  0
  -30.5151  -11.7390   20.0978 H   0  0  0  0  0  0
  -29.8876  -11.7623   17.6412 H   0  0  0  0  0  0
  -29.6140  -13.4839   17.7215 H   0  0  0  0  0  0
  -27.9755  -11.2896   19.0187 H   0  0  0  0  0  0
  -27.4158  -12.4639   17.8514 H   0  0  0  0  0  0
  -27.5881  -14.2619   19.4274 H   0  0  0  0  0  0
  -28.7805  -12.3287   21.4840 H   0  0  0  0  0  0
  -28.3582  -13.9999   21.7856 H   0  0  0  0  0  0
  -25.2751   -9.5751   22.4809 H   0  0  0  0  0  0
  -24.0030   -7.4671   22.7490 H   0  0  0  0  0  0
  -21.0873   -8.8822   19.8952 H   0  0  0  0  0  0
  -22.3711  -10.9733   19.6221 H   0  0  0  0  0  0
  -21.2001   -7.6163   23.9710 H   0  0  0  0  0  0
  -21.1462   -6.0533   25.9066 H   0  0  0  0  0  0
  -22.0601   -2.7623   23.2827 H   0  0  0  0  0  0
  -22.3992  -11.9910   22.4803 H   0  0  0  0  0  0
  -21.0931  -13.1278   22.2620 H   0  0  0  0  0  0
  -24.6586  -15.8662   20.5299 H   0  0  0  0  0  0
  -26.2478  -15.6130   20.0159 H   0  0  0  0  0  0
  -26.7176  -32.5520   23.0875 H   0  0  0  0  0  0
  -25.0083  -33.9614   25.0234 H   0  0  0  0  0  0
  -22.7320  -31.2916   21.3978 H   0  0  0  0  0  0
  -23.3771  -35.9684   23.3201 H   0  0  0  0  0  0
  -24.3540  -36.9011   22.1977 H   0  0  0  0  0  0
  -23.7486  -37.6488   23.6749 H   0  0  0  0  0  0
  -26.1055  -31.4888   20.6085 H   0  0  0  0  0  0
  -26.8614  -30.7773   22.0246 H   0  0  0  0  0  0
  -28.1137  -28.7906   21.1906 H   0  0  0  0  0  0
  -25.8901  -25.8626   18.9429 H   0  0  0  0  0  0
  -23.9567  -27.3975   18.9050 H   0  0  0  0  0  0
  -23.6973  -30.5533   19.3770 H   0  0  0  0  0  0
  -22.7651  -29.1943   19.9233 H   0  0  0  0  0  0
  -25.1492  -36.1667   25.0636 H   0  0  0  0  0  0
  -20.9869  -28.3419   24.1398 H   0  0  0  0  0  0
  -20.5945  -26.2305   23.3640 H   0  0  0  0  0  0
  -21.6732  -26.7766   22.1130 H   0  0  0  0  0  0
  -19.7122  -25.6364   21.1279 H   0  0  0  0  0  0
  -19.6896  -27.3196   20.6758 H   0  0  0  0  0  0
  -17.4347  -26.6674   21.3912 H   0  0  0  0  0  0
  -18.0444  -26.0254   22.9019 H   0  0  0  0  0  0
  -19.7875  -30.7427   24.2090 H   0  0  0  0  0  0
  -17.4995  -31.6295   24.5231 H   0  0  0  0  0  0
  -15.5348  -30.2994   23.7865 H   0  0  0  0  0  0
  -15.8656  -28.0974   22.7019 H   0  0  0  0  0  0
  -24.5991  -30.6937   25.7487 H   0  0  0  0  0  0
  -24.8816  -32.2880   26.4428 H   0  0  0  0  0  0
  -25.7892  -30.8983   27.0093 H   0  0  0  0  0  0
  -26.2988  -29.6538   24.1251 H   0  0  0  0  0  0
  -27.3900  -29.7186   25.4831 H   0  0  0  0  0  0
  -27.8957  -30.3899   23.9538 H   0  0  0  0  0  0
  -27.2722  -33.3562   26.1949 H   0  0  0  0  0  0
  -28.4095  -32.6653   25.0392 H   0  0  0  0  0  0
  -28.0664  -31.8356   26.5405 H   0  0  0  0  0  0
  -28.2557  -38.0135   24.7491 H   0  0  0  0  0  0
  -28.1175  -36.2609   24.6253 H   0  0  0  0  0  0
  -27.2188  -37.1476   25.8737 H   0  0  0  0  0  0
  -20.9360  -29.8452   21.6559 H   0  0  0  0  0  0
  -26.0144  -38.2699   24.1358 H   0  0  0  0  0  0
  -29.4902  -24.2263   18.3361 H   0  0  0  0  0  0
  -29.7843  -22.2309   17.0622 H   0  0  0  0  0  0
  -28.1236  -21.8076   21.6647 H   0  0  0  0  0  0
  -27.7215  -18.3876   17.5913 H   0  0  0  0  0  0
  -28.6536  -19.0942   16.2713 H   0  0  0  0  0  0
  -26.9091  -19.0624   16.2170 H   0  0  0  0  0  0
  -26.9429  -22.5948   17.2148 H   0  0  0  0  0  0
  -26.2939  -21.4273   16.0434 H   0  0  0  0  0  0
  -27.9181  -21.9668   15.8903 H   0  0  0  0  0  0
  -27.7007  -18.6931   19.9033 H   0  0  0  0  0  0
  -28.2627  -19.1512   21.4614 H   0  0  0  0  0  0
  -28.3100  -24.7467   21.7280 H   0  0  0  0  0  0
  -26.9251  -24.5203   20.7031 H   0  0  0  0  0  0
  -30.4688  -18.0623   21.2004 H   0  0  0  0  0  0
  -30.3754  -17.9465   19.4743 H   0  0  0  0  0  0
  -26.7750  -20.4430   18.2841 H   0  0  0  0  0  0
  -28.6556  -15.9605   20.8405 H   0  0  0  0  0  0
  1 25  1  0  0  0
  1 30  2  0  0  0
  1 83  1  0  0  0
  2  3  1  0  0  0
  2 25  1  0  0  0
  2 84  1  0  0  0
  2 85  1  0  0  0
  3  4  1  0  0  0
  3 86  1  0  0  0
  3 87  1  0  0  0
  4  5  1  0  0  0
  4 88  1  0  0  0
  4 89  1  0  0  0
  5  6  1  0  0  0
  5 26  1  0  0  0
  5 90  1  0  0  0
  6 25  1  0  0  0
  6 91  1  0  0  0
  6 92  1  0  0  0
  7  8  2  0  0  0
  7 26  1  0  0  0
  7 29  1  0  0  0
  8  9  1  0  0  0
  8 22  1  0  0  0
  9 10  1  0  0  0
  9 27  2  0  0  0
 10 11  2  0  0  0
 10 15  1  0  0  0
 11 12  1  0  0  0
 11 93  1  0  0  0
 12 13  2  0  0  0
 12 94  1  0  0  0
 13 14  1  0  0  0
 13 31  1  0  0  0
 14 15  2  0  0  0
 14 95  1  0  0  0
 15 96  1  0  0  0
 16 17  2  0  0  0
 16 21  1  0  0  0
 16 31  1  0  0  0
 17 18  1  0  0  0
 17 97  1  0  0  0
 18 19  2  0  0  0
 18 98  1  0  0  0
 19 20  1  0  0  0
 19 24  1  0  0  0
 20 21  2  0  0  0
 20 99  1  0  0  0
 21 23  1  0  0  0
 22 28  1  0  0  0
 22 32  2  0  0  0
 26 27  1  0  0  0
 28100  1  0  0  0
 28101  1  0  0  0
 29102  1  0  0  0
 29103  1  0  0  0
 33 34  1  0  0  0
 33 66  1  0  0  0
 33 70  2  0  0  0
 34 36  1  0  0  0
 34 59  1  0  0  0
 34104  1  0  0  0
 35 44  2  0  0  0
 35 45  1  0  0  0
 35 68  1  0  0  0
 36 56  1  0  0  0
 36105  1  0  0  0
 37 39  1  0  0  0
 37 47  1  0  0  0
 37 66  1  0  0  0
 37106  1  0  0  0
 38 43  2  0  0  0
 38 46  1  0  0  0
 38 47  1  0  0  0
 39 64  1  0  0  0
 39 67  2  0  0  0
 40 52  1  0  0  0
 40 53  2  0  0  0
 40 58  1  0  0  0
 41107  1  0  0  0
 41108  1  0  0  0
 41109  1  0  0  0
 41 48  1  0  0  0
 42 43  1  0  0  0
 42 66  1  0  0  0
 42110  1  0  0  0
 42111  1  0  0  0
 43 44  1  0  0  0
 44112  1  0  0  0
 45 46  2  0  0  0
 45113  1  0  0  0
 46114  1  0  0  0
 47115  1  0  0  0
 47116  1  0  0  0
 48 56  1  0  0  0
 48 65  1  0  0  0
 48117  1  0  0  0
 49 50  1  0  0  0
 49 53  1  0  0  0
 49 64  1  0  0  0
 49118  1  0  0  0
 50 51  1  0  0  0
 50119  1  0  0  0
 50120  1  0  0  0
 51 52  1  0  0  0
 51121  1  0  0  0
 51122  1  0  0  0
 52123  1  0  0  0
 52124  1  0  0  0
 53 54  1  0  0  0
 54 55  2  0  0  0
 54125  1  0  0  0
 55 57  1  0  0  0
 55126  1  0  0  0
 56 69  2  0  0  0
 57 58  2  0  0  0
 57127  1  0  0  0
 58128  1  0  0  0
 59 60  1  0  0  0
 59 61  1  0  0  0
 59 62  1  0  0  0
 60129  1  0  0  0
 60130  1  0  0  0
 60131  1  0  0  0
 61132  1  0  0  0
 61133  1  0  0  0
 61134  1  0  0  0
 62135  1  0  0  0
 62136  1  0  0  0
 62137  1  0  0  0
 63 65  1  0  0  0
 63138  1  0  0  0
 63139  1  0  0  0
 63140  1  0  0  0
 64141  1  0  0  0
 65142  1  0  0  0
 68 80  1  0  0  0
 71 72  2  0  0  0
 71 74  1  0  0  0
 71143  1  0  0  0
 72 75  1  0  0  0
 72144  1  0  0  0
 73 74  2  0  0  0
 73 76  1  0  0  0
 73145  1  0  0  0
 74 80  1  0  0  0
 75 76  2  0  0  0
 75 82  1  0  0  0
 76 79  1  0  0  0
 77146  1  0  0  0
 77147  1  0  0  0
 77148  1  0  0  0
 77 82  1  0  0  0
 78 82  1  0  0  0
 78149  1  0  0  0
 78150  1  0  0  0
 78151  1  0  0  0
 79 81  1  0  0  0
 79152  1  0  0  0
 79153  1  0  0  0
 80154  1  0  0  0
 80155  1  0  0  0
 81 83  1  0  0  0
 81156  1  0  0  0
 81157  1  0  0  0
 82158  1  0  0  0
 83159  1  0  0  0
M  ISO  4   1 100  68 101  80 101  83 100
M  END
> <chiral flag>
0

> <version>
0

> <s_m_source_file>
/data/baiqing/PycharmProjects/Reinvent-master-3.2/result/LINK_invent/BTK/process_docking_weight1_custom_sum_contain_oxygen_bond_distance_aromatic_linkinvent_7_9_3/rearranged_h_0105.sdf

> <i_m_source_file_index>
39

> <r_mmod_Potential_Energy-OPLS-2005>
778.490112304688

> <r_mmod_Stretch_Energy-OPLS-2005>
302.075836181641

> <r_mmod_Bend_Energy-OPLS-2005>
274.248382568359

> <r_mmod_Torsional_Energy-OPLS-2005>
389.190216064453

> <r_mmod_Improper_Torsional_Energy-OPLS-2005>
19.4874534606934

> <r_mmod_Van_der_Waal_Energy-OPLS-2005>
136.719131469727

> <r_mmod_Electrostatic_Energy-OPLS-2005>
-380.882629394531

> <r_mmod_Solvation_Energy-OPLS-2005>
-206.285385131836

> <b_mmod_Minimization_Converged-OPLS-2005>
0

> <r_mmod_RMS_Derivative-OPLS-2005>
16.66477394104

$$$$
39
                    3D
 Structure written by MMmdl.
165173  0  0  1  0            999 V2000
  -30.6665  -14.5783   20.5541 C   0  0  0  0  0  0
  -30.4241  -12.3682   19.4423 C   0  0  0  0  0  0
  -29.4956  -12.5036   18.2164 C   0  0  0  0  0  0
  -28.0182  -12.3563   18.6305 C   0  0  0  0  0  0
  -27.6519  -13.2178   19.8681 C   0  0  2  0  0  0
  -28.6940  -13.0499   20.9945 C   0  0  0  0  0  0
  -25.2536  -13.8187   20.5689 C   0  0  0  0  0  0
  -24.1799  -13.0441   20.9187 C   0  0  0  0  0  0
  -24.6370  -11.6915   20.8730 C   0  0  0  0  0  0
  -23.9042  -10.4292   21.0390 C   0  0  0  0  0  0
  -24.3596   -9.4214   21.9171 C   0  0  0  0  0  0
  -23.6281   -8.2241   22.0749 C   0  0  0  0  0  0
  -22.4266   -8.0271   21.3534 C   0  0  0  0  0  0
  -21.9899   -9.0237   20.4635 C   0  0  0  0  0  0
  -22.7214  -10.2126   20.3040 C   0  0  0  0  0  0
  -21.6853   -6.0719   22.5270 C   0  0  0  0  0  0
  -21.4006   -6.5621   23.8201 C   0  0  0  0  0  0
  -21.3666   -5.6784   24.9166 C   0  0  0  0  0  0
  -21.6052   -4.3046   24.7221 C   0  0  0  0  0  0
  -21.8817   -3.8132   23.4345 C   0  0  0  0  0  0
  -21.9192   -4.6947   22.3396 C   0  0  0  0  0  0
  -22.7824  -13.5228   21.1859 C   0  0  0  0  0  0
  -22.1662   -4.2124   21.0980 F   0  0  0  0  0  0
  -21.5649   -3.4538   25.7741 F   0  0  0  0  0  0
  -30.0132  -13.3805   20.4352 N   0  0  0  0  0  0
  -26.2964  -12.9368   20.3340 N   0  0  0  0  0  0
  -25.9296  -11.6517   20.5754 N   0  0  0  0  0  0
  -22.0487  -12.8199   22.0426 N   0  0  0  0  0  0
  -25.4246  -15.1898   20.4100 N   0  0  0  0  0  0
  -31.7878  -14.7537   20.0666 O   0  0  0  0  0  0
  -21.6640   -6.8861   21.4230 O   0  0  0  0  0  0
  -22.3499  -14.5541   20.6738 O   0  0  0  0  0  0
  -24.6208  -31.8617   23.2057 C   0  0  0  0  0  0
  -25.9070  -32.4801   23.8356 C   0  0  1  0  0  0
  -27.2330  -27.3518   20.1101 C   0  0  0  0  0  0
  -25.5903  -33.8590   24.2291 N   0  0  0  0  0  0
  -23.4128  -30.4856   21.5463 C   0  0  2  0  0  0
  -24.8603  -28.9398   20.1120 C   0  0  0  0  0  0
  -22.7433  -29.4646   22.4953 C   0  0  0  0  0  0
  -18.0269  -28.1386   22.8509 C   0  0  0  0  0  0
  -24.1474  -36.7292   23.2645 C   0  0  0  0  0  0
  -25.9469  -30.8029   21.3695 C   0  0  0  0  0  0
  -26.0229  -29.4295   20.7188 C   0  0  0  0  0  0
  -27.2060  -28.6410   20.7187 C   0  0  0  0  0  0
  -26.0409  -26.8951   19.5006 C   0  0  0  0  0  0
  -24.8684  -27.6767   19.4995 C   0  0  0  0  0  0
  -23.6251  -29.8145   20.1625 C   0  0  0  0  0  0
  -25.4105  -36.3094   24.0331 C   0  0  1  0  0  0
  -20.5863  -28.3703   23.1293 C   0  0  2  0  0  0
  -20.6776  -26.9438   22.5407 C   0  0  0  0  0  0
  -19.5740  -26.6391   21.5226 C   0  0  0  0  0  0
  -18.1919  -26.7936   22.1635 C   0  0  0  0  0  0
  -19.1521  -28.8861   23.2897 C   0  0  0  0  0  0
  -18.9457  -30.1457   23.8923 C   0  0  0  0  0  0
  -17.6467  -30.6616   24.0564 C   0  0  0  0  0  0
  -25.9037  -34.9463   23.5117 C   0  0  0  0  0  0
  -16.5350  -29.9116   23.6335 C   0  0  0  0  0  0
  -16.7261  -28.6506   23.0404 C   0  0  0  0  0  0
  -26.4485  -31.6603   25.0702 C   0  0  0  0  0  0
  -25.3730  -31.3693   26.1433 C   0  0  0  0  0  0
  -27.0371  -30.3053   24.6120 C   0  0  0  0  0  0
  -27.6023  -32.4369   25.7479 C   0  0  0  0  0  0
  -27.5578  -37.1786   24.8470 C   0  0  0  0  0  0
  -21.4152  -29.3061   22.3690 N   0  0  0  0  0  0
  -26.4284  -37.3787   23.9421 N   0  0  0  0  0  0
  -24.6788  -31.0659   22.0993 N   0  0  0  0  0  0
  -23.4173  -28.8197   23.3028 O   0  0  0  0  0  0
  -28.3926  -26.5735   20.1682 O   0  0  0  0  0  0
  -26.5611  -34.8924   22.4683 O   0  0  0  0  0  0
  -23.5387  -32.1402   23.7417 O   0  0  0  0  0  0
  -29.2678  -21.8165   21.2968 C   0  0  0  0  0  0
  -29.4911  -23.3002   20.8265 C   0  0  0  0  0  0
  -27.7303  -21.5201   19.3611 C   0  0  0  0  0  0
  -28.9049  -20.8403   20.1339 C   0  0  2  0  0  0
  -28.3162  -23.9039   19.9879 C   0  0  1  0  0  0
  -27.5731  -19.2242   21.6839 C   0  0  0  0  0  0
  -30.2618  -15.8892   22.5512 C   0  0  0  0  0  0
  -28.5672  -25.3550   19.3719 C   0  0  0  0  0  0
  -29.7329  -18.2629   20.7089 C   0  0  0  0  0  0
  -29.3311  -16.7476   20.4022 C   0  0  0  0  0  0
  -28.5658  -19.3187   20.5047 C   0  0  2  0  0  0
  -29.9930  -15.6181   21.1412 N   0  0  0  0  0  0
  -28.0234  -22.9130   18.9078 N   0  3  0  0  0  0
  -31.4664  -12.4807   19.1392 H   0  0  0  0  0  0
  -30.3461  -11.3683   19.8728 H   0  0  0  0  0  0
  -29.7462  -11.7491   17.4691 H   0  0  0  0  0  0
  -29.6490  -13.4723   17.7375 H   0  0  0  0  0  0
  -27.8418  -11.3030   18.8508 H   0  0  0  0  0  0
  -27.3637  -12.6026   17.7934 H   0  0  0  0  0  0
  -27.6792  -14.2579   19.5443 H   0  0  0  0  0  0
  -28.6924  -12.0238   21.3654 H   0  0  0  0  0  0
  -28.4386  -13.6763   21.8503 H   0  0  0  0  0  0
  -25.2734   -9.5699   22.4749 H   0  0  0  0  0  0
  -23.9987   -7.4637   22.7477 H   0  0  0  0  0  0
  -21.0824   -8.8740   19.8940 H   0  0  0  0  0  0
  -22.3652  -10.9655   19.6150 H   0  0  0  0  0  0
  -21.1986   -7.6128   23.9685 H   0  0  0  0  0  0
  -21.1497   -6.0520   25.9068 H   0  0  0  0  0  0
  -22.0593   -2.7591   23.2852 H   0  0  0  0  0  0
  -22.4119  -11.9851   22.4777 H   0  0  0  0  0  0
  -21.1101  -13.1201   22.2655 H   0  0  0  0  0  0
  -24.6642  -15.8498   20.5301 H   0  0  0  0  0  0
  -26.2829  -15.6255   20.0984 H   0  0  0  0  0  0
  -26.7140  -32.5489   23.1107 H   0  0  0  0  0  0
  -25.0055  -33.9703   25.0445 H   0  0  0  0  0  0
  -22.7045  -31.3048   21.4039 H   0  0  0  0  0  0
  -23.3748  -35.9614   23.3300 H   0  0  0  0  0  0
  -24.3572  -36.8942   22.2068 H   0  0  0  0  0  0
  -23.7208  -37.6477   23.6681 H   0  0  0  0  0  0
  -26.0614  -31.5635   20.5973 H   0  0  0  0  0  0
  -26.8325  -30.8611   21.9898 H   0  0  0  0  0  0
  -28.0979  -29.0100   21.2071 H   0  0  0  0  0  0
  -25.9779  -25.9196   19.0447 H   0  0  0  0  0  0
  -23.9718  -27.2911   19.0321 H   0  0  0  0  0  0
  -23.7338  -30.5862   19.3993 H   0  0  0  0  0  0
  -22.7472  -29.2349   19.8711 H   0  0  0  0  0  0
  -25.1286  -36.1956   25.0825 H   0  0  0  0  0  0
  -20.9947  -28.3310   24.1416 H   0  0  0  0  0  0
  -20.5748  -26.2318   23.3605 H   0  0  0  0  0  0
  -21.6640  -26.7527   22.1163 H   0  0  0  0  0  0
  -19.6915  -25.6299   21.1273 H   0  0  0  0  0  0
  -19.6683  -27.3183   20.6744 H   0  0  0  0  0  0
  -17.4203  -26.6709   21.4027 H   0  0  0  0  0  0
  -18.0305  -26.0053   22.9001 H   0  0  0  0  0  0
  -19.7944  -30.7246   24.2326 H   0  0  0  0  0  0
  -17.5041  -31.6306   24.5151 H   0  0  0  0  0  0
  -15.5353  -30.3053   23.7636 H   0  0  0  0  0  0
  -15.8644  -28.0815   22.7174 H   0  0  0  0  0  0
  -24.5884  -30.7090   25.7736 H   0  0  0  0  0  0
  -24.8927  -32.2840   26.4906 H   0  0  0  0  0  0
  -25.8044  -30.8814   27.0180 H   0  0  0  0  0  0
  -26.2944  -29.6743   24.1226 H   0  0  0  0  0  0
  -27.4224  -29.7358   25.4590 H   0  0  0  0  0  0
  -27.8729  -30.4398   23.9248 H   0  0  0  0  0  0
  -27.2617  -33.3678   26.2023 H   0  0  0  0  0  0
  -28.3829  -32.6936   25.0306 H   0  0  0  0  0  0
  -28.0696  -31.8532   26.5421 H   0  0  0  0  0  0
  -28.2569  -38.0114   24.7588 H   0  0  0  0  0  0
  -28.1104  -36.2641   24.6237 H   0  0  0  0  0  0
  -27.2282  -37.1378   25.8867 H   0  0  0  0  0  0
  -20.9337  -29.8770   21.6880 H   0  0  0  0  0  0
  -26.0172  -38.2859   24.1464 H   0  0  0  0  0  0
  -28.4723  -21.8132   22.0420 H   0  0  0  0  0  0
  -30.1607  -21.4573   21.8104 H   0  0  0  0  0  0
  -30.4083  -23.3359   20.2348 H   0  0  0  0  0  0
  -29.6771  -23.9350   21.6940 H   0  0  0  0  0  0
  -26.8324  -21.5457   19.9799 H   0  0  0  0  0  0
  -27.4749  -20.9276   18.4821 H   0  0  0  0  0  0
  -29.7567  -20.8113   19.4529 H   0  0  0  0  0  0
  -27.4244  -23.9649   20.6128 H   0  0  0  0  0  0
  -26.6876  -19.8394   21.5253 H   0  0  0  0  0  0
  -28.0343  -19.5413   22.6200 H   0  0  0  0  0  0
  -27.2196  -18.2038   21.8327 H   0  0  0  0  0  0
  -29.4706  -16.4973   22.9928 H   0  0  0  0  0  0
  -31.2076  -16.4230   22.6533 H   0  0  0  0  0  0
  -30.3279  -14.9686   23.1336 H   0  0  0  0  0  0
  -28.0019  -25.4654   18.4470 H   0  0  0  0  0  0
  -29.6006  -25.3824   19.0270 H   0  0  0  0  0  0
  -30.5688  -18.5206   20.0569 H   0  0  0  0  0  0
  -30.1278  -18.3808   21.7175 H   0  0  0  0  0  0
  -29.4288  -16.5755   19.3286 H   0  0  0  0  0  0
  -28.2668  -16.6239   20.5972 H   0  0  0  0  0  0
  -28.0345  -18.9411   19.6290 H   0  0  0  0  0  0
  -27.2248  -23.2289   18.3774 H   0  0  0  0  0  0
  -28.7983  -22.8731   18.2622 H   0  0  0  0  0  0
  1 25  1  0  0  0
  1 30  2  0  0  0
  1 82  1  0  0  0
  2  3  1  0  0  0
  2 25  1  0  0  0
  2 84  1  0  0  0
  2 85  1  0  0  0
  3  4  1  0  0  0
  3 86  1  0  0  0
  3 87  1  0  0  0
  4  5  1  0  0  0
  4 88  1  0  0  0
  4 89  1  0  0  0
  5  6  1  0  0  0
  5 26  1  0  0  0
  5 90  1  0  0  0
  6 25  1  0  0  0
  6 91  1  0  0  0
  6 92  1  0  0  0
  7  8  2  0  0  0
  7 26  1  0  0  0
  7 29  1  0  0  0
  8  9  1  0  0  0
  8 22  1  0  0  0
  9 10  1  0  0  0
  9 27  2  0  0  0
 10 11  2  0  0  0
 10 15  1  0  0  0
 11 12  1  0  0  0
 11 93  1  0  0  0
 12 13  2  0  0  0
 12 94  1  0  0  0
 13 14  1  0  0  0
 13 31  1  0  0  0
 14 15  2  0  0  0
 14 95  1  0  0  0
 15 96  1  0  0  0
 16 17  2  0  0  0
 16 21  1  0  0  0
 16 31  1  0  0  0
 17 18  1  0  0  0
 17 97  1  0  0  0
 18 19  2  0  0  0
 18 98  1  0  0  0
 19 20  1  0  0  0
 19 24  1  0  0  0
 20 21  2  0  0  0
 20 99  1  0  0  0
 21 23  1  0  0  0
 22 28  1  0  0  0
 22 32  2  0  0  0
 26 27  1  0  0  0
 28100  1  0  0  0
 28101  1  0  0  0
 29102  1  0  0  0
 29103  1  0  0  0
 33 34  1  0  0  0
 33 66  1  0  0  0
 33 70  2  0  0  0
 34 36  1  0  0  0
 34 59  1  0  0  0
 34104  1  0  0  0
 35 44  2  0  0  0
 35 45  1  0  0  0
 35 68  1  0  0  0
 36 56  1  0  0  0
 36105  1  0  0  0
 37 39  1  0  0  0
 37 47  1  0  0  0
 37 66  1  0  0  0
 37106  1  0  0  0
 38 43  2  0  0  0
 38 46  1  0  0  0
 38 47  1  0  0  0
 39 64  1  0  0  0
 39 67  2  0  0  0
 40 52  1  0  0  0
 40 53  2  0  0  0
 40 58  1  0  0  0
 41107  1  0  0  0
 41108  1  0  0  0
 41109  1  0  0  0
 41 48  1  0  0  0
 42 43  1  0  0  0
 42 66  1  0  0  0
 42110  1  0  0  0
 42111  1  0  0  0
 43 44  1  0  0  0
 44112  1  0  0  0
 45 46  2  0  0  0
 45113  1  0  0  0
 46114  1  0  0  0
 47115  1  0  0  0
 47116  1  0  0  0
 48 56  1  0  0  0
 48 65  1  0  0  0
 48117  1  0  0  0
 49 50  1  0  0  0
 49 53  1  0  0  0
 49 64  1  0  0  0
 49118  1  0  0  0
 50 51  1  0  0  0
 50119  1  0  0  0
 50120  1  0  0  0
 51 52  1  0  0  0
 51121  1  0  0  0
 51122  1  0  0  0
 52123  1  0  0  0
 52124  1  0  0  0
 53 54  1  0  0  0
 54 55  2  0  0  0
 54125  1  0  0  0
 55 57  1  0  0  0
 55126  1  0  0  0
 56 69  2  0  0  0
 57 58  2  0  0  0
 57127  1  0  0  0
 58128  1  0  0  0
 59 60  1  0  0  0
 59 61  1  0  0  0
 59 62  1  0  0  0
 60129  1  0  0  0
 60130  1  0  0  0
 60131  1  0  0  0
 61132  1  0  0  0
 61133  1  0  0  0
 61134  1  0  0  0
 62135  1  0  0  0
 62136  1  0  0  0
 62137  1  0  0  0
 63 65  1  0  0  0
 63138  1  0  0  0
 63139  1  0  0  0
 63140  1  0  0  0
 64141  1  0  0  0
 65142  1  0  0  0
 68 78  1  0  0  0
 71 72  1  0  0  0
 71143  1  0  0  0
 71144  1  0  0  0
 71 74  1  0  0  0
 72 75  1  0  0  0
 72145  1  0  0  0
 72146  1  0  0  0
 73 74  1  0  0  0
 73 83  1  0  0  0
 73147  1  0  0  0
 73148  1  0  0  0
 74 81  1  0  0  0
 74149  1  0  0  0
 75 78  1  0  0  0
 75 83  1  0  0  0
 75150  1  0  0  0
 76151  1  0  0  0
 76152  1  0  0  0
 76153  1  0  0  0
 76 81  1  0  0  0
 77 82  1  0  0  0
 77154  1  0  0  0
 77155  1  0  0  0
 77156  1  0  0  0
 78157  1  0  0  0
 78158  1  0  0  0
 79 80  1  0  0  0
 79 81  1  0  0  0
 79159  1  0  0  0
 79160  1  0  0  0
 80 82  1  0  0  0
 80161  1  0  0  0
 80162  1  0  0  0
 81163  1  0  0  0
 83164  1  0  0  0
 83165  1  0  0  0
M  CHG  1  83   1
M  ISO  4   1 100  68 101  78 101  82 100
M  END
> <chiral flag>
0

> <version>
0

> <s_m_source_file>
/data/baiqing/PycharmProjects/Reinvent-master-3.2/result/LINK_invent/BTK/process_docking_weight1_custom_sum_contain_oxygen_bond_distance_aromatic_linkinvent_7_9_3/rearranged_h_0105.sdf

> <i_m_source_file_index>
40

> <r_mmod_Potential_Energy-OPLS-2005>
148.600234985352

> <r_mmod_Stretch_Energy-OPLS-2005>
73.8900527954102

> <r_mmod_Bend_Energy-OPLS-2005>
149.385162353516

> <r_mmod_Torsional_Energy-OPLS-2005>
347.320556640625

> <r_mmod_Improper_Torsional_Energy-OPLS-2005>
3.40462327003479

> <r_mmod_Van_der_Waal_Energy-OPLS-2005>
125.206703186035

> <r_mmod_Electrostatic_Energy-OPLS-2005>
-147.644485473633

> <r_mmod_Solvation_Energy-OPLS-2005>
-433.984741210938

> <b_mmod_Minimization_Converged-OPLS-2005>
0

> <r_mmod_RMS_Derivative-OPLS-2005>
2.04450225830078

$$$$
40
                    3D
 Structure written by MMmdl.
161169  0  0  1  0            999 V2000
  -30.5951  -14.9737   20.4013 C   0  0  0  0  0  0
  -30.4344  -12.6165   19.4725 C   0  0  0  0  0  0
  -29.5108  -12.4987   18.2419 C   0  0  0  0  0  0
  -28.0541  -12.2806   18.6863 C   0  0  0  0  0  0
  -27.6212  -13.2480   19.8209 C   0  0  2  0  0  0
  -28.6759  -13.3470   20.9433 C   0  0  0  0  0  0
  -25.2432  -13.8166   20.5757 C   0  0  0  0  0  0
  -24.1757  -13.0386   20.9243 C   0  0  0  0  0  0
  -24.6398  -11.6887   20.8771 C   0  0  0  0  0  0
  -23.9084  -10.4250   21.0396 C   0  0  0  0  0  0
  -24.3626   -9.4166   21.9170 C   0  0  0  0  0  0
  -23.6281   -8.2219   22.0751 C   0  0  0  0  0  0
  -22.4258   -8.0277   21.3558 C   0  0  0  0  0  0
  -21.9900   -9.0244   20.4647 C   0  0  0  0  0  0
  -22.7249  -10.2111   20.3049 C   0  0  0  0  0  0
  -21.6841   -6.0725   22.5288 C   0  0  0  0  0  0
  -21.4006   -6.5628   23.8224 C   0  0  0  0  0  0
  -21.3648   -5.6786   24.9184 C   0  0  0  0  0  0
  -21.6043   -4.3055   24.7230 C   0  0  0  0  0  0
  -21.8813   -3.8137   23.4352 C   0  0  0  0  0  0
  -21.9177   -4.6951   22.3405 C   0  0  0  0  0  0
  -22.7778  -13.5174   21.1860 C   0  0  0  0  0  0
  -22.1646   -4.2136   21.0986 F   0  0  0  0  0  0
  -21.5623   -3.4544   25.7741 F   0  0  0  0  0  0
  -29.9299  -13.7522   20.2976 N   0  0  0  0  0  0
  -26.2874  -12.9428   20.3256 N   0  0  0  0  0  0
  -25.9342  -11.6562   20.5784 N   0  0  0  0  0  0
  -22.0407  -12.8212   22.0425 N   0  0  0  0  0  0
  -25.4036  -15.1892   20.4267 N   0  0  0  0  0  0
  -31.8271  -14.9060   20.3157 O   0  0  0  0  0  0
  -21.6624   -6.8877   21.4256 O   0  0  0  0  0  0
  -22.3487  -14.5477   20.6676 O   0  0  0  0  0  0
  -24.6424  -31.8442   23.1857 C   0  0  0  0  0  0
  -25.9188  -32.4705   23.8263 C   0  0  1  0  0  0
  -27.2189  -27.1327   20.1556 C   0  0  0  0  0  0
  -25.5924  -33.8513   24.2187 N   0  0  0  0  0  0
  -23.4476  -30.4587   21.5329 C   0  0  2  0  0  0
  -24.8964  -28.8777   20.1188 C   0  0  0  0  0  0
  -22.7568  -29.4532   22.4880 C   0  0  0  0  0  0
  -18.0298  -28.1400   22.8477 C   0  0  0  0  0  0
  -24.1488  -36.7259   23.2646 C   0  0  0  0  0  0
  -26.0021  -30.7186   21.3805 C   0  0  0  0  0  0
  -26.0760  -29.3255   20.7276 C   0  0  0  0  0  0
  -27.2414  -28.4721   20.7192 C   0  0  0  0  0  0
  -26.0088  -26.7724   19.5277 C   0  0  0  0  0  0
  -24.8739  -27.6133   19.5060 C   0  0  0  0  0  0
  -23.6743  -29.7821   20.1551 C   0  0  0  0  0  0
  -25.4118  -36.3042   24.0323 C   0  0  1  0  0  0
  -20.5909  -28.3713   23.1251 C   0  0  2  0  0  0
  -20.6783  -26.9419   22.5414 C   0  0  0  0  0  0
  -19.5757  -26.6383   21.5216 C   0  0  0  0  0  0
  -18.1936  -26.7937   22.1626 C   0  0  0  0  0  0
  -19.1557  -28.8870   23.2853 C   0  0  0  0  0  0
  -18.9472  -30.1468   23.8890 C   0  0  0  0  0  0
  -17.6473  -30.6595   24.0549 C   0  0  0  0  0  0
  -25.9063  -34.9416   23.5066 C   0  0  0  0  0  0
  -16.5362  -29.9092   23.6333 C   0  0  0  0  0  0
  -16.7283  -28.6502   23.0359 C   0  0  0  0  0  0
  -26.4507  -31.6580   25.0714 C   0  0  0  0  0  0
  -25.3685  -31.3778   26.1409 C   0  0  0  0  0  0
  -27.0364  -30.2979   24.6282 C   0  0  0  0  0  0
  -27.6050  -32.4339   25.7493 C   0  0  0  0  0  0
  -27.5573  -37.1786   24.8472 C   0  0  0  0  0  0
  -21.4257  -29.3037   22.3631 N   0  0  0  0  0  0
  -26.4287  -37.3746   23.9412 N   0  0  0  0  0  0
  -24.7182  -31.0278   22.0886 N   0  0  0  0  0  0
  -23.4209  -28.8096   23.3037 O   0  0  0  0  0  0
  -28.2964  -26.1806   20.1255 O   0  0  0  0  0  0
  -26.5661  -34.8909   22.4652 O   0  0  0  0  0  0
  -23.5546  -32.1325   23.7057 O   0  0  0  0  0  0
  -28.1118  -17.3927   19.0793 C   0  0  0  0  0  0
  -30.2162  -16.3642   18.4317 C   0  0  0  0  0  0
  -28.8209  -16.7061   17.9043 C   0  0  2  0  0  0
  -29.1472  -17.4606   20.2194 C   0  0  2  0  0  0
  -28.8398  -17.5366   16.6162 C   0  0  0  0  0  0
  -29.7169  -19.0688   20.2880 C   0  0  0  0  0  0
  -29.0969  -21.8285   20.6047 C   0  0  0  0  0  0
  -28.1865  -24.7172   20.6490 C   0  0  0  0  0  0
  -28.4863  -23.2413   19.8754 C   0  0  1  0  0  0
  -30.0161  -16.1760   19.8665 N   0  0  0  0  0  0
  -29.3706  -23.5685   18.7667 N   0  0  0  0  0  0
  -28.7768  -20.3508   20.1205 N   0  3  0  0  0  0
  -31.4608  -12.7756   19.1382 H   0  0  0  0  0  0
  -30.4415  -11.6905   20.0480 H   0  0  0  0  0  0
  -29.8379  -11.6787   17.5990 H   0  0  0  0  0  0
  -29.5797  -13.4007   17.6347 H   0  0  0  0  0  0
  -27.9774  -11.2519   19.0410 H   0  0  0  0  0  0
  -27.3773  -12.3567   17.8331 H   0  0  0  0  0  0
  -27.5607  -14.2308   19.3566 H   0  0  0  0  0  0
  -28.7874  -12.4005   21.4736 H   0  0  0  0  0  0
  -28.3797  -14.0971   21.6797 H   0  0  0  0  0  0
  -25.2776   -9.5630   22.4743 H   0  0  0  0  0  0
  -23.9963   -7.4611   22.7490 H   0  0  0  0  0  0
  -21.0811   -8.8785   19.8980 H   0  0  0  0  0  0
  -22.3711  -10.9650   19.6156 H   0  0  0  0  0  0
  -21.2032   -7.6141   23.9735 H   0  0  0  0  0  0
  -21.1463   -6.0512   25.9093 H   0  0  0  0  0  0
  -22.0605   -2.7599   23.2868 H   0  0  0  0  0  0
  -22.4015  -11.9910   22.4903 H   0  0  0  0  0  0
  -21.1018  -13.1281   22.2546 H   0  0  0  0  0  0
  -24.6358  -15.8388   20.5639 H   0  0  0  0  0  0
  -26.2637  -15.6397   20.1446 H   0  0  0  0  0  0
  -26.7255  -32.5320   23.0996 H   0  0  0  0  0  0
  -25.0006  -33.9626   25.0290 H   0  0  0  0  0  0
  -22.7489  -31.2825   21.3748 H   0  0  0  0  0  0
  -23.3755  -35.9585   23.3310 H   0  0  0  0  0  0
  -24.3575  -36.8889   22.2060 H   0  0  0  0  0  0
  -23.7241  -37.6458   23.6677 H   0  0  0  0  0  0
  -26.1493  -31.4704   20.6041 H   0  0  0  0  0  0
  -26.8755  -30.7775   22.0187 H   0  0  0  0  0  0
  -28.1518  -28.8164   21.1892 H   0  0  0  0  0  0
  -25.9332  -25.8019   19.0574 H   0  0  0  0  0  0
  -23.9696  -27.2640   19.0273 H   0  0  0  0  0  0
  -23.8132  -30.5545   19.3978 H   0  0  0  0  0  0
  -22.7893  -29.2240   19.8451 H   0  0  0  0  0  0
  -25.1299  -36.1875   25.0815 H   0  0  0  0  0  0
  -20.9981  -28.3292   24.1376 H   0  0  0  0  0  0
  -20.5671  -26.2316   23.3620 H   0  0  0  0  0  0
  -21.6643  -26.7420   22.1205 H   0  0  0  0  0  0
  -19.6909  -25.6286   21.1258 H   0  0  0  0  0  0
  -19.6698  -27.3179   20.6732 H   0  0  0  0  0  0
  -17.4198  -26.6669   21.4040 H   0  0  0  0  0  0
  -18.0336  -26.0094   22.9034 H   0  0  0  0  0  0
  -19.7945  -30.7277   24.2270 H   0  0  0  0  0  0
  -17.5024  -31.6278   24.5141 H   0  0  0  0  0  0
  -15.5365  -30.2986   23.7665 H   0  0  0  0  0  0
  -15.8679  -28.0815   22.7099 H   0  0  0  0  0  0
  -24.5865  -30.7121   25.7736 H   0  0  0  0  0  0
  -24.8861  -32.2958   26.4774 H   0  0  0  0  0  0
  -25.7953  -30.9001   27.0231 H   0  0  0  0  0  0
  -26.2974  -29.6718   24.1265 H   0  0  0  0  0  0
  -27.3960  -29.7269   25.4851 H   0  0  0  0  0  0
  -27.8885  -30.4235   23.9601 H   0  0  0  0  0  0
  -27.2660  -33.3658   26.2019 H   0  0  0  0  0  0
  -28.3875  -32.6864   25.0330 H   0  0  0  0  0  0
  -28.0688  -31.8499   26.5448 H   0  0  0  0  0  0
  -28.2595  -38.0076   24.7487 H   0  0  0  0  0  0
  -28.1062  -36.2602   24.6328 H   0  0  0  0  0  0
  -27.2290  -37.1463   25.8878 H   0  0  0  0  0  0
  -20.9478  -29.8756   21.6814 H   0  0  0  0  0  0
  -26.0163  -38.2822   24.1401 H   0  0  0  0  0  0
  -27.2630  -16.7885   19.3896 H   0  0  0  0  0  0
  -27.6928  -18.3580   18.8014 H   0  0  0  0  0  0
  -30.9270  -17.1776   18.2750 H   0  0  0  0  0  0
  -30.6279  -15.4911   17.9206 H   0  0  0  0  0  0
  -28.2979  -15.7717   17.6917 H   0  0  0  0  0  0
  -28.6401  -17.2592   21.1634 H   0  0  0  0  0  0
  -29.3177  -18.5031   16.7708 H   0  0  0  0  0  0
  -27.8247  -17.7228   16.2642 H   0  0  0  0  0  0
  -29.3784  -17.0147   15.8246 H   0  0  0  0  0  0
  -30.4951  -19.1791   19.5341 H   0  0  0  0  0  0
  -30.2372  -19.1843   21.2382 H   0  0  0  0  0  0
  -28.7854  -21.8538   21.6496 H   0  0  0  0  0  0
  -30.1818  -21.9214   20.6487 H   0  0  0  0  0  0
  -28.8725  -24.7203   21.4972 H   0  0  0  0  0  0
  -27.2045  -24.6250   21.1146 H   0  0  0  0  0  0
  -27.5346  -22.9644   19.4196 H   0  0  0  0  0  0
  -30.2189  -23.9730   19.1517 H   0  0  0  0  0  0
  -28.9574  -24.3523   18.2675 H   0  0  0  0  0  0
  -27.8972  -20.1240   20.5541 H   0  0  0  0  0  0
  -28.5913  -20.4344   19.1340 H   0  0  0  0  0  0
  1 25  1  0  0  0
  1 30  2  0  0  0
  1 80  1  0  0  0
  2  3  1  0  0  0
  2 25  1  0  0  0
  2 83  1  0  0  0
  2 84  1  0  0  0
  3  4  1  0  0  0
  3 85  1  0  0  0
  3 86  1  0  0  0
  4  5  1  0  0  0
  4 87  1  0  0  0
  4 88  1  0  0  0
  5  6  1  0  0  0
  5 26  1  0  0  0
  5 89  1  0  0  0
  6 25  1  0  0  0
  6 90  1  0  0  0
  6 91  1  0  0  0
  7  8  2  0  0  0
  7 26  1  0  0  0
  7 29  1  0  0  0
  8  9  1  0  0  0
  8 22  1  0  0  0
  9 10  1  0  0  0
  9 27  2  0  0  0
 10 11  2  0  0  0
 10 15  1  0  0  0
 11 12  1  0  0  0
 11 92  1  0  0  0
 12 13  2  0  0  0
 12 93  1  0  0  0
 13 14  1  0  0  0
 13 31  1  0  0  0
 14 15  2  0  0  0
 14 94  1  0  0  0
 15 95  1  0  0  0
 16 17  2  0  0  0
 16 21  1  0  0  0
 16 31  1  0  0  0
 17 18  1  0  0  0
 17 96  1  0  0  0
 18 19  2  0  0  0
 18 97  1  0  0  0
 19 20  1  0  0  0
 19 24  1  0  0  0
 20 21  2  0  0  0
 20 98  1  0  0  0
 21 23  1  0  0  0
 22 28  1  0  0  0
 22 32  2  0  0  0
 26 27  1  0  0  0
 28 99  1  0  0  0
 28100  1  0  0  0
 29101  1  0  0  0
 29102  1  0  0  0
 33 34  1  0  0  0
 33 66  1  0  0  0
 33 70  2  0  0  0
 34 36  1  0  0  0
 34 59  1  0  0  0
 34103  1  0  0  0
 35 44  2  0  0  0
 35 45  1  0  0  0
 35 68  1  0  0  0
 36 56  1  0  0  0
 36104  1  0  0  0
 37 39  1  0  0  0
 37 47  1  0  0  0
 37 66  1  0  0  0
 37105  1  0  0  0
 38 43  2  0  0  0
 38 46  1  0  0  0
 38 47  1  0  0  0
 39 64  1  0  0  0
 39 67  2  0  0  0
 40 52  1  0  0  0
 40 53  2  0  0  0
 40 58  1  0  0  0
 41106  1  0  0  0
 41107  1  0  0  0
 41108  1  0  0  0
 41 48  1  0  0  0
 42 43  1  0  0  0
 42 66  1  0  0  0
 42109  1  0  0  0
 42110  1  0  0  0
 43 44  1  0  0  0
 44111  1  0  0  0
 45 46  2  0  0  0
 45112  1  0  0  0
 46113  1  0  0  0
 47114  1  0  0  0
 47115  1  0  0  0
 48 56  1  0  0  0
 48 65  1  0  0  0
 48116  1  0  0  0
 49 50  1  0  0  0
 49 53  1  0  0  0
 49 64  1  0  0  0
 49117  1  0  0  0
 50 51  1  0  0  0
 50118  1  0  0  0
 50119  1  0  0  0
 51 52  1  0  0  0
 51120  1  0  0  0
 51121  1  0  0  0
 52122  1  0  0  0
 52123  1  0  0  0
 53 54  1  0  0  0
 54 55  2  0  0  0
 54124  1  0  0  0
 55 57  1  0  0  0
 55125  1  0  0  0
 56 69  2  0  0  0
 57 58  2  0  0  0
 57126  1  0  0  0
 58127  1  0  0  0
 59 60  1  0  0  0
 59 61  1  0  0  0
 59 62  1  0  0  0
 60128  1  0  0  0
 60129  1  0  0  0
 60130  1  0  0  0
 61131  1  0  0  0
 61132  1  0  0  0
 61133  1  0  0  0
 62134  1  0  0  0
 62135  1  0  0  0
 62136  1  0  0  0
 63 65  1  0  0  0
 63137  1  0  0  0
 63138  1  0  0  0
 63139  1  0  0  0
 64140  1  0  0  0
 65141  1  0  0  0
 68 78  1  0  0  0
 71 73  1  0  0  0
 71 74  1  0  0  0
 71142  1  0  0  0
 71143  1  0  0  0
 72 73  1  0  0  0
 72 80  1  0  0  0
 72144  1  0  0  0
 72145  1  0  0  0
 73 75  1  0  0  0
 73146  1  0  0  0
 74 76  1  0  0  0
 74 80  1  0  0  0
 74147  1  0  0  0
 75148  1  0  0  0
 75149  1  0  0  0
 75150  1  0  0  0
 76 82  1  0  0  0
 76151  1  0  0  0
 76152  1  0  0  0
 77 79  1  0  0  0
 77 82  1  0  0  0
 77153  1  0  0  0
 77154  1  0  0  0
 78 79  1  0  0  0
 78155  1  0  0  0
 78156  1  0  0  0
 79 81  1  0  0  0
 79157  1  0  0  0
 81158  1  0  0  0
 81159  1  0  0  0
 82160  1  0  0  0
 82161  1  0  0  0
M  CHG  1  82   1
M  ISO  4   1 100  68 101  78 101  80 100
M  END
> <chiral flag>
0

> <version>
0

> <s_m_source_file>
/data/baiqing/PycharmProjects/Reinvent-master-3.2/result/LINK_invent/BTK/process_docking_weight1_custom_sum_contain_oxygen_bond_distance_aromatic_linkinvent_7_9_3/rearranged_h_0105.sdf

> <i_m_source_file_index>
41

> <r_mmod_Potential_Energy-OPLS-2005>
708.902709960938

> <r_mmod_Stretch_Energy-OPLS-2005>
286.012878417969

> <r_mmod_Bend_Energy-OPLS-2005>
350.250244140625

> <r_mmod_Torsional_Energy-OPLS-2005>
433.620361328125

> <r_mmod_Improper_Torsional_Energy-OPLS-2005>
30.1739120483398

> <r_mmod_Van_der_Waal_Energy-OPLS-2005>
99.6070098876953

> <r_mmod_Electrostatic_Energy-OPLS-2005>
-231.164703369141

> <r_mmod_Solvation_Energy-OPLS-2005>
-465.468719482422

> <b_mmod_Minimization_Converged-OPLS-2005>
0

> <r_mmod_RMS_Derivative-OPLS-2005>
2.87265849113464

$$$$
41
                    3D
 Structure written by MMmdl.
178186  0  0  1  0            999 V2000
  -30.6087  -14.7632   20.4561 C   0  0  0  0  0  0
  -30.4311  -12.4754   19.4641 C   0  0  0  0  0  0
  -29.5073  -12.5031   18.2264 C   0  0  0  0  0  0
  -28.0333  -12.3268   18.6416 C   0  0  0  0  0  0
  -27.6344  -13.2314   19.8386 C   0  0  2  0  0  0
  -28.6796  -13.1869   20.9714 C   0  0  0  0  0  0
  -25.2479  -13.8207   20.5688 C   0  0  0  0  0  0
  -24.1782  -13.0448   20.9222 C   0  0  0  0  0  0
  -24.6370  -11.6920   20.8729 C   0  0  0  0  0  0
  -23.9047  -10.4296   21.0402 C   0  0  0  0  0  0
  -24.3590   -9.4218   21.9195 C   0  0  0  0  0  0
  -23.6279   -8.2251   22.0763 C   0  0  0  0  0  0
  -22.4277   -8.0267   21.3531 C   0  0  0  0  0  0
  -21.9893   -9.0256   20.4655 C   0  0  0  0  0  0
  -22.7210  -10.2147   20.3058 C   0  0  0  0  0  0
  -21.6852   -6.0732   22.5267 C   0  0  0  0  0  0
  -21.4025   -6.5631   23.8210 C   0  0  0  0  0  0
  -21.3657   -5.6782   24.9160 C   0  0  0  0  0  0
  -21.6041   -4.3040   24.7225 C   0  0  0  0  0  0
  -21.8818   -3.8143   23.4334 C   0  0  0  0  0  0
  -21.9198   -4.6957   22.3392 C   0  0  0  0  0  0
  -22.7806  -13.5250   21.1842 C   0  0  0  0  0  0
  -22.1671   -4.2142   21.0969 F   0  0  0  0  0  0
  -21.5627   -3.4528   25.7739 F   0  0  0  0  0  0
  -29.9747  -13.5440   20.3793 N   0  0  0  0  0  0
  -26.2883  -12.9398   20.3220 N   0  0  0  0  0  0
  -25.9286  -11.6543   20.5701 N   0  0  0  0  0  0
  -22.0382  -12.8300   22.0385 N   0  0  0  0  0  0
  -25.4163  -15.1944   20.4118 N   0  0  0  0  0  0
  -31.8101  -14.8465   20.1951 O   0  0  0  0  0  0
  -21.6633   -6.8865   21.4236 O   0  0  0  0  0  0
  -22.3513  -14.5556   20.6652 O   0  0  0  0  0  0
  -24.6317  -31.8541   23.1983 C   0  0  0  0  0  0
  -25.9143  -32.4743   23.8321 C   0  0  1  0  0  0
  -27.2245  -27.2667   20.1179 C   0  0  0  0  0  0
  -25.5936  -33.8545   24.2249 N   0  0  0  0  0  0
  -23.4274  -30.4784   21.5410 C   0  0  2  0  0  0
  -24.8746  -28.9256   20.1093 C   0  0  0  0  0  0
  -22.7499  -29.4603   22.4905 C   0  0  0  0  0  0
  -18.0287  -28.1392   22.8475 C   0  0  0  0  0  0
  -24.1495  -36.7281   23.2635 C   0  0  0  0  0  0
  -25.9740  -30.7684   21.3789 C   0  0  0  0  0  0
  -26.0467  -29.3921   20.7182 C   0  0  0  0  0  0
  -27.2220  -28.5750   20.7110 C   0  0  0  0  0  0
  -26.0259  -26.8683   19.4814 C   0  0  0  0  0  0
  -24.8695  -27.6716   19.4811 C   0  0  0  0  0  0
  -23.6458  -29.8120   20.1577 C   0  0  0  0  0  0
  -25.4114  -36.3060   24.0323 C   0  0  1  0  0  0
  -20.5890  -28.3701   23.1269 C   0  0  2  0  0  0
  -20.6780  -26.9417   22.5411 C   0  0  0  0  0  0
  -19.5760  -26.6388   21.5209 C   0  0  0  0  0  0
  -18.1933  -26.7937   22.1613 C   0  0  0  0  0  0
  -19.1540  -28.8857   23.2870 C   0  0  0  0  0  0
  -18.9465  -30.1464   23.8889 C   0  0  0  0  0  0
  -17.6464  -30.6594   24.0561 C   0  0  0  0  0  0
  -25.9054  -34.9431   23.5087 C   0  0  0  0  0  0
  -16.5354  -29.9091   23.6341 C   0  0  0  0  0  0
  -16.7276  -28.6512   23.0352 C   0  0  0  0  0  0
  -26.4517  -31.6559   25.0716 C   0  0  0  0  0  0
  -25.3737  -31.3725   26.1438 C   0  0  0  0  0  0
  -27.0351  -30.2965   24.6211 C   0  0  0  0  0  0
  -27.6071  -32.4302   25.7481 C   0  0  0  0  0  0
  -27.5587  -37.1786   24.8452 C   0  0  0  0  0  0
  -21.4200  -29.3051   22.3653 N   0  0  0  0  0  0
  -26.4286  -37.3765   23.9409 N   0  0  0  0  0  0
  -24.6963  -31.0514   22.0960 N   0  0  0  0  0  0
  -23.4205  -28.8123   23.2986 O   0  0  0  0  0  0
  -28.3264  -26.3787   20.1747 O   0  0  0  0  0  0
  -26.5625  -34.8908   22.4658 O   0  0  0  0  0  0
  -23.5471  -32.1363   23.7293 O   0  0  0  0  0  0
  -27.8518  -21.4932   21.9049 C   0  0  0  0  0  0
  -28.1565  -19.3034   22.0951 C   0  0  0  0  0  0
  -27.5166  -20.3584   22.6896 C   0  0  0  0  0  0
  -28.6928  -21.1525   20.8857 C   0  0  0  0  0  0
  -26.1811  -19.1713   26.1828 C   0  0  0  0  0  0
  -25.7073  -17.9885   24.0269 C   0  0  0  0  0  0
  -25.0159  -22.6629   25.5507 C   0  0  0  0  0  0
  -29.2058  -22.2432   19.8977 C   0  0  0  0  0  0
  -29.2325  -23.8180   20.3477 C   0  0  0  0  0  0
  -29.5639  -18.6519   20.1231 C   0  0  0  0  0  0
  -30.2911  -17.3658   20.8247 C   0  0  0  0  0  0
  -28.1199  -24.9086   19.9234 C   0  0  0  0  0  0
  -27.1620  -23.9733   25.0993 C   0  0  0  0  0  0
  -26.6278  -20.3775   23.9299 C   0  0  1  0  0  0
  -26.6169  -19.0282   24.7095 C   0  0  0  0  0  0
  -26.3079  -22.7475   24.7144 C   0  0  1  0  0  0
  -28.8834  -19.7116   20.9802 N   0  0  0  0  0  0
  -29.8417  -15.9113   20.6258 N   0  0  0  0  0  0
  -27.0957  -21.4880   24.7883 N   0  3  0  0  0  0
  -27.7678  -23.8682   26.7775 Cl  0  0  0  0  0  0
  -31.4718  -12.6110   19.1597 H   0  0  0  0  0  0
  -30.3879  -11.5066   19.9651 H   0  0  0  0  0  0
  -29.7961  -11.7195   17.5238 H   0  0  0  0  0  0
  -29.6303  -13.4499   17.6964 H   0  0  0  0  0  0
  -27.8902  -11.2792   18.9074 H   0  0  0  0  0  0
  -27.3778  -12.5100   17.7903 H   0  0  0  0  0  0
  -27.6245  -14.2491   19.4486 H   0  0  0  0  0  0
  -28.7254  -12.1976   21.4298 H   0  0  0  0  0  0
  -28.4104  -13.8821   21.7670 H   0  0  0  0  0  0
  -25.2732   -9.5740   22.4761 H   0  0  0  0  0  0
  -24.0010   -7.4660   22.7489 H   0  0  0  0  0  0
  -21.0830   -8.8775   19.8962 H   0  0  0  0  0  0
  -22.3661  -10.9694   19.6173 H   0  0  0  0  0  0
  -21.2030   -7.6140   23.9723 H   0  0  0  0  0  0
  -21.1471   -6.0497   25.9071 H   0  0  0  0  0  0
  -22.0598   -2.7614   23.2824 H   0  0  0  0  0  0
  -22.3962  -12.0039   22.4935 H   0  0  0  0  0  0
  -21.0976  -13.1365   22.2427 H   0  0  0  0  0  0
  -24.6447  -15.8427   20.5277 H   0  0  0  0  0  0
  -26.2518  -15.6376   20.0544 H   0  0  0  0  0  0
  -26.7196  -32.5396   23.1050 H   0  0  0  0  0  0
  -25.0068  -33.9674   25.0389 H   0  0  0  0  0  0
  -22.7224  -31.3000   21.3961 H   0  0  0  0  0  0
  -23.3764  -35.9605   23.3264 H   0  0  0  0  0  0
  -24.3601  -36.8942   22.2059 H   0  0  0  0  0  0
  -23.7240  -37.6469   23.6683 H   0  0  0  0  0  0
  -26.1122  -31.5307   20.6109 H   0  0  0  0  0  0
  -26.8514  -30.8142   22.0121 H   0  0  0  0  0  0
  -28.1192  -28.9265   21.2008 H   0  0  0  0  0  0
  -25.9491  -25.9115   18.9880 H   0  0  0  0  0  0
  -23.9728  -27.3092   18.9967 H   0  0  0  0  0  0
  -23.7680  -30.5882   19.4007 H   0  0  0  0  0  0
  -22.7638  -29.2452   19.8562 H   0  0  0  0  0  0
  -25.1297  -36.1887   25.0816 H   0  0  0  0  0  0
  -20.9989  -28.3290   24.1388 H   0  0  0  0  0  0
  -20.5673  -26.2314   23.3616 H   0  0  0  0  0  0
  -21.6654  -26.7440   22.1217 H   0  0  0  0  0  0
  -19.6923  -25.6296   21.1246 H   0  0  0  0  0  0
  -19.6707  -27.3190   20.6730 H   0  0  0  0  0  0
  -17.4214  -26.6691   21.4004 H   0  0  0  0  0  0
  -18.0320  -26.0079   22.9005 H   0  0  0  0  0  0
  -19.7944  -30.7273   24.2260 H   0  0  0  0  0  0
  -17.5027  -31.6276   24.5159 H   0  0  0  0  0  0
  -15.5355  -30.2988   23.7673 H   0  0  0  0  0  0
  -15.8682  -28.0830   22.7069 H   0  0  0  0  0  0
  -24.5916  -30.7061   25.7785 H   0  0  0  0  0  0
  -24.8928  -32.2900   26.4837 H   0  0  0  0  0  0
  -25.8064  -30.8930   27.0231 H   0  0  0  0  0  0
  -26.2932  -29.6703   24.1246 H   0  0  0  0  0  0
  -27.4023  -29.7238   25.4741 H   0  0  0  0  0  0
  -27.8817  -30.4215   23.9457 H   0  0  0  0  0  0
  -27.2681  -33.3612   26.2039 H   0  0  0  0  0  0
  -28.3896  -32.6841   25.0317 H   0  0  0  0  0  0
  -28.0722  -31.8433   26.5419 H   0  0  0  0  0  0
  -28.2569  -38.0124   24.7546 H   0  0  0  0  0  0
  -28.1119  -36.2650   24.6201 H   0  0  0  0  0  0
  -27.2318  -37.1354   25.8861 H   0  0  0  0  0  0
  -20.9369  -29.8786   21.6876 H   0  0  0  0  0  0
  -26.0156  -38.2826   24.1441 H   0  0  0  0  0  0
  -27.5106  -22.5056   22.0661 H   0  0  0  0  0  0
  -28.1408  -18.2550   22.3635 H   0  0  0  0  0  0
  -26.1311  -18.1953   26.6667 H   0  0  0  0  0  0
  -25.1922  -19.6251   26.2681 H   0  0  0  0  0  0
  -26.8822  -19.7658   26.7687 H   0  0  0  0  0  0
  -25.7922  -17.0148   24.5094 H   0  0  0  0  0  0
  -25.9500  -17.8475   22.9746 H   0  0  0  0  0  0
  -24.6596  -18.2894   24.0799 H   0  0  0  0  0  0
  -24.4308  -23.5783   25.4562 H   0  0  0  0  0  0
  -25.2206  -22.5188   26.6115 H   0  0  0  0  0  0
  -24.3769  -21.8431   25.2239 H   0  0  0  0  0  0
  -28.6644  -22.1574   18.9550 H   0  0  0  0  0  0
  -30.2334  -21.9723   19.6501 H   0  0  0  0  0  0
  -30.1566  -24.2139   19.9253 H   0  0  0  0  0  0
  -29.3998  -23.8768   21.4233 H   0  0  0  0  0  0
  -28.8289  -18.2949   19.4024 H   0  0  0  0  0  0
  -30.3122  -19.1734   19.5241 H   0  0  0  0  0  0
  -30.3519  -17.5393   21.8988 H   0  0  0  0  0  0
  -31.3293  -17.4099   20.4954 H   0  0  0  0  0  0
  -27.1930  -24.6061   20.4120 H   0  0  0  0  0  0
  -27.9453  -24.7958   18.8529 H   0  0  0  0  0  0
  -26.5848  -24.8955   25.0139 H   0  0  0  0  0  0
  -28.0224  -24.0869   24.4395 H   0  0  0  0  0  0
  -25.6057  -20.5838   23.6050 H   0  0  0  0  0  0
  -27.6322  -18.6280   24.7316 H   0  0  0  0  0  0
  -26.0065  -22.9058   23.6787 H   0  0  0  0  0  0
  -28.8513  -15.7492   20.7179 H   0  0  0  0  0  0
  -28.0445  -21.6653   24.5008 H   0  0  0  0  0  0
  -27.1201  -21.1665   25.7422 H   0  0  0  0  0  0
  1 25  1  0  0  0
  1 30  2  0  0  0
  1 88  1  0  0  0
  2  3  1  0  0  0
  2 25  1  0  0  0
  2 91  1  0  0  0
  2 92  1  0  0  0
  3  4  1  0  0  0
  3 93  1  0  0  0
  3 94  1  0  0  0
  4  5  1  0  0  0
  4 95  1  0  0  0
  4 96  1  0  0  0
  5  6  1  0  0  0
  5 26  1  0  0  0
  5 97  1  0  0  0
  6 25  1  0  0  0
  6 98  1  0  0  0
  6 99  1  0  0  0
  7  8  2  0  0  0
  7 26  1  0  0  0
  7 29  1  0  0  0
  8  9  1  0  0  0
  8 22  1  0  0  0
  9 10  1  0  0  0
  9 27  2  0  0  0
 10 11  2  0  0  0
 10 15  1  0  0  0
 11 12  1  0  0  0
 11100  1  0  0  0
 12 13  2  0  0  0
 12101  1  0  0  0
 13 14  1  0  0  0
 13 31  1  0  0  0
 14 15  2  0  0  0
 14102  1  0  0  0
 15103  1  0  0  0
 16 17  2  0  0  0
 16 21  1  0  0  0
 16 31  1  0  0  0
 17 18  1  0  0  0
 17104  1  0  0  0
 18 19  2  0  0  0
 18105  1  0  0  0
 19 20  1  0  0  0
 19 24  1  0  0  0
 20 21  2  0  0  0
 20106  1  0  0  0
 21 23  1  0  0  0
 22 28  1  0  0  0
 22 32  2  0  0  0
 26 27  1  0  0  0
 28107  1  0  0  0
 28108  1  0  0  0
 29109  1  0  0  0
 29110  1  0  0  0
 33 34  1  0  0  0
 33 66  1  0  0  0
 33 70  2  0  0  0
 34 36  1  0  0  0
 34 59  1  0  0  0
 34111  1  0  0  0
 35 44  2  0  0  0
 35 45  1  0  0  0
 35 68  1  0  0  0
 36 56  1  0  0  0
 36112  1  0  0  0
 37 39  1  0  0  0
 37 47  1  0  0  0
 37 66  1  0  0  0
 37113  1  0  0  0
 38 43  2  0  0  0
 38 46  1  0  0  0
 38 47  1  0  0  0
 39 64  1  0  0  0
 39 67  2  0  0  0
 40 52  1  0  0  0
 40 53  2  0  0  0
 40 58  1  0  0  0
 41114  1  0  0  0
 41115  1  0  0  0
 41116  1  0  0  0
 41 48  1  0  0  0
 42 43  1  0  0  0
 42 66  1  0  0  0
 42117  1  0  0  0
 42118  1  0  0  0
 43 44  1  0  0  0
 44119  1  0  0  0
 45 46  2  0  0  0
 45120  1  0  0  0
 46121  1  0  0  0
 47122  1  0  0  0
 47123  1  0  0  0
 48 56  1  0  0  0
 48 65  1  0  0  0
 48124  1  0  0  0
 49 50  1  0  0  0
 49 53  1  0  0  0
 49 64  1  0  0  0
 49125  1  0  0  0
 50 51  1  0  0  0
 50126  1  0  0  0
 50127  1  0  0  0
 51 52  1  0  0  0
 51128  1  0  0  0
 51129  1  0  0  0
 52130  1  0  0  0
 52131  1  0  0  0
 53 54  1  0  0  0
 54 55  2  0  0  0
 54132  1  0  0  0
 55 57  1  0  0  0
 55133  1  0  0  0
 56 69  2  0  0  0
 57 58  2  0  0  0
 57134  1  0  0  0
 58135  1  0  0  0
 59 60  1  0  0  0
 59 61  1  0  0  0
 59 62  1  0  0  0
 60136  1  0  0  0
 60137  1  0  0  0
 60138  1  0  0  0
 61139  1  0  0  0
 61140  1  0  0  0
 61141  1  0  0  0
 62142  1  0  0  0
 62143  1  0  0  0
 62144  1  0  0  0
 63 65  1  0  0  0
 63145  1  0  0  0
 63146  1  0  0  0
 63147  1  0  0  0
 64148  1  0  0  0
 65149  1  0  0  0
 68 82  1  0  0  0
 71 73  1  0  0  0
 71 74  2  0  0  0
 71150  1  0  0  0
 72 73  2  0  0  0
 72 87  1  0  0  0
 72151  1  0  0  0
 73 84  1  0  0  0
 74 78  1  0  0  0
 74 87  1  0  0  0
 75152  1  0  0  0
 75153  1  0  0  0
 75154  1  0  0  0
 75 85  1  0  0  0
 76 85  1  0  0  0
 76155  1  0  0  0
 76156  1  0  0  0
 76157  1  0  0  0
 77158  1  0  0  0
 77159  1  0  0  0
 77160  1  0  0  0
 77 86  1  0  0  0
 78 79  1  0  0  0
 78161  1  0  0  0
 78162  1  0  0  0
 79 82  1  0  0  0
 79163  1  0  0  0
 79164  1  0  0  0
 80 81  1  0  0  0
 80 87  1  0  0  0
 80165  1  0  0  0
 80166  1  0  0  0
 81 88  1  0  0  0
 81167  1  0  0  0
 81168  1  0  0  0
 82169  1  0  0  0
 82170  1  0  0  0
 83 86  1  0  0  0
 83 90  1  0  0  0
 83171  1  0  0  0
 83172  1  0  0  0
 84 85  1  0  0  0
 84 89  1  0  0  0
 84173  1  0  0  0
 85174  1  0  0  0
 86 89  1  0  0  0
 86175  1  0  0  0
 88176  1  0  0  0
 89177  1  0  0  0
 89178  1  0  0  0
M  CHG  1  89   1
M  ISO  4   1 100  68 101  82 101  88 100
M  END
> <chiral flag>
0

> <version>
0

> <s_m_source_file>
/data/baiqing/PycharmProjects/Reinvent-master-3.2/result/LINK_invent/BTK/process_docking_weight1_custom_sum_contain_oxygen_bond_distance_aromatic_linkinvent_7_9_3/rearranged_h_0105.sdf

> <i_m_source_file_index>
42

> <r_mmod_Potential_Energy-OPLS-2005>
24.1860847473145

> <r_mmod_Stretch_Energy-OPLS-2005>
134.366775512695

> <r_mmod_Bend_Energy-OPLS-2005>
211.790313720703

> <r_mmod_Torsional_Energy-OPLS-2005>
262.150543212891

> <r_mmod_Improper_Torsional_Energy-OPLS-2005>
4.77594518661499

> <r_mmod_Van_der_Waal_Energy-OPLS-2005>
112.925857543945

> <r_mmod_Electrostatic_Energy-OPLS-2005>
-354.002380371094

> <r_mmod_Solvation_Energy-OPLS-2005>
-438.604461669922

> <b_mmod_Minimization_Converged-OPLS-2005>
0

> <r_mmod_RMS_Derivative-OPLS-2005>
3.32200980186462

$$$$
42
                    3D
 Structure written by MMmdl.
164172  0  0  1  0            999 V2000
  -30.7004  -14.4483   20.6133 C   0  0  0  0  0  0
  -30.4236  -12.3062   19.4198 C   0  0  0  0  0  0
  -29.4927  -12.5210   18.2086 C   0  0  0  0  0  0
  -28.0125  -12.3784   18.6163 C   0  0  0  0  0  0
  -27.6615  -13.2029   19.8815 C   0  0  2  0  0  0
  -28.6968  -12.9592   21.0011 C   0  0  0  0  0  0
  -25.2579  -13.8144   20.5623 C   0  0  0  0  0  0
  -24.1828  -13.0409   20.9169 C   0  0  0  0  0  0
  -24.6382  -11.6893   20.8728 C   0  0  0  0  0  0
  -23.9042  -10.4281   21.0402 C   0  0  0  0  0  0
  -24.3590   -9.4210   21.9183 C   0  0  0  0  0  0
  -23.6273   -8.2238   22.0763 C   0  0  0  0  0  0
  -22.4260   -8.0270   21.3534 C   0  0  0  0  0  0
  -21.9884   -9.0249   20.4642 C   0  0  0  0  0  0
  -22.7218  -10.2127   20.3057 C   0  0  0  0  0  0
  -21.6866   -6.0731   22.5280 C   0  0  0  0  0  0
  -21.4016   -6.5638   23.8215 C   0  0  0  0  0  0
  -21.3669   -5.6784   24.9176 C   0  0  0  0  0  0
  -21.6044   -4.3049   24.7221 C   0  0  0  0  0  0
  -21.8819   -3.8144   23.4344 C   0  0  0  0  0  0
  -21.9188   -4.6956   22.3400 C   0  0  0  0  0  0
  -22.7861  -13.5233   21.1821 C   0  0  0  0  0  0
  -22.1661   -4.2134   21.0988 F   0  0  0  0  0  0
  -21.5624   -3.4553   25.7742 F   0  0  0  0  0  0
  -30.0323  -13.2734   20.4568 N   0  0  0  0  0  0
  -26.3012  -12.9300   20.3363 N   0  0  0  0  0  0
  -25.9308  -11.6476   20.5751 N   0  0  0  0  0  0
  -22.0498  -12.8228   22.0397 N   0  0  0  0  0  0
  -25.4270  -15.1852   20.4003 N   0  0  0  0  0  0
  -31.8028  -14.6605   20.1032 O   0  0  0  0  0  0
  -21.6645   -6.8853   21.4229 O   0  0  0  0  0  0
  -22.3538  -14.5549   20.6706 O   0  0  0  0  0  0
  -24.6195  -31.8626   23.2074 C   0  0  0  0  0  0
  -25.9066  -32.4838   23.8373 C   0  0  1  0  0  0
  -27.2538  -27.4207   20.0559 C   0  0  0  0  0  0
  -25.5884  -33.8630   24.2302 N   0  0  0  0  0  0
  -23.4119  -30.4839   21.5475 C   0  0  2  0  0  0
  -24.8532  -28.9315   20.1329 C   0  0  0  0  0  0
  -22.7445  -29.4672   22.5000 C   0  0  0  0  0  0
  -18.0297  -28.1382   22.8478 C   0  0  0  0  0  0
  -24.1494  -36.7344   23.2634 C   0  0  0  0  0  0
  -25.9427  -30.8155   21.3595 C   0  0  0  0  0  0
  -26.0215  -29.4460   20.7093 C   0  0  0  0  0  0
  -27.2224  -28.7014   20.6634 C   0  0  0  0  0  0
  -26.0641  -26.9205   19.4884 C   0  0  0  0  0  0
  -24.8709  -27.6688   19.5215 C   0  0  0  0  0  0
  -23.6227  -29.8029   20.1703 C   0  0  0  0  0  0
  -25.4142  -36.3133   24.0313 C   0  0  1  0  0  0
  -20.5878  -28.3665   23.1292 C   0  0  2  0  0  0
  -20.6760  -26.9375   22.5396 C   0  0  0  0  0  0
  -19.5743  -26.6361   21.5201 C   0  0  0  0  0  0
  -18.1939  -26.7911   22.1608 C   0  0  0  0  0  0
  -19.1547  -28.8849   23.2888 C   0  0  0  0  0  0
  -18.9434  -30.1436   23.8927 C   0  0  0  0  0  0
  -17.6429  -30.6567   24.0574 C   0  0  0  0  0  0
  -25.9053  -34.9493   23.5126 C   0  0  0  0  0  0
  -16.5338  -29.9082   23.6300 C   0  0  0  0  0  0
  -16.7266  -28.6504   23.0314 C   0  0  0  0  0  0
  -26.4467  -31.6673   25.0725 C   0  0  0  0  0  0
  -25.3689  -31.3760   26.1453 C   0  0  0  0  0  0
  -27.0244  -30.3125   24.6065 C   0  0  0  0  0  0
  -27.6068  -32.4421   25.7433 C   0  0  0  0  0  0
  -27.5600  -37.1832   24.8437 C   0  0  0  0  0  0
  -21.4174  -29.3057   22.3727 N   0  0  0  0  0  0
  -26.4321  -37.3826   23.9364 N   0  0  0  0  0  0
  -24.6797  -31.0668   22.1001 N   0  0  0  0  0  0
  -23.4182  -28.8243   23.3096 O   0  0  0  0  0  0
  -28.4262  -26.6945   19.9692 O   0  0  0  0  0  0
  -26.5609  -34.8935   22.4692 O   0  0  0  0  0  0
  -23.5387  -32.1395   23.7463 O   0  0  0  0  0  0
  -30.1973  -19.8792   19.6111 C   0  0  0  0  0  0
  -31.6360  -21.7791   19.9742 C   0  0  0  0  0  0
  -30.4304  -21.2677   19.4600 C   0  0  0  0  0  0
  -31.1562  -19.0630   20.2469 C   0  0  0  0  0  0
  -32.3251  -19.7000   20.7447 C   0  0  0  0  0  0
  -33.4802  -18.9548   21.3845 C   0  0  0  0  0  0
  -31.1005  -17.0505   22.7743 C   0  0  0  0  0  0
  -30.9705  -17.5325   20.2206 C   0  0  0  0  0  0
  -29.4594  -22.1351   18.6482 C   0  0  0  0  0  0
  -28.2108  -24.1563   19.5425 C   0  0  0  0  0  0
  -28.4150  -25.3597   20.5108 C   0  0  0  0  0  0
  -30.3269  -16.8442   21.4664 C   0  0  1  0  0  0
  -32.5391  -21.0260   20.6288 N   0  0  0  0  0  0
  -30.0160  -15.4126   21.2666 N   0  0  0  0  0  0
  -29.4645  -23.5964   18.9626 N   0  3  0  0  0  0
  -31.4627  -12.4243   19.1126 H   0  0  0  0  0  0
  -30.3410  -11.2869   19.8002 H   0  0  0  0  0  0
  -29.7323  -11.8153   17.4151 H   0  0  0  0  0  0
  -29.6669  -13.5137   17.7907 H   0  0  0  0  0  0
  -27.8236  -11.3201   18.8029 H   0  0  0  0  0  0
  -27.3633  -12.6671   17.7859 H   0  0  0  0  0  0
  -27.7139  -14.2564   19.6089 H   0  0  0  0  0  0
  -28.6692  -11.9148   21.3194 H   0  0  0  0  0  0
  -28.4441  -13.5404   21.8898 H   0  0  0  0  0  0
  -25.2726   -9.5710   22.4770 H   0  0  0  0  0  0
  -24.0000   -7.4636   22.7498 H   0  0  0  0  0  0
  -21.0813   -8.8741   19.8963 H   0  0  0  0  0  0
  -22.3645  -10.9654   19.6177 H   0  0  0  0  0  0
  -21.2032   -7.6153   23.9698 H   0  0  0  0  0  0
  -21.1490   -6.0538   25.9066 H   0  0  0  0  0  0
  -22.0592   -2.7609   23.2860 H   0  0  0  0  0  0
  -22.4096  -11.9894   22.4771 H   0  0  0  0  0  0
  -21.1120  -13.1278   22.2623 H   0  0  0  0  0  0
  -24.6516  -15.8350   20.4830 H   0  0  0  0  0  0
  -26.2741  -15.6240   20.0611 H   0  0  0  0  0  0
  -26.7083  -32.5537   23.1093 H   0  0  0  0  0  0
  -24.9936  -33.9840   25.0352 H   0  0  0  0  0  0
  -22.7047  -31.3038   21.3992 H   0  0  0  0  0  0
  -23.3759  -35.9670   23.3325 H   0  0  0  0  0  0
  -24.3554  -36.8950   22.2031 H   0  0  0  0  0  0
  -23.7234  -37.6560   23.6627 H   0  0  0  0  0  0
  -26.0557  -31.5643   20.5726 H   0  0  0  0  0  0
  -26.8311  -30.8743   21.9761 H   0  0  0  0  0  0
  -28.1305  -29.1007   21.0992 H   0  0  0  0  0  0
  -26.0641  -25.9762   18.9686 H   0  0  0  0  0  0
  -23.9722  -27.2680   19.0690 H   0  0  0  0  0  0
  -23.7519  -30.5683   19.4020 H   0  0  0  0  0  0
  -22.7480  -29.2256   19.8656 H   0  0  0  0  0  0
  -25.1336  -36.2028   25.0800 H   0  0  0  0  0  0
  -20.9966  -28.3222   24.1424 H   0  0  0  0  0  0
  -20.5628  -26.2293   23.3593 H   0  0  0  0  0  0
  -21.6669  -26.7422   22.1258 H   0  0  0  0  0  0
  -19.6905  -25.6296   21.1219 H   0  0  0  0  0  0
  -19.6706  -27.3211   20.6759 H   0  0  0  0  0  0
  -17.4219  -26.6642   21.4003 H   0  0  0  0  0  0
  -18.0340  -26.0075   22.9010 H   0  0  0  0  0  0
  -19.7916  -30.7209   24.2333 H   0  0  0  0  0  0
  -17.5004  -31.6257   24.5145 H   0  0  0  0  0  0
  -15.5367  -30.2977   23.7579 H   0  0  0  0  0  0
  -15.8666  -28.0828   22.6971 H   0  0  0  0  0  0
  -24.6000  -30.6986   25.7717 H   0  0  0  0  0  0
  -24.8745  -32.2892   26.4779 H   0  0  0  0  0  0
  -25.8058  -30.9035   27.0258 H   0  0  0  0  0  0
  -26.2703  -29.6992   24.1134 H   0  0  0  0  0  0
  -27.3899  -29.7350   25.4528 H   0  0  0  0  0  0
  -27.8613  -30.4414   23.9200 H   0  0  0  0  0  0
  -27.2734  -33.3766   26.1970 H   0  0  0  0  0  0
  -28.3869  -32.6886   25.0213 H   0  0  0  0  0  0
  -28.0698  -31.8526   26.5366 H   0  0  0  0  0  0
  -28.2627  -38.0118   24.7499 H   0  0  0  0  0  0
  -28.1093  -36.2654   24.6292 H   0  0  0  0  0  0
  -27.2279  -37.1527   25.8824 H   0  0  0  0  0  0
  -20.9358  -29.8855   21.6988 H   0  0  0  0  0  0
  -26.0245  -38.2907   24.1381 H   0  0  0  0  0  0
  -29.3244  -19.4235   19.1659 H   0  0  0  0  0  0
  -31.9004  -22.8173   19.8344 H   0  0  0  0  0  0
  -33.7377  -18.0462   20.8361 H   0  0  0  0  0  0
  -33.2538  -18.7032   22.4161 H   0  0  0  0  0  0
  -34.3640  -19.5923   21.4259 H   0  0  0  0  0  0
  -31.1767  -18.1135   23.0117 H   0  0  0  0  0  0
  -32.1050  -16.6310   22.7195 H   0  0  0  0  0  0
  -30.5975  -16.5757   23.6155 H   0  0  0  0  0  0
  -31.9371  -17.0879   19.9883 H   0  0  0  0  0  0
  -30.3428  -17.2951   19.3619 H   0  0  0  0  0  0
  -28.4572  -21.7142   18.7402 H   0  0  0  0  0  0
  -29.7334  -22.0099   17.5998 H   0  0  0  0  0  0
  -27.5428  -24.3935   18.7154 H   0  0  0  0  0  0
  -27.7248  -23.3673   20.1230 H   0  0  0  0  0  0
  -29.3508  -25.2342   21.0553 H   0  0  0  0  0  0
  -27.6470  -25.3084   21.2783 H   0  0  0  0  0  0
  -29.3548  -17.3139   21.6188 H   0  0  0  0  0  0
  -29.1272  -15.1109   21.6392 H   0  0  0  0  0  0
  -29.6182  -24.0636   18.0817 H   0  0  0  0  0  0
  -30.2503  -23.8255   19.5456 H   0  0  0  0  0  0
  1 25  1  0  0  0
  1 30  2  0  0  0
  1 84  1  0  0  0
  2  3  1  0  0  0
  2 25  1  0  0  0
  2 86  1  0  0  0
  2 87  1  0  0  0
  3  4  1  0  0  0
  3 88  1  0  0  0
  3 89  1  0  0  0
  4  5  1  0  0  0
  4 90  1  0  0  0
  4 91  1  0  0  0
  5  6  1  0  0  0
  5 26  1  0  0  0
  5 92  1  0  0  0
  6 25  1  0  0  0
  6 93  1  0  0  0
  6 94  1  0  0  0
  7  8  2  0  0  0
  7 26  1  0  0  0
  7 29  1  0  0  0
  8  9  1  0  0  0
  8 22  1  0  0  0
  9 10  1  0  0  0
  9 27  2  0  0  0
 10 11  2  0  0  0
 10 15  1  0  0  0
 11 12  1  0  0  0
 11 95  1  0  0  0
 12 13  2  0  0  0
 12 96  1  0  0  0
 13 14  1  0  0  0
 13 31  1  0  0  0
 14 15  2  0  0  0
 14 97  1  0  0  0
 15 98  1  0  0  0
 16 17  2  0  0  0
 16 21  1  0  0  0
 16 31  1  0  0  0
 17 18  1  0  0  0
 17 99  1  0  0  0
 18 19  2  0  0  0
 18100  1  0  0  0
 19 20  1  0  0  0
 19 24  1  0  0  0
 20 21  2  0  0  0
 20101  1  0  0  0
 21 23  1  0  0  0
 22 28  1  0  0  0
 22 32  2  0  0  0
 26 27  1  0  0  0
 28102  1  0  0  0
 28103  1  0  0  0
 29104  1  0  0  0
 29105  1  0  0  0
 33 34  1  0  0  0
 33 66  1  0  0  0
 33 70  2  0  0  0
 34 36  1  0  0  0
 34 59  1  0  0  0
 34106  1  0  0  0
 35 44  2  0  0  0
 35 45  1  0  0  0
 35 68  1  0  0  0
 36 56  1  0  0  0
 36107  1  0  0  0
 37 39  1  0  0  0
 37 47  1  0  0  0
 37 66  1  0  0  0
 37108  1  0  0  0
 38 43  2  0  0  0
 38 46  1  0  0  0
 38 47  1  0  0  0
 39 64  1  0  0  0
 39 67  2  0  0  0
 40 52  1  0  0  0
 40 53  2  0  0  0
 40 58  1  0  0  0
 41109  1  0  0  0
 41110  1  0  0  0
 41111  1  0  0  0
 41 48  1  0  0  0
 42 43  1  0  0  0
 42 66  1  0  0  0
 42112  1  0  0  0
 42113  1  0  0  0
 43 44  1  0  0  0
 44114  1  0  0  0
 45 46  2  0  0  0
 45115  1  0  0  0
 46116  1  0  0  0
 47117  1  0  0  0
 47118  1  0  0  0
 48 56  1  0  0  0
 48 65  1  0  0  0
 48119  1  0  0  0
 49 50  1  0  0  0
 49 53  1  0  0  0
 49 64  1  0  0  0
 49120  1  0  0  0
 50 51  1  0  0  0
 50121  1  0  0  0
 50122  1  0  0  0
 51 52  1  0  0  0
 51123  1  0  0  0
 51124  1  0  0  0
 52125  1  0  0  0
 52126  1  0  0  0
 53 54  1  0  0  0
 54 55  2  0  0  0
 54127  1  0  0  0
 55 57  1  0  0  0
 55128  1  0  0  0
 56 69  2  0  0  0
 57 58  2  0  0  0
 57129  1  0  0  0
 58130  1  0  0  0
 59 60  1  0  0  0
 59 61  1  0  0  0
 59 62  1  0  0  0
 60131  1  0  0  0
 60132  1  0  0  0
 60133  1  0  0  0
 61134  1  0  0  0
 61135  1  0  0  0
 61136  1  0  0  0
 62137  1  0  0  0
 62138  1  0  0  0
 62139  1  0  0  0
 63 65  1  0  0  0
 63140  1  0  0  0
 63141  1  0  0  0
 63142  1  0  0  0
 64143  1  0  0  0
 65144  1  0  0  0
 68 81  1  0  0  0
 71 73  2  0  0  0
 71 74  1  0  0  0
 71145  1  0  0  0
 72 73  1  0  0  0
 72 83  2  0  0  0
 72146  1  0  0  0
 73 79  1  0  0  0
 74 75  2  0  0  0
 74 78  1  0  0  0
 75 76  1  0  0  0
 75 83  1  0  0  0
 76147  1  0  0  0
 76148  1  0  0  0
 76149  1  0  0  0
 77150  1  0  0  0
 77151  1  0  0  0
 77152  1  0  0  0
 77 82  1  0  0  0
 78 82  1  0  0  0
 78153  1  0  0  0
 78154  1  0  0  0
 79 85  1  0  0  0
 79155  1  0  0  0
 79156  1  0  0  0
 80 81  1  0  0  0
 80 85  1  0  0  0
 80157  1  0  0  0
 80158  1  0  0  0
 81159  1  0  0  0
 81160  1  0  0  0
 82 84  1  0  0  0
 82161  1  0  0  0
 84162  1  0  0  0
 85163  1  0  0  0
 85164  1  0  0  0
M  CHG  1  85   1
M  ISO  4   1 100  68 101  81 101  84 100
M  END
> <chiral flag>
0

> <version>
0

> <s_m_source_file>
/data/baiqing/PycharmProjects/Reinvent-master-3.2/result/LINK_invent/BTK/process_docking_weight1_custom_sum_contain_oxygen_bond_distance_aromatic_linkinvent_7_9_3/rearranged_h_0105.sdf

> <i_m_source_file_index>
43

> <r_mmod_Potential_Energy-OPLS-2005>
-351.511871337891

> <r_mmod_Stretch_Energy-OPLS-2005>
41.6107368469238

> <r_mmod_Bend_Energy-OPLS-2005>
116.164001464844

> <r_mmod_Torsional_Energy-OPLS-2005>
228.100921630859

> <r_mmod_Improper_Torsional_Energy-OPLS-2005>
4.24025249481201

> <r_mmod_Van_der_Waal_Energy-OPLS-2005>
157.673110961914

> <r_mmod_Electrostatic_Energy-OPLS-2005>
-453.913848876953

> <r_mmod_Solvation_Energy-OPLS-2005>
-457.473815917969

> <b_mmod_Minimization_Converged-OPLS-2005>
0

> <r_mmod_RMS_Derivative-OPLS-2005>
8.73664474487305

$$$$
43
                    3D
 Structure written by MMmdl.
172180  0  0  1  0            999 V2000
  -30.5695  -14.7604   20.4734 C   0  0  0  0  0  0
  -30.4516  -12.4709   19.4545 C   0  0  0  0  0  0
  -29.5153  -12.5093   18.2253 C   0  0  0  0  0  0
  -28.0406  -12.3237   18.6414 C   0  0  0  0  0  0
  -27.6432  -13.2200   19.8437 C   0  0  2  0  0  0
  -28.6918  -13.1344   20.9728 C   0  0  0  0  0  0
  -25.2535  -13.8166   20.5671 C   0  0  0  0  0  0
  -24.1822  -13.0429   20.9208 C   0  0  0  0  0  0
  -24.6392  -11.6901   20.8745 C   0  0  0  0  0  0
  -23.9069  -10.4288   21.0412 C   0  0  0  0  0  0
  -24.3624   -9.4204   21.9188 C   0  0  0  0  0  0
  -23.6301   -8.2236   22.0754 C   0  0  0  0  0  0
  -22.4280   -8.0281   21.3547 C   0  0  0  0  0  0
  -21.9914   -9.0248   20.4644 C   0  0  0  0  0  0
  -22.7243  -10.2126   20.3058 C   0  0  0  0  0  0
  -21.6842   -6.0742   22.5289 C   0  0  0  0  0  0
  -21.4004   -6.5643   23.8226 C   0  0  0  0  0  0
  -21.3659   -5.6793   24.9185 C   0  0  0  0  0  0
  -21.6047   -4.3055   24.7224 C   0  0  0  0  0  0
  -21.8823   -3.8153   23.4344 C   0  0  0  0  0  0
  -21.9185   -4.6972   22.3404 C   0  0  0  0  0  0
  -22.7848  -13.5223   21.1857 C   0  0  0  0  0  0
  -22.1661   -4.2162   21.0981 F   0  0  0  0  0  0
  -21.5629   -3.4537   25.7734 F   0  0  0  0  0  0
  -29.9866  -13.5150   20.3913 N   0  0  0  0  0  0
  -26.2945  -12.9342   20.3234 N   0  0  0  0  0  0
  -25.9316  -11.6499   20.5727 N   0  0  0  0  0  0
  -22.0469  -12.8230   22.0412 N   0  0  0  0  0  0
  -25.4212  -15.1893   20.4077 N   0  0  0  0  0  0
  -31.7695  -14.9002   20.2235 O   0  0  0  0  0  0
  -21.6635   -6.8883   21.4252 O   0  0  0  0  0  0
  -22.3540  -14.5524   20.6688 O   0  0  0  0  0  0
  -24.6317  -31.8523   23.1955 C   0  0  0  0  0  0
  -25.9128  -32.4748   23.8310 C   0  0  1  0  0  0
  -27.2274  -27.2538   20.1426 C   0  0  0  0  0  0
  -25.5924  -33.8550   24.2238 N   0  0  0  0  0  0
  -23.4301  -30.4720   21.5379 C   0  0  2  0  0  0
  -24.8802  -28.9101   20.1172 C   0  0  0  0  0  0
  -22.7515  -29.4577   22.4902 C   0  0  0  0  0  0
  -18.0289  -28.1399   22.8477 C   0  0  0  0  0  0
  -24.1488  -36.7282   23.2639 C   0  0  0  0  0  0
  -25.9756  -30.7657   21.3734 C   0  0  0  0  0  0
  -26.0520  -29.3842   20.7219 C   0  0  0  0  0  0
  -27.2322  -28.5710   20.7151 C   0  0  0  0  0  0
  -26.0314  -26.8380   19.5236 C   0  0  0  0  0  0
  -24.8743  -27.6447   19.5072 C   0  0  0  0  0  0
  -23.6521  -29.8004   20.1560 C   0  0  0  0  0  0
  -25.4120  -36.3065   24.0316 C   0  0  1  0  0  0
  -20.5896  -28.3701   23.1275 C   0  0  2  0  0  0
  -20.6771  -26.9414   22.5417 C   0  0  0  0  0  0
  -19.5745  -26.6383   21.5224 C   0  0  0  0  0  0
  -18.1927  -26.7937   22.1628 C   0  0  0  0  0  0
  -19.1544  -28.8867   23.2867 C   0  0  0  0  0  0
  -18.9463  -30.1475   23.8879 C   0  0  0  0  0  0
  -17.6463  -30.6591   24.0571 C   0  0  0  0  0  0
  -25.9049  -34.9439   23.5080 C   0  0  0  0  0  0
  -16.5349  -29.9087   23.6336 C   0  0  0  0  0  0
  -16.7272  -28.6518   23.0338 C   0  0  0  0  0  0
  -26.4502  -31.6578   25.0698 C   0  0  0  0  0  0
  -25.3719  -31.3734   26.1413 C   0  0  0  0  0  0
  -27.0349  -30.2995   24.6182 C   0  0  0  0  0  0
  -27.6051  -32.4325   25.7472 C   0  0  0  0  0  0
  -27.5579  -37.1799   24.8462 C   0  0  0  0  0  0
  -21.4216  -29.3038   22.3667 N   0  0  0  0  0  0
  -26.4294  -37.3769   23.9404 N   0  0  0  0  0  0
  -24.6983  -31.0482   22.0927 N   0  0  0  0  0  0
  -23.4210  -28.8110   23.3003 O   0  0  0  0  0  0
  -28.3353  -26.3759   20.1273 O   0  0  0  0  0  0
  -26.5631  -34.8917   22.4652 O   0  0  0  0  0  0
  -23.5461  -32.1340   23.7247 O   0  0  0  0  0  0
  -31.3402  -18.2674   19.2929 C   0  0  0  0  0  0
  -30.7935  -20.4180   19.1080 C   0  0  0  0  0  0
  -31.7032  -19.4949   18.6729 C   0  0  0  0  0  0
  -30.2695  -18.4435   20.1258 C   0  0  0  0  0  0
  -30.3789  -17.4173   22.4481 C   0  0  0  0  0  0
  -27.5510  -23.2521   18.9387 C   0  0  0  0  0  0
  -32.7954  -18.7224   16.5599 C   0  0  0  0  0  0
  -34.1883  -19.4779   18.5093 C   0  0  0  0  0  0
  -32.8908  -21.1488   17.1746 C   0  0  0  0  0  0
  -28.9893  -22.3062   20.9028 C   0  0  0  0  0  0
  -28.7837  -20.7137   20.5557 C   0  0  0  0  0  0
  -28.2169  -24.9970   20.7218 C   0  0  0  0  0  0
  -29.7295  -17.3094   21.0611 C   0  0  2  0  0  0
  -28.6317  -23.6037   19.9711 C   0  0  2  0  0  0
  -32.8801  -19.7133   17.7340 C   0  0  0  0  0  0
  -29.9038  -19.8511   20.0043 N   0  0  0  0  0  0
  -29.6994  -15.8272   20.6514 N   0  0  0  0  0  0
  -31.4857  -12.6348   19.1464 H   0  0  0  0  0  0
  -30.4305  -11.4905   19.9330 H   0  0  0  0  0  0
  -29.8031  -11.7383   17.5090 H   0  0  0  0  0  0
  -29.6315  -13.4645   17.7098 H   0  0  0  0  0  0
  -27.9029  -11.2745   18.9048 H   0  0  0  0  0  0
  -27.3803  -12.5107   17.7935 H   0  0  0  0  0  0
  -27.6381  -14.2425   19.4657 H   0  0  0  0  0  0
  -28.7403  -12.1232   21.3793 H   0  0  0  0  0  0
  -28.4230  -13.7819   21.8092 H   0  0  0  0  0  0
  -25.2768   -9.5674   22.4764 H   0  0  0  0  0  0
  -24.0010   -7.4620   22.7468 H   0  0  0  0  0  0
  -21.0844   -8.8760   19.8947 H   0  0  0  0  0  0
  -22.3704  -10.9662   19.6166 H   0  0  0  0  0  0
  -21.1994   -7.6150   23.9732 H   0  0  0  0  0  0
  -21.1481   -6.0520   25.9091 H   0  0  0  0  0  0
  -22.0599   -2.7616   23.2834 H   0  0  0  0  0  0
  -22.4065  -11.9898   22.4827 H   0  0  0  0  0  0
  -21.1088  -13.1272   22.2585 H   0  0  0  0  0  0
  -24.6434  -15.8324   20.5124 H   0  0  0  0  0  0
  -26.2489  -15.6316   20.0310 H   0  0  0  0  0  0
  -26.7191  -32.5404   23.1054 H   0  0  0  0  0  0
  -25.0088  -33.9688   25.0397 H   0  0  0  0  0  0
  -22.7266  -31.2936   21.3877 H   0  0  0  0  0  0
  -23.3752  -35.9612   23.3295 H   0  0  0  0  0  0
  -24.3580  -36.8913   22.2053 H   0  0  0  0  0  0
  -23.7237  -37.6477   23.6675 H   0  0  0  0  0  0
  -26.1096  -31.5237   20.6003 H   0  0  0  0  0  0
  -26.8548  -30.8226   22.0039 H   0  0  0  0  0  0
  -28.1366  -28.9331   21.1833 H   0  0  0  0  0  0
  -25.9850  -25.8650   19.0561 H   0  0  0  0  0  0
  -23.9778  -27.2753   19.0289 H   0  0  0  0  0  0
  -23.7841  -30.5740   19.3987 H   0  0  0  0  0  0
  -22.7704  -29.2357   19.8464 H   0  0  0  0  0  0
  -25.1313  -36.1903   25.0809 H   0  0  0  0  0  0
  -20.9995  -28.3263   24.1395 H   0  0  0  0  0  0
  -20.5681  -26.2302   23.3620 H   0  0  0  0  0  0
  -21.6636  -26.7430   22.1216 H   0  0  0  0  0  0
  -19.6898  -25.6295   21.1253 H   0  0  0  0  0  0
  -19.6686  -27.3194   20.6756 H   0  0  0  0  0  0
  -17.4206  -26.6692   21.4022 H   0  0  0  0  0  0
  -18.0311  -26.0090   22.9030 H   0  0  0  0  0  0
  -19.7934  -30.7307   24.2229 H   0  0  0  0  0  0
  -17.5001  -31.6263   24.5184 H   0  0  0  0  0  0
  -15.5346  -30.2983   23.7667 H   0  0  0  0  0  0
  -15.8673  -28.0839   22.7035 H   0  0  0  0  0  0
  -24.5917  -30.7056   25.7745 H   0  0  0  0  0  0
  -24.8885  -32.2904   26.4786 H   0  0  0  0  0  0
  -25.8028  -30.8955   27.0218 H   0  0  0  0  0  0
  -26.2926  -29.6742   24.1206 H   0  0  0  0  0  0
  -27.4035  -29.7258   25.4695 H   0  0  0  0  0  0
  -27.8803  -30.4273   23.9419 H   0  0  0  0  0  0
  -27.2657  -33.3645   26.2004 H   0  0  0  0  0  0
  -28.3883  -32.6848   25.0309 H   0  0  0  0  0  0
  -28.0695  -31.8475   26.5422 H   0  0  0  0  0  0
  -28.2594  -38.0101   24.7519 H   0  0  0  0  0  0
  -28.1079  -36.2632   24.6284 H   0  0  0  0  0  0
  -27.2295  -37.1433   25.8865 H   0  0  0  0  0  0
  -20.9398  -29.8781   21.6896 H   0  0  0  0  0  0
  -26.0162  -38.2833   24.1426 H   0  0  0  0  0  0
  -31.8612  -17.3274   19.1717 H   0  0  0  0  0  0
  -30.7030  -21.4676   18.8607 H   0  0  0  0  0  0
  -30.2282  -18.4101   22.8719 H   0  0  0  0  0  0
  -31.4536  -17.2412   22.3939 H   0  0  0  0  0  0
  -29.9560  -16.6957   23.1483 H   0  0  0  0  0  0
  -27.8553  -22.4146   18.3103 H   0  0  0  0  0  0
  -27.3565  -24.0951   18.2766 H   0  0  0  0  0  0
  -26.6111  -22.9862   19.4230 H   0  0  0  0  0  0
  -32.8373  -17.6881   16.9017 H   0  0  0  0  0  0
  -33.6193  -18.8648   15.8595 H   0  0  0  0  0  0
  -31.8655  -18.8446   16.0035 H   0  0  0  0  0  0
  -34.2458  -18.4618   18.9013 H   0  0  0  0  0  0
  -34.2734  -20.1594   19.3570 H   0  0  0  0  0  0
  -35.0623  -19.6333   17.8756 H   0  0  0  0  0  0
  -31.9819  -21.3682   16.6136 H   0  0  0  0  0  0
  -33.7336  -21.3058   16.5005 H   0  0  0  0  0  0
  -32.9769  -21.8887   17.9709 H   0  0  0  0  0  0
  -29.9970  -22.4377   21.2980 H   0  0  0  0  0  0
  -28.3586  -22.4497   21.7805 H   0  0  0  0  0  0
  -27.9279  -20.6017   19.8904 H   0  0  0  0  0  0
  -28.4747  -20.2251   21.4804 H   0  0  0  0  0  0
  -28.8367  -25.0508   21.6171 H   0  0  0  0  0  0
  -27.2075  -24.8732   21.1165 H   0  0  0  0  0  0
  -28.6734  -17.5386   21.2127 H   0  0  0  0  0  0
  -29.5414  -23.8178   19.4082 H   0  0  0  0  0  0
  -28.7531  -15.4824   20.6703 H   0  0  0  0  0  0
  1 25  1  0  0  0
  1 30  2  0  0  0
  1 87  1  0  0  0
  2  3  1  0  0  0
  2 25  1  0  0  0
  2 88  1  0  0  0
  2 89  1  0  0  0
  3  4  1  0  0  0
  3 90  1  0  0  0
  3 91  1  0  0  0
  4  5  1  0  0  0
  4 92  1  0  0  0
  4 93  1  0  0  0
  5  6  1  0  0  0
  5 26  1  0  0  0
  5 94  1  0  0  0
  6 25  1  0  0  0
  6 95  1  0  0  0
  6 96  1  0  0  0
  7  8  2  0  0  0
  7 26  1  0  0  0
  7 29  1  0  0  0
  8  9  1  0  0  0
  8 22  1  0  0  0
  9 10  1  0  0  0
  9 27  2  0  0  0
 10 11  2  0  0  0
 10 15  1  0  0  0
 11 12  1  0  0  0
 11 97  1  0  0  0
 12 13  2  0  0  0
 12 98  1  0  0  0
 13 14  1  0  0  0
 13 31  1  0  0  0
 14 15  2  0  0  0
 14 99  1  0  0  0
 15100  1  0  0  0
 16 17  2  0  0  0
 16 21  1  0  0  0
 16 31  1  0  0  0
 17 18  1  0  0  0
 17101  1  0  0  0
 18 19  2  0  0  0
 18102  1  0  0  0
 19 20  1  0  0  0
 19 24  1  0  0  0
 20 21  2  0  0  0
 20103  1  0  0  0
 21 23  1  0  0  0
 22 28  1  0  0  0
 22 32  2  0  0  0
 26 27  1  0  0  0
 28104  1  0  0  0
 28105  1  0  0  0
 29106  1  0  0  0
 29107  1  0  0  0
 33 34  1  0  0  0
 33 66  1  0  0  0
 33 70  2  0  0  0
 34 36  1  0  0  0
 34 59  1  0  0  0
 34108  1  0  0  0
 35 44  2  0  0  0
 35 45  1  0  0  0
 35 68  1  0  0  0
 36 56  1  0  0  0
 36109  1  0  0  0
 37 39  1  0  0  0
 37 47  1  0  0  0
 37 66  1  0  0  0
 37110  1  0  0  0
 38 43  2  0  0  0
 38 46  1  0  0  0
 38 47  1  0  0  0
 39 64  1  0  0  0
 39 67  2  0  0  0
 40 52  1  0  0  0
 40 53  2  0  0  0
 40 58  1  0  0  0
 41111  1  0  0  0
 41112  1  0  0  0
 41113  1  0  0  0
 41 48  1  0  0  0
 42 43  1  0  0  0
 42 66  1  0  0  0
 42114  1  0  0  0
 42115  1  0  0  0
 43 44  1  0  0  0
 44116  1  0  0  0
 45 46  2  0  0  0
 45117  1  0  0  0
 46118  1  0  0  0
 47119  1  0  0  0
 47120  1  0  0  0
 48 56  1  0  0  0
 48 65  1  0  0  0
 48121  1  0  0  0
 49 50  1  0  0  0
 49 53  1  0  0  0
 49 64  1  0  0  0
 49122  1  0  0  0
 50 51  1  0  0  0
 50123  1  0  0  0
 50124  1  0  0  0
 51 52  1  0  0  0
 51125  1  0  0  0
 51126  1  0  0  0
 52127  1  0  0  0
 52128  1  0  0  0
 53 54  1  0  0  0
 54 55  2  0  0  0
 54129  1  0  0  0
 55 57  1  0  0  0
 55130  1  0  0  0
 56 69  2  0  0  0
 57 58  2  0  0  0
 57131  1  0  0  0
 58132  1  0  0  0
 59 60  1  0  0  0
 59 61  1  0  0  0
 59 62  1  0  0  0
 60133  1  0  0  0
 60134  1  0  0  0
 60135  1  0  0  0
 61136  1  0  0  0
 61137  1  0  0  0
 61138  1  0  0  0
 62139  1  0  0  0
 62140  1  0  0  0
 62141  1  0  0  0
 63 65  1  0  0  0
 63142  1  0  0  0
 63143  1  0  0  0
 63144  1  0  0  0
 64145  1  0  0  0
 65146  1  0  0  0
 68 82  1  0  0  0
 71 73  1  0  0  0
 71 74  2  0  0  0
 71147  1  0  0  0
 72 73  2  0  0  0
 72 86  1  0  0  0
 72148  1  0  0  0
 73 85  1  0  0  0
 74 83  1  0  0  0
 74 86  1  0  0  0
 75149  1  0  0  0
 75150  1  0  0  0
 75151  1  0  0  0
 75 83  1  0  0  0
 76152  1  0  0  0
 76153  1  0  0  0
 76154  1  0  0  0
 76 84  1  0  0  0
 77155  1  0  0  0
 77156  1  0  0  0
 77157  1  0  0  0
 77 85  1  0  0  0
 78 85  1  0  0  0
 78158  1  0  0  0
 78159  1  0  0  0
 78160  1  0  0  0
 79 85  1  0  0  0
 79161  1  0  0  0
 79162  1  0  0  0
 79163  1  0  0  0
 80 81  1  0  0  0
 80 84  1  0  0  0
 80164  1  0  0  0
 80165  1  0  0  0
 81 86  1  0  0  0
 81166  1  0  0  0
 81167  1  0  0  0
 82 84  1  0  0  0
 82168  1  0  0  0
 82169  1  0  0  0
 83 87  1  0  0  0
 83170  1  0  0  0
 84171  1  0  0  0
 87172  1  0  0  0
M  ISO  4   1 100  68 101  82 101  87 100
M  END
> <chiral flag>
0

> <version>
0

> <s_m_source_file>
/data/baiqing/PycharmProjects/Reinvent-master-3.2/result/LINK_invent/BTK/process_docking_weight1_custom_sum_contain_oxygen_bond_distance_aromatic_linkinvent_7_9_3/rearranged_h_0105.sdf

> <i_m_source_file_index>
44

> <r_mmod_Potential_Energy-OPLS-2005>
183.557907104492

> <r_mmod_Stretch_Energy-OPLS-2005>
139.282638549805

> <r_mmod_Bend_Energy-OPLS-2005>
239.600936889648

> <r_mmod_Torsional_Energy-OPLS-2005>
255.101211547852

> <r_mmod_Improper_Torsional_Energy-OPLS-2005>
5.30432987213135

> <r_mmod_Van_der_Waal_Energy-OPLS-2005>
101.602088928223

> <r_mmod_Electrostatic_Energy-OPLS-2005>
-445.197235107422

> <r_mmod_Solvation_Energy-OPLS-2005>
-202.363586425781

> <b_mmod_Minimization_Converged-OPLS-2005>
0

> <r_mmod_RMS_Derivative-OPLS-2005>
1.43135452270508

$$$$
44
                    3D
 Structure written by MMmdl.
177185  0  0  1  0            999 V2000
  -30.5163  -14.9840   20.4300 C   0  0  0  0  0  0
  -30.4498  -12.6187   19.4972 C   0  0  0  0  0  0
  -29.5309  -12.5322   18.2593 C   0  0  0  0  0  0
  -28.0659  -12.3040   18.6823 C   0  0  0  0  0  0
  -27.6292  -13.2413   19.8404 C   0  0  2  0  0  0
  -28.6748  -13.2587   20.9717 C   0  0  0  0  0  0
  -25.2463  -13.8185   20.5696 C   0  0  0  0  0  0
  -24.1784  -13.0418   20.9216 C   0  0  0  0  0  0
  -24.6385  -11.6905   20.8740 C   0  0  0  0  0  0
  -23.9065  -10.4290   21.0394 C   0  0  0  0  0  0
  -24.3607   -9.4204   21.9176 C   0  0  0  0  0  0
  -23.6288   -8.2236   22.0742 C   0  0  0  0  0  0
  -22.4278   -8.0269   21.3524 C   0  0  0  0  0  0
  -21.9909   -9.0246   20.4636 C   0  0  0  0  0  0
  -22.7237  -10.2125   20.3048 C   0  0  0  0  0  0
  -21.6860   -6.0735   22.5285 C   0  0  0  0  0  0
  -21.4027   -6.5631   23.8213 C   0  0  0  0  0  0
  -21.3671   -5.6773   24.9175 C   0  0  0  0  0  0
  -21.6060   -4.3044   24.7227 C   0  0  0  0  0  0
  -21.8829   -3.8144   23.4344 C   0  0  0  0  0  0
  -21.9204   -4.6955   22.3402 C   0  0  0  0  0  0
  -22.7804  -13.5168   21.1865 C   0  0  0  0  0  0
  -22.1673   -4.2156   21.0969 F   0  0  0  0  0  0
  -21.5629   -3.4515   25.7733 F   0  0  0  0  0  0
  -29.9315  -13.7168   20.3669 N   0  0  0  0  0  0
  -26.2886  -12.9405   20.3251 N   0  0  0  0  0  0
  -25.9315  -11.6546   20.5755 N   0  0  0  0  0  0
  -22.0434  -12.8218   22.0436 N   0  0  0  0  0  0
  -25.4085  -15.1915   20.4093 N   0  0  0  0  0  0
  -31.7389  -15.0312   20.2412 O   0  0  0  0  0  0
  -21.6640   -6.8875   21.4239 O   0  0  0  0  0  0
  -22.3488  -14.5460   20.6690 O   0  0  0  0  0  0
  -24.6443  -31.8425   23.1870 C   0  0  0  0  0  0
  -25.9222  -32.4689   23.8275 C   0  0  1  0  0  0
  -27.2162  -27.1217   20.1684 C   0  0  0  0  0  0
  -25.5961  -33.8487   24.2186 N   0  0  0  0  0  0
  -23.4485  -30.4611   21.5325 C   0  0  2  0  0  0
  -24.8992  -28.8853   20.1133 C   0  0  0  0  0  0
  -22.7572  -29.4551   22.4868 C   0  0  0  0  0  0
  -18.0306  -28.1405   22.8478 C   0  0  0  0  0  0
  -24.1491  -36.7258   23.2636 C   0  0  0  0  0  0
  -26.0055  -30.7159   21.3869 C   0  0  0  0  0  0
  -26.0778  -29.3242   20.7305 C   0  0  0  0  0  0
  -27.2371  -28.4598   20.7367 C   0  0  0  0  0  0
  -26.0124  -26.7893   19.5067 C   0  0  0  0  0  0
  -24.8807  -27.6326   19.4838 C   0  0  0  0  0  0
  -23.6769  -29.7886   20.1525 C   0  0  0  0  0  0
  -25.4125  -36.3031   24.0309 C   0  0  1  0  0  0
  -20.5912  -28.3740   23.1233 C   0  0  2  0  0  0
  -20.6796  -26.9448   22.5409 C   0  0  0  0  0  0
  -19.5777  -26.6394   21.5217 C   0  0  0  0  0  0
  -18.1947  -26.7949   22.1612 C   0  0  0  0  0  0
  -19.1554  -28.8894   23.2843 C   0  0  0  0  0  0
  -18.9471  -30.1489   23.8872 C   0  0  0  0  0  0
  -17.6470  -30.6599   24.0566 C   0  0  0  0  0  0
  -25.9080  -34.9404   23.5067 C   0  0  0  0  0  0
  -16.5363  -29.9088   23.6337 C   0  0  0  0  0  0
  -16.7295  -28.6511   23.0362 C   0  0  0  0  0  0
  -26.4538  -31.6547   25.0718 C   0  0  0  0  0  0
  -25.3724  -31.3737   26.1420 C   0  0  0  0  0  0
  -27.0370  -30.2922   24.6305 C   0  0  0  0  0  0
  -27.6072  -32.4294   25.7506 C   0  0  0  0  0  0
  -27.5586  -37.1780   24.8457 C   0  0  0  0  0  0
  -21.4263  -29.3054   22.3600 N   0  0  0  0  0  0
  -26.4288  -37.3749   23.9413 N   0  0  0  0  0  0
  -24.7192  -31.0274   22.0906 N   0  0  0  0  0  0
  -23.4208  -28.8103   23.3023 O   0  0  0  0  0  0
  -28.2633  -26.1270   20.2485 O   0  0  0  0  0  0
  -26.5672  -34.8894   22.4636 O   0  0  0  0  0  0
  -23.5571  -32.1300   23.7090 O   0  0  0  0  0  0
  -29.3717  -18.2693   19.0217 C   0  0  0  0  0  0
  -29.2620  -16.7068   19.1208 C   0  0  0  0  0  0
  -29.1315  -18.8335   20.4211 C   0  0  1  0  0  0
  -29.8449  -17.5514   21.2163 C   0  0  1  0  0  0
  -27.9133  -16.7688   22.7386 C   0  0  0  0  0  0
  -30.2954  -16.4386   23.4861 C   0  0  0  0  0  0
  -27.2880  -21.3137   27.3112 C   0  0  0  0  0  0
  -28.8645  -18.7189   24.9514 C   0  0  0  0  0  0
  -29.2882  -18.7457   23.4583 C   0  0  0  0  0  0
  -28.9856  -23.2581   20.4236 C   0  0  0  0  0  0
  -28.3235  -20.0804   25.4307 C   0  0  0  0  0  0
  -28.5263  -21.6163   20.3856 C   0  0  0  0  0  0
  -27.9529  -24.5906   20.2196 C   0  0  0  0  0  0
  -29.3392  -17.3772   22.7099 C   0  0  0  0  0  0
  -29.7308  -16.1915   20.4345 N   0  0  0  0  0  0
  -29.5094  -20.3794   20.6179 N   0  3  0  0  0  0
  -27.9369  -20.0681   26.8575 N   0  3  0  0  0  0
  -31.4802  -12.7970   19.1853 H   0  0  0  0  0  0
  -30.4650  -11.6716   20.0381 H   0  0  0  0  0  0
  -29.8629  -11.7294   17.6011 H   0  0  0  0  0  0
  -29.6088  -13.4560   17.6841 H   0  0  0  0  0  0
  -27.9800  -11.2642   19.0058 H   0  0  0  0  0  0
  -27.4010  -12.4083   17.8234 H   0  0  0  0  0  0
  -27.5894  -14.2396   19.4060 H   0  0  0  0  0  0
  -28.7824  -12.2629   21.4045 H   0  0  0  0  0  0
  -28.3741  -13.9060   21.7913 H   0  0  0  0  0  0
  -25.2744   -9.5698   22.4759 H   0  0  0  0  0  0
  -24.0024   -7.4631   22.7460 H   0  0  0  0  0  0
  -21.0843   -8.8757   19.8930 H   0  0  0  0  0  0
  -22.3692  -10.9658   19.6163 H   0  0  0  0  0  0
  -21.2025   -7.6142   23.9717 H   0  0  0  0  0  0
  -21.1473   -6.0505   25.9070 H   0  0  0  0  0  0
  -22.0594   -2.7603   23.2843 H   0  0  0  0  0  0
  -22.4038  -11.9929   22.4960 H   0  0  0  0  0  0
  -21.1015  -13.1231   22.2499 H   0  0  0  0  0  0
  -24.6307  -15.8342   20.5130 H   0  0  0  0  0  0
  -26.2572  -15.6404   20.0897 H   0  0  0  0  0  0
  -26.7284  -32.5289   23.1006 H   0  0  0  0  0  0
  -25.0083  -33.9602   25.0323 H   0  0  0  0  0  0
  -22.7536  -31.2862   21.3760 H   0  0  0  0  0  0
  -23.3763  -35.9577   23.3263 H   0  0  0  0  0  0
  -24.3591  -36.8929   22.2062 H   0  0  0  0  0  0
  -23.7229  -37.6430   23.6701 H   0  0  0  0  0  0
  -26.1586  -31.4698   20.6128 H   0  0  0  0  0  0
  -26.8761  -30.7689   22.0284 H   0  0  0  0  0  0
  -28.1345  -28.7934   21.2383 H   0  0  0  0  0  0
  -25.9072  -25.8329   19.0165 H   0  0  0  0  0  0
  -23.9810  -27.2913   18.9886 H   0  0  0  0  0  0
  -23.8167  -30.5615   19.3959 H   0  0  0  0  0  0
  -22.7923  -29.2312   19.8420 H   0  0  0  0  0  0
  -25.1310  -36.1858   25.0802 H   0  0  0  0  0  0
  -20.9999  -28.3339   24.1358 H   0  0  0  0  0  0
  -20.5704  -26.2361   23.3628 H   0  0  0  0  0  0
  -21.6662  -26.7457   22.1205 H   0  0  0  0  0  0
  -19.6938  -25.6298   21.1275 H   0  0  0  0  0  0
  -19.6712  -27.3184   20.6727 H   0  0  0  0  0  0
  -17.4226  -26.6706   21.4006 H   0  0  0  0  0  0
  -18.0328  -26.0091   22.9001 H   0  0  0  0  0  0
  -19.7947  -30.7312   24.2230 H   0  0  0  0  0  0
  -17.5021  -31.6274   24.5163 H   0  0  0  0  0  0
  -15.5366  -30.2984   23.7669 H   0  0  0  0  0  0
  -15.8699  -28.0821   22.7092 H   0  0  0  0  0  0
  -24.5934  -30.7048   25.7764 H   0  0  0  0  0  0
  -24.8894  -32.2915   26.4777 H   0  0  0  0  0  0
  -25.8035  -30.8981   27.0241 H   0  0  0  0  0  0
  -26.2973  -29.6656   24.1324 H   0  0  0  0  0  0
  -27.3959  -29.7225   25.4888 H   0  0  0  0  0  0
  -27.8905  -30.4119   23.9624 H   0  0  0  0  0  0
  -27.2689  -33.3629   26.2007 H   0  0  0  0  0  0
  -28.3940  -32.6780   25.0374 H   0  0  0  0  0  0
  -28.0673  -31.8458   26.5489 H   0  0  0  0  0  0
  -28.2569  -38.0112   24.7540 H   0  0  0  0  0  0
  -28.1117  -36.2642   24.6234 H   0  0  0  0  0  0
  -27.2318  -37.1372   25.8863 H   0  0  0  0  0  0
  -20.9489  -29.8757   21.6764 H   0  0  0  0  0  0
  -26.0152  -38.2807   24.1431 H   0  0  0  0  0  0
  -28.6793  -18.6846   18.2880 H   0  0  0  0  0  0
  -30.3784  -18.5347   18.6926 H   0  0  0  0  0  0
  -29.7966  -16.2420   18.2893 H   0  0  0  0  0  0
  -28.2150  -16.4275   19.0074 H   0  0  0  0  0  0
  -28.0589  -18.7712   20.6125 H   0  0  0  0  0  0
  -30.9132  -17.7661   21.2466 H   0  0  0  0  0  0
  -27.7862  -15.9372   22.0551 H   0  0  0  0  0  0
  -27.1452  -17.4973   22.4745 H   0  0  0  0  0  0
  -27.6509  -16.3762   23.7207 H   0  0  0  0  0  0
  -30.3260  -15.4296   23.0811 H   0  0  0  0  0  0
  -29.9985  -16.3235   24.5285 H   0  0  0  0  0  0
  -31.3165  -16.8237   23.4866 H   0  0  0  0  0  0
  -27.0429  -21.2491   28.3716 H   0  0  0  0  0  0
  -26.3637  -21.4988   26.7633 H   0  0  0  0  0  0
  -27.9458  -22.1717   27.1690 H   0  0  0  0  0  0
  -29.7151  -18.4175   25.5657 H   0  0  0  0  0  0
  -28.0889  -17.9761   25.1278 H   0  0  0  0  0  0
  -30.2568  -19.2400   23.3889 H   0  0  0  0  0  0
  -28.5758  -19.3932   22.9486 H   0  0  0  0  0  0
  -29.7629  -23.3748   19.6673 H   0  0  0  0  0  0
  -29.5027  -23.4181   21.3703 H   0  0  0  0  0  0
  -27.4503  -20.3539   24.8343 H   0  0  0  0  0  0
  -29.0704  -20.8585   25.2700 H   0  0  0  0  0  0
  -28.0307  -21.4387   19.4310 H   0  0  0  0  0  0
  -27.7393  -21.5053   21.1341 H   0  0  0  0  0  0
  -27.1666  -24.4584   20.9627 H   0  0  0  0  0  0
  -27.4675  -24.4068   19.2626 H   0  0  0  0  0  0
  -30.3281  -20.5462   20.0548 H   0  0  0  0  0  0
  -29.8258  -20.4714   21.5673 H   0  0  0  0  0  0
  -27.2995  -19.3066   27.0294 H   0  0  0  0  0  0
  -28.7570  -19.9130   27.4200 H   0  0  0  0  0  0
  1 25  1  0  0  0
  1 30  2  0  0  0
  1 85  1  0  0  0
  2  3  1  0  0  0
  2 25  1  0  0  0
  2 88  1  0  0  0
  2 89  1  0  0  0
  3  4  1  0  0  0
  3 90  1  0  0  0
  3 91  1  0  0  0
  4  5  1  0  0  0
  4 92  1  0  0  0
  4 93  1  0  0  0
  5  6  1  0  0  0
  5 26  1  0  0  0
  5 94  1  0  0  0
  6 25  1  0  0  0
  6 95  1  0  0  0
  6 96  1  0  0  0
  7  8  2  0  0  0
  7 26  1  0  0  0
  7 29  1  0  0  0
  8  9  1  0  0  0
  8 22  1  0  0  0
  9 10  1  0  0  0
  9 27  2  0  0  0
 10 11  2  0  0  0
 10 15  1  0  0  0
 11 12  1  0  0  0
 11 97  1  0  0  0
 12 13  2  0  0  0
 12 98  1  0  0  0
 13 14  1  0  0  0
 13 31  1  0  0  0
 14 15  2  0  0  0
 14 99  1  0  0  0
 15100  1  0  0  0
 16 17  2  0  0  0
 16 21  1  0  0  0
 16 31  1  0  0  0
 17 18  1  0  0  0
 17101  1  0  0  0
 18 19  2  0  0  0
 18102  1  0  0  0
 19 20  1  0  0  0
 19 24  1  0  0  0
 20 21  2  0  0  0
 20103  1  0  0  0
 21 23  1  0  0  0
 22 28  1  0  0  0
 22 32  2  0  0  0
 26 27  1  0  0  0
 28104  1  0  0  0
 28105  1  0  0  0
 29106  1  0  0  0
 29107  1  0  0  0
 33 34  1  0  0  0
 33 66  1  0  0  0
 33 70  2  0  0  0
 34 36  1  0  0  0
 34 59  1  0  0  0
 34108  1  0  0  0
 35 44  2  0  0  0
 35 45  1  0  0  0
 35 68  1  0  0  0
 36 56  1  0  0  0
 36109  1  0  0  0
 37 39  1  0  0  0
 37 47  1  0  0  0
 37 66  1  0  0  0
 37110  1  0  0  0
 38 43  2  0  0  0
 38 46  1  0  0  0
 38 47  1  0  0  0
 39 64  1  0  0  0
 39 67  2  0  0  0
 40 52  1  0  0  0
 40 53  2  0  0  0
 40 58  1  0  0  0
 41111  1  0  0  0
 41112  1  0  0  0
 41113  1  0  0  0
 41 48  1  0  0  0
 42 43  1  0  0  0
 42 66  1  0  0  0
 42114  1  0  0  0
 42115  1  0  0  0
 43 44  1  0  0  0
 44116  1  0  0  0
 45 46  2  0  0  0
 45117  1  0  0  0
 46118  1  0  0  0
 47119  1  0  0  0
 47120  1  0  0  0
 48 56  1  0  0  0
 48 65  1  0  0  0
 48121  1  0  0  0
 49 50  1  0  0  0
 49 53  1  0  0  0
 49 64  1  0  0  0
 49122  1  0  0  0
 50 51  1  0  0  0
 50123  1  0  0  0
 50124  1  0  0  0
 51 52  1  0  0  0
 51125  1  0  0  0
 51126  1  0  0  0
 52127  1  0  0  0
 52128  1  0  0  0
 53 54  1  0  0  0
 54 55  2  0  0  0
 54129  1  0  0  0
 55 57  1  0  0  0
 55130  1  0  0  0
 56 69  2  0  0  0
 57 58  2  0  0  0
 57131  1  0  0  0
 58132  1  0  0  0
 59 60  1  0  0  0
 59 61  1  0  0  0
 59 62  1  0  0  0
 60133  1  0  0  0
 60134  1  0  0  0
 60135  1  0  0  0
 61136  1  0  0  0
 61137  1  0  0  0
 61138  1  0  0  0
 62139  1  0  0  0
 62140  1  0  0  0
 62141  1  0  0  0
 63 65  1  0  0  0
 63142  1  0  0  0
 63143  1  0  0  0
 63144  1  0  0  0
 64145  1  0  0  0
 65146  1  0  0  0
 68 83  1  0  0  0
 71 72  1  0  0  0
 71 73  1  0  0  0
 71147  1  0  0  0
 71148  1  0  0  0
 72 85  1  0  0  0
 72149  1  0  0  0
 72150  1  0  0  0
 73 74  1  0  0  0
 73 86  1  0  0  0
 73151  1  0  0  0
 74 84  1  0  0  0
 74 85  1  0  0  0
 74152  1  0  0  0
 75153  1  0  0  0
 75154  1  0  0  0
 75155  1  0  0  0
 75 84  1  0  0  0
 76 84  1  0  0  0
 76156  1  0  0  0
 76157  1  0  0  0
 76158  1  0  0  0
 77 87  1  0  0  0
 77159  1  0  0  0
 77160  1  0  0  0
 77161  1  0  0  0
 78 79  1  0  0  0
 78 81  1  0  0  0
 78162  1  0  0  0
 78163  1  0  0  0
 79 84  1  0  0  0
 79164  1  0  0  0
 79165  1  0  0  0
 80 82  1  0  0  0
 80 83  1  0  0  0
 80166  1  0  0  0
 80167  1  0  0  0
 81 87  1  0  0  0
 81168  1  0  0  0
 81169  1  0  0  0
 82 86  1  0  0  0
 82170  1  0  0  0
 82171  1  0  0  0
 83172  1  0  0  0
 83173  1  0  0  0
 86174  1  0  0  0
 86175  1  0  0  0
 87176  1  0  0  0
 87177  1  0  0  0
M  CHG  2  86   1  87   1
M  ISO  4   1 100  68 101  83 101  85 100
M  END
> <chiral flag>
0

> <version>
0

> <s_m_source_file>
/data/baiqing/PycharmProjects/Reinvent-master-3.2/result/LINK_invent/BTK/process_docking_weight1_custom_sum_contain_oxygen_bond_distance_aromatic_linkinvent_7_9_3/rearranged_h_0105.sdf

> <i_m_source_file_index>
45

> <r_mmod_Potential_Energy-OPLS-2005>
475.542358398438

> <r_mmod_Stretch_Energy-OPLS-2005>
292.654205322266

> <r_mmod_Bend_Energy-OPLS-2005>
313.314849853516

> <r_mmod_Torsional_Energy-OPLS-2005>
384.843414306641

> <r_mmod_Improper_Torsional_Energy-OPLS-2005>
9.72891807556152

> <r_mmod_Van_der_Waal_Energy-OPLS-2005>
107.150215148926

> <r_mmod_Electrostatic_Energy-OPLS-2005>
86.1234588623047

> <r_mmod_Solvation_Energy-OPLS-2005>
-931.984924316406

> <b_mmod_Minimization_Converged-OPLS-2005>
0

> <r_mmod_RMS_Derivative-OPLS-2005>
3.96929383277893

$$$$
45
                    3D
 Structure written by MMmdl.
166174  0  0  1  0            999 V2000
  -30.6068  -14.7429   20.4578 C   0  0  0  0  0  0
  -30.4370  -12.4559   19.4693 C   0  0  0  0  0  0
  -29.5095  -12.4984   18.2347 C   0  0  0  0  0  0
  -28.0346  -12.3276   18.6517 C   0  0  0  0  0  0
  -27.6420  -13.2310   19.8501 C   0  0  2  0  0  0
  -28.6877  -13.1627   20.9819 C   0  0  0  0  0  0
  -25.2492  -13.8203   20.5674 C   0  0  0  0  0  0
  -24.1805  -13.0440   20.9231 C   0  0  0  0  0  0
  -24.6417  -11.6922   20.8826 C   0  0  0  0  0  0
  -23.9113  -10.4284   21.0462 C   0  0  0  0  0  0
  -24.3647   -9.4175   21.9219 C   0  0  0  0  0  0
  -23.6312   -8.2216   22.0766 C   0  0  0  0  0  0
  -22.4290   -8.0284   21.3551 C   0  0  0  0  0  0
  -21.9946   -9.0275   20.4656 C   0  0  0  0  0  0
  -22.7302  -10.2138   20.3089 C   0  0  0  0  0  0
  -21.6847   -6.0759   22.5290 C   0  0  0  0  0  0
  -21.4023   -6.5656   23.8238 C   0  0  0  0  0  0
  -21.3652   -5.6791   24.9181 C   0  0  0  0  0  0
  -21.6026   -4.3060   24.7221 C   0  0  0  0  0  0
  -21.8821   -3.8163   23.4344 C   0  0  0  0  0  0
  -21.9189   -4.6986   22.3408 C   0  0  0  0  0  0
  -22.7805  -13.5203   21.1868 C   0  0  0  0  0  0
  -22.1651   -4.2175   21.0978 F   0  0  0  0  0  0
  -21.5615   -3.4535   25.7736 F   0  0  0  0  0  0
  -29.9875  -13.5157   20.3983 N   0  0  0  0  0  0
  -26.2939  -12.9430   20.3309 N   0  0  0  0  0  0
  -25.9347  -11.6571   20.5821 N   0  0  0  0  0  0
  -22.0432  -12.8222   22.0427 N   0  0  0  0  0  0
  -25.4098  -15.1926   20.3963 N   0  0  0  0  0  0
  -31.7987  -14.8516   20.1634 O   0  0  0  0  0  0
  -21.6631   -6.8898   21.4258 O   0  0  0  0  0  0
  -22.3495  -14.5499   20.6682 O   0  0  0  0  0  0
  -24.6315  -31.8554   23.1988 C   0  0  0  0  0  0
  -25.9152  -32.4736   23.8329 C   0  0  1  0  0  0
  -27.2168  -27.2676   20.1369 C   0  0  0  0  0  0
  -25.5965  -33.8542   24.2271 N   0  0  0  0  0  0
  -23.4270  -30.4792   21.5390 C   0  0  2  0  0  0
  -24.8728  -28.9222   20.1132 C   0  0  0  0  0  0
  -22.7496  -29.4615   22.4891 C   0  0  0  0  0  0
  -18.0292  -28.1377   22.8469 C   0  0  0  0  0  0
  -24.1492  -36.7275   23.2633 C   0  0  0  0  0  0
  -25.9727  -30.7717   21.3746 C   0  0  0  0  0  0
  -26.0437  -29.3935   20.7207 C   0  0  0  0  0  0
  -27.2206  -28.5799   20.7174 C   0  0  0  0  0  0
  -26.0246  -26.8600   19.5021 C   0  0  0  0  0  0
  -24.8678  -27.6631   19.4920 C   0  0  0  0  0  0
  -23.6462  -29.8124   20.1546 C   0  0  0  0  0  0
  -25.4112  -36.3053   24.0329 C   0  0  1  0  0  0
  -20.5904  -28.3701   23.1254 C   0  0  2  0  0  0
  -20.6768  -26.9409   22.5411 C   0  0  0  0  0  0
  -19.5755  -26.6382   21.5197 C   0  0  0  0  0  0
  -18.1931  -26.7928   22.1596 C   0  0  0  0  0  0
  -19.1549  -28.8857   23.2857 C   0  0  0  0  0  0
  -18.9469  -30.1449   23.8886 C   0  0  0  0  0  0
  -17.6468  -30.6572   24.0565 C   0  0  0  0  0  0
  -25.9061  -34.9430   23.5095 C   0  0  0  0  0  0
  -16.5360  -29.9073   23.6323 C   0  0  0  0  0  0
  -16.7284  -28.6490   23.0342 C   0  0  0  0  0  0
  -26.4513  -31.6557   25.0722 C   0  0  0  0  0  0
  -25.3752  -31.3723   26.1459 C   0  0  0  0  0  0
  -27.0329  -30.2957   24.6210 C   0  0  0  0  0  0
  -27.6080  -32.4282   25.7500 C   0  0  0  0  0  0
  -27.5569  -37.1785   24.8461 C   0  0  0  0  0  0
  -21.4209  -29.3046   22.3633 N   0  0  0  0  0  0
  -26.4273  -37.3765   23.9415 N   0  0  0  0  0  0
  -24.6963  -31.0544   22.0936 N   0  0  0  0  0  0
  -23.4206  -28.8147   23.2971 O   0  0  0  0  0  0
  -28.3226  -26.3922   20.1487 O   0  0  0  0  0  0
  -26.5614  -34.8905   22.4651 O   0  0  0  0  0  0
  -23.5472  -32.1367   23.7288 O   0  0  0  0  0  0
  -28.4916  -21.7942   21.5792 C   0  0  0  0  0  0
  -29.2192  -21.0517   19.6469 C   0  0  0  0  0  0
  -28.8417  -22.2497   20.2715 C   0  0  0  0  0  0
  -28.6257  -20.4239   21.6904 C   0  0  0  0  0  0
  -26.7843  -19.1991   22.8604 C   0  0  0  0  0  0
  -28.6742  -20.1839   24.2025 C   0  0  0  0  0  0
  -28.9254  -23.4133   17.2169 C   0  0  0  0  0  0
  -29.1145  -18.4240   20.0544 C   0  0  0  0  0  0
  -30.1812  -17.3566   20.6410 C   0  0  0  0  0  0
  -28.1462  -24.9586   20.5792 C   0  0  0  0  0  0
  -28.7948  -23.7564   19.7091 C   0  0  2  0  0  0
  -28.2772  -19.5498   22.8602 C   0  0  0  0  0  0
  -29.0541  -19.9037   20.4674 N   0  0  0  0  0  0
  -29.8177  -15.8659   20.6372 N   0  0  0  0  0  0
  -28.1123  -23.7776   18.3956 N   0  3  0  0  0  0
  -31.4755  -12.5914   19.1629 H   0  0  0  0  0  0
  -30.3930  -11.4822   19.9613 H   0  0  0  0  0  0
  -29.7934  -11.7141   17.5322 H   0  0  0  0  0  0
  -29.6340  -13.4442   17.7028 H   0  0  0  0  0  0
  -27.8859  -11.2828   18.9250 H   0  0  0  0  0  0
  -27.3798  -12.5163   17.8001 H   0  0  0  0  0  0
  -27.6366  -14.2517   19.4676 H   0  0  0  0  0  0
  -28.7253  -12.1637   21.4209 H   0  0  0  0  0  0
  -28.4241  -13.8473   21.7893 H   0  0  0  0  0  0
  -25.2782   -9.5633   22.4809 H   0  0  0  0  0  0
  -24.0009   -7.4594   22.7482 H   0  0  0  0  0  0
  -21.0878   -8.8841   19.8954 H   0  0  0  0  0  0
  -22.3803  -10.9708   19.6207 H   0  0  0  0  0  0
  -21.2036   -7.6160   23.9767 H   0  0  0  0  0  0
  -21.1462   -6.0499   25.9084 H   0  0  0  0  0  0
  -22.0608   -2.7634   23.2839 H   0  0  0  0  0  0
  -22.4009  -11.9884   22.4842 H   0  0  0  0  0  0
  -21.1052  -13.1289   22.2609 H   0  0  0  0  0  0
  -24.6206  -15.8267   20.4567 H   0  0  0  0  0  0
  -26.2250  -15.6197   19.9766 H   0  0  0  0  0  0
  -26.7230  -32.5388   23.1075 H   0  0  0  0  0  0
  -25.0167  -33.9685   25.0450 H   0  0  0  0  0  0
  -22.7242  -31.3029   21.3909 H   0  0  0  0  0  0
  -23.3755  -35.9603   23.3277 H   0  0  0  0  0  0
  -24.3598  -36.8914   22.2053 H   0  0  0  0  0  0
  -23.7243  -37.6471   23.6667 H   0  0  0  0  0  0
  -26.1119  -31.5311   20.6035 H   0  0  0  0  0  0
  -26.8499  -30.8213   22.0066 H   0  0  0  0  0  0
  -28.1198  -28.9366   21.1985 H   0  0  0  0  0  0
  -25.9682  -25.8991   19.0139 H   0  0  0  0  0  0
  -23.9724  -27.3018   19.0043 H   0  0  0  0  0  0
  -23.7780  -30.5888   19.4002 H   0  0  0  0  0  0
  -22.7629  -29.2506   19.8443 H   0  0  0  0  0  0
  -25.1281  -36.1888   25.0821 H   0  0  0  0  0  0
  -21.0000  -28.3274   24.1370 H   0  0  0  0  0  0
  -20.5623  -26.2310   23.3621 H   0  0  0  0  0  0
  -21.6641  -26.7394   22.1234 H   0  0  0  0  0  0
  -19.6919  -25.6291   21.1221 H   0  0  0  0  0  0
  -19.6697  -27.3188   20.6732 H   0  0  0  0  0  0
  -17.4204  -26.6697   21.3984 H   0  0  0  0  0  0
  -18.0310  -26.0057   22.8982 H   0  0  0  0  0  0
  -19.7954  -30.7263   24.2242 H   0  0  0  0  0  0
  -17.5029  -31.6245   24.5175 H   0  0  0  0  0  0
  -15.5359  -30.2968   23.7661 H   0  0  0  0  0  0
  -15.8689  -28.0811   22.7054 H   0  0  0  0  0  0
  -24.6029  -30.6908   25.7873 H   0  0  0  0  0  0
  -24.8812  -32.2879   26.4735 H   0  0  0  0  0  0
  -25.8124  -30.9105   27.0325 H   0  0  0  0  0  0
  -26.2896  -29.6711   24.1241 H   0  0  0  0  0  0
  -27.3995  -29.7205   25.4727 H   0  0  0  0  0  0
  -27.8791  -30.4197   23.9444 H   0  0  0  0  0  0
  -27.2722  -33.3638   26.1978 H   0  0  0  0  0  0
  -28.3949  -32.6732   25.0356 H   0  0  0  0  0  0
  -28.0658  -31.8448   26.5490 H   0  0  0  0  0  0
  -28.2571  -38.0095   24.7510 H   0  0  0  0  0  0
  -28.1073  -36.2624   24.6266 H   0  0  0  0  0  0
  -27.2295  -37.1414   25.8867 H   0  0  0  0  0  0
  -20.9381  -29.8810   21.6885 H   0  0  0  0  0  0
  -26.0139  -38.2826   24.1449 H   0  0  0  0  0  0
  -28.1334  -22.4182   22.3868 H   0  0  0  0  0  0
  -29.5591  -20.8837   18.6346 H   0  0  0  0  0  0
  -26.4840  -18.7238   21.9265 H   0  0  0  0  0  0
  -26.1755  -20.0945   22.9844 H   0  0  0  0  0  0
  -26.5395  -18.5142   23.6721 H   0  0  0  0  0  0
  -29.7406  -20.4075   24.2351 H   0  0  0  0  0  0
  -28.4608  -19.5099   25.0316 H   0  0  0  0  0  0
  -28.1323  -21.1117   24.3874 H   0  0  0  0  0  0
  -28.4125  -23.7296   16.3091 H   0  0  0  0  0  0
  -29.0765  -22.3397   17.1394 H   0  0  0  0  0  0
  -29.8992  -23.9021   17.2281 H   0  0  0  0  0  0
  -28.1200  -18.0244   20.2498 H   0  0  0  0  0  0
  -29.1979  -18.4038   18.9664 H   0  0  0  0  0  0
  -31.1124  -17.4857   20.0849 H   0  0  0  0  0  0
  -30.4306  -17.6177   21.6672 H   0  0  0  0  0  0
  -28.5885  -24.9057   21.5749 H   0  0  0  0  0  0
  -27.0916  -24.7406   20.7498 H   0  0  0  0  0  0
  -29.8362  -24.0465   19.5597 H   0  0  0  0  0  0
  -28.8272  -18.6145   22.7876 H   0  0  0  0  0  0
  -28.8462  -15.6590   20.8130 H   0  0  0  0  0  0
  -27.2849  -23.2029   18.4343 H   0  0  0  0  0  0
  -27.8164  -24.7282   18.2428 H   0  0  0  0  0  0
  1 25  1  0  0  0
  1 30  2  0  0  0
  1 84  1  0  0  0
  2  3  1  0  0  0
  2 25  1  0  0  0
  2 86  1  0  0  0
  2 87  1  0  0  0
  3  4  1  0  0  0
  3 88  1  0  0  0
  3 89  1  0  0  0
  4  5  1  0  0  0
  4 90  1  0  0  0
  4 91  1  0  0  0
  5  6  1  0  0  0
  5 26  1  0  0  0
  5 92  1  0  0  0
  6 25  1  0  0  0
  6 93  1  0  0  0
  6 94  1  0  0  0
  7  8  2  0  0  0
  7 26  1  0  0  0
  7 29  1  0  0  0
  8  9  1  0  0  0
  8 22  1  0  0  0
  9 10  1  0  0  0
  9 27  2  0  0  0
 10 11  2  0  0  0
 10 15  1  0  0  0
 11 12  1  0  0  0
 11 95  1  0  0  0
 12 13  2  0  0  0
 12 96  1  0  0  0
 13 14  1  0  0  0
 13 31  1  0  0  0
 14 15  2  0  0  0
 14 97  1  0  0  0
 15 98  1  0  0  0
 16 17  2  0  0  0
 16 21  1  0  0  0
 16 31  1  0  0  0
 17 18  1  0  0  0
 17 99  1  0  0  0
 18 19  2  0  0  0
 18100  1  0  0  0
 19 20  1  0  0  0
 19 24  1  0  0  0
 20 21  2  0  0  0
 20101  1  0  0  0
 21 23  1  0  0  0
 22 28  1  0  0  0
 22 32  2  0  0  0
 26 27  1  0  0  0
 28102  1  0  0  0
 28103  1  0  0  0
 29104  1  0  0  0
 29105  1  0  0  0
 33 34  1  0  0  0
 33 66  1  0  0  0
 33 70  2  0  0  0
 34 36  1  0  0  0
 34 59  1  0  0  0
 34106  1  0  0  0
 35 44  2  0  0  0
 35 45  1  0  0  0
 35 68  1  0  0  0
 36 56  1  0  0  0
 36107  1  0  0  0
 37 39  1  0  0  0
 37 47  1  0  0  0
 37 66  1  0  0  0
 37108  1  0  0  0
 38 43  2  0  0  0
 38 46  1  0  0  0
 38 47  1  0  0  0
 39 64  1  0  0  0
 39 67  2  0  0  0
 40 52  1  0  0  0
 40 53  2  0  0  0
 40 58  1  0  0  0
 41109  1  0  0  0
 41110  1  0  0  0
 41111  1  0  0  0
 41 48  1  0  0  0
 42 43  1  0  0  0
 42 66  1  0  0  0
 42112  1  0  0  0
 42113  1  0  0  0
 43 44  1  0  0  0
 44114  1  0  0  0
 45 46  2  0  0  0
 45115  1  0  0  0
 46116  1  0  0  0
 47117  1  0  0  0
 47118  1  0  0  0
 48 56  1  0  0  0
 48 65  1  0  0  0
 48119  1  0  0  0
 49 50  1  0  0  0
 49 53  1  0  0  0
 49 64  1  0  0  0
 49120  1  0  0  0
 50 51  1  0  0  0
 50121  1  0  0  0
 50122  1  0  0  0
 51 52  1  0  0  0
 51123  1  0  0  0
 51124  1  0  0  0
 52125  1  0  0  0
 52126  1  0  0  0
 53 54  1  0  0  0
 54 55  2  0  0  0
 54127  1  0  0  0
 55 57  1  0  0  0
 55128  1  0  0  0
 56 69  2  0  0  0
 57 58  2  0  0  0
 57129  1  0  0  0
 58130  1  0  0  0
 59 60  1  0  0  0
 59 61  1  0  0  0
 59 62  1  0  0  0
 60131  1  0  0  0
 60132  1  0  0  0
 60133  1  0  0  0
 61134  1  0  0  0
 61135  1  0  0  0
 61136  1  0  0  0
 62137  1  0  0  0
 62138  1  0  0  0
 62139  1  0  0  0
 63 65  1  0  0  0
 63140  1  0  0  0
 63141  1  0  0  0
 63142  1  0  0  0
 64143  1  0  0  0
 65144  1  0  0  0
 68 80  1  0  0  0
 71 73  1  0  0  0
 71 74  2  0  0  0
 71145  1  0  0  0
 72 73  2  0  0  0
 72 83  1  0  0  0
 72146  1  0  0  0
 73 81  1  0  0  0
 74 82  1  0  0  0
 74 83  1  0  0  0
 75147  1  0  0  0
 75148  1  0  0  0
 75149  1  0  0  0
 75 82  1  0  0  0
 76 82  1  0  0  0
 76150  1  0  0  0
 76151  1  0  0  0
 76152  1  0  0  0
 77 85  1  0  0  0
 77153  1  0  0  0
 77154  1  0  0  0
 77155  1  0  0  0
 78 79  1  0  0  0
 78 83  1  0  0  0
 78156  1  0  0  0
 78157  1  0  0  0
 79 84  1  0  0  0
 79158  1  0  0  0
 79159  1  0  0  0
 80160  1  0  0  0
 80161  1  0  0  0
 80 81  1  0  0  0
 81 85  1  0  0  0
 81162  1  0  0  0
 82163  1  0  0  0
 84164  1  0  0  0
 85165  1  0  0  0
 85166  1  0  0  0
M  CHG  1  85   1
M  ISO  4   1 100  68 101  80 101  84 100
M  END
> <chiral flag>
0

> <version>
0

> <s_m_source_file>
/data/baiqing/PycharmProjects/Reinvent-master-3.2/result/LINK_invent/BTK/process_docking_weight1_custom_sum_contain_oxygen_bond_distance_aromatic_linkinvent_7_9_3/rearranged_h_0105.sdf

> <i_m_source_file_index>
46

> <r_mmod_Potential_Energy-OPLS-2005>
-44.2237396240234

> <r_mmod_Stretch_Energy-OPLS-2005>
120.191040039062

> <r_mmod_Bend_Energy-OPLS-2005>
168.494934082031

> <r_mmod_Torsional_Energy-OPLS-2005>
249.176696777344

> <r_mmod_Improper_Torsional_Energy-OPLS-2005>
6.63174247741699

> <r_mmod_Van_der_Waal_Energy-OPLS-2005>
108.362243652344

> <r_mmod_Electrostatic_Energy-OPLS-2005>
-337.896881103516

> <r_mmod_Solvation_Energy-OPLS-2005>
-441.600006103516

> <b_mmod_Minimization_Converged-OPLS-2005>
0

> <r_mmod_RMS_Derivative-OPLS-2005>
2.80542206764221

$$$$
46
                    3D
 Structure written by MMmdl.
172180  0  0  1  0            999 V2000
  -30.6639  -14.5090   20.5346 C   0  0  0  0  0  0
  -30.4311  -12.3193   19.4273 C   0  0  0  0  0  0
  -29.4986  -12.4931   18.2092 C   0  0  0  0  0  0
  -28.0209  -12.3509   18.6266 C   0  0  0  0  0  0
  -27.6622  -13.2013   19.8735 C   0  0  2  0  0  0
  -28.7042  -12.9961   20.9980 C   0  0  0  0  0  0
  -25.2616  -13.8140   20.5689 C   0  0  0  0  0  0
  -24.1863  -13.0439   20.9190 C   0  0  0  0  0  0
  -24.6390  -11.6893   20.8735 C   0  0  0  0  0  0
  -23.9023  -10.4296   21.0411 C   0  0  0  0  0  0
  -24.3585   -9.4217   21.9184 C   0  0  0  0  0  0
  -23.6281   -8.2242   22.0759 C   0  0  0  0  0  0
  -22.4258   -8.0265   21.3547 C   0  0  0  0  0  0
  -21.9875   -9.0232   20.4649 C   0  0  0  0  0  0
  -22.7192  -10.2122   20.3072 C   0  0  0  0  0  0
  -21.6842   -6.0721   22.5268 C   0  0  0  0  0  0
  -21.4002   -6.5634   23.8201 C   0  0  0  0  0  0
  -21.3672   -5.6798   24.9174 C   0  0  0  0  0  0
  -21.6062   -4.3059   24.7221 C   0  0  0  0  0  0
  -21.8822   -3.8138   23.4343 C   0  0  0  0  0  0
  -21.9204   -4.6954   22.3403 C   0  0  0  0  0  0
  -22.7898  -13.5238   21.1855 C   0  0  0  0  0  0
  -22.1676   -4.2145   21.0973 F   0  0  0  0  0  0
  -21.5652   -3.4542   25.7730 F   0  0  0  0  0  0
  -30.0285  -13.3094   20.4400 N   0  0  0  0  0  0
  -26.3032  -12.9300   20.3361 N   0  0  0  0  0  0
  -25.9312  -11.6466   20.5761 N   0  0  0  0  0  0
  -22.0542  -12.8238   22.0414 N   0  0  0  0  0  0
  -25.4388  -15.1848   20.4074 N   0  0  0  0  0  0
  -31.8087  -14.6942   20.1127 O   0  0  0  0  0  0
  -21.6651   -6.8841   21.4221 O   0  0  0  0  0  0
  -22.3587  -14.5559   20.6711 O   0  0  0  0  0  0
  -24.6150  -31.8655   23.2081 C   0  0  0  0  0  0
  -25.9037  -32.4813   23.8377 C   0  0  1  0  0  0
  -27.2344  -27.4172   20.1140 C   0  0  0  0  0  0
  -25.5883  -33.8612   24.2317 N   0  0  0  0  0  0
  -23.4049  -30.4879   21.5462 C   0  0  2  0  0  0
  -24.8539  -28.9475   20.1176 C   0  0  0  0  0  0
  -22.7418  -29.4649   22.4962 C   0  0  0  0  0  0
  -18.0278  -28.1380   22.8491 C   0  0  0  0  0  0
  -24.1488  -36.7310   23.2640 C   0  0  0  0  0  0
  -25.9338  -30.8318   21.3597 C   0  0  0  0  0  0
  -26.0139  -29.4621   20.7115 C   0  0  0  0  0  0
  -27.2125  -28.7073   20.6983 C   0  0  0  0  0  0
  -26.0609  -26.9164   19.5175 C   0  0  0  0  0  0
  -24.8745  -27.6771   19.5126 C   0  0  0  0  0  0
  -23.6159  -29.8168   20.1619 C   0  0  0  0  0  0
  -25.4109  -36.3101   24.0339 C   0  0  1  0  0  0
  -20.5872  -28.3671   23.1315 C   0  0  2  0  0  0
  -20.6774  -26.9410   22.5411 C   0  0  0  0  0  0
  -19.5750  -26.6393   21.5209 C   0  0  0  0  0  0
  -18.1927  -26.7931   22.1619 C   0  0  0  0  0  0
  -19.1527  -28.8838   23.2900 C   0  0  0  0  0  0
  -18.9455  -30.1446   23.8912 C   0  0  0  0  0  0
  -17.6455  -30.6587   24.0564 C   0  0  0  0  0  0
  -25.9029  -34.9470   23.5132 C   0  0  0  0  0  0
  -16.5349  -29.9093   23.6319 C   0  0  0  0  0  0
  -16.7265  -28.6509   23.0341 C   0  0  0  0  0  0
  -26.4474  -31.6591   25.0707 C   0  0  0  0  0  0
  -25.3746  -31.3705   26.1463 C   0  0  0  0  0  0
  -27.0291  -30.3032   24.6075 C   0  0  0  0  0  0
  -27.6054  -32.4310   25.7456 C   0  0  0  0  0  0
  -27.5585  -37.1809   24.8469 C   0  0  0  0  0  0
  -21.4142  -29.3040   22.3716 N   0  0  0  0  0  0
  -26.4296  -37.3786   23.9413 N   0  0  0  0  0  0
  -24.6697  -31.0762   22.0968 N   0  0  0  0  0  0
  -23.4196  -28.8192   23.2999 O   0  0  0  0  0  0
  -28.3923  -26.6695   20.0796 O   0  0  0  0  0  0
  -26.5593  -34.8919   22.4693 O   0  0  0  0  0  0
  -23.5341  -32.1388   23.7484 O   0  0  0  0  0  0
  -29.0445  -20.4893   21.1316 C   0  0  0  0  0  0
  -29.1208  -19.3608   20.3521 C   0  0  0  0  0  0
  -29.3318  -19.8247   19.0123 C   0  0  0  0  0  0
  -29.4642  -21.1976   19.0577 C   0  0  0  0  0  0
  -29.7964  -22.1664   17.9653 C   0  0  0  0  0  0
  -30.8386  -18.7463   17.2706 C   0  0  0  0  0  0
  -27.2902  -18.2374   16.4894 C   0  0  0  0  0  0
  -28.9243  -19.7555   15.3312 C   0  0  0  0  0  0
  -28.9434  -17.9064   20.8230 C   0  0  0  0  0  0
  -28.4769  -24.1347   20.1287 C   0  0  0  0  0  0
  -29.2494  -23.0095   20.8985 C   0  0  0  0  0  0
  -30.1863  -16.9726   20.6790 C   0  0  0  0  0  0
  -28.4258  -25.4848   20.9032 C   0  0  0  0  0  0
  -29.3927  -18.9354   17.7763 C   0  0  2  0  0  0
  -28.3399  -19.3423   16.6965 C   0  0  0  0  0  0
  -29.2163  -21.6291   20.3564 N   0  0  0  0  0  0
  -29.8862  -15.5447   20.9165 N   0  0  0  0  0  0
  -31.4732  -12.4359   19.1226 H   0  0  0  0  0  0
  -30.3516  -11.3108   19.8338 H   0  0  0  0  0  0
  -29.7446  -11.7586   17.4386 H   0  0  0  0  0  0
  -29.6592  -13.4736   17.7579 H   0  0  0  0  0  0
  -27.8423  -11.2966   18.8404 H   0  0  0  0  0  0
  -27.3656  -12.6082   17.7946 H   0  0  0  0  0  0
  -27.7008  -14.2442   19.5589 H   0  0  0  0  0  0
  -28.6887  -11.9658   21.3566 H   0  0  0  0  0  0
  -28.4663  -13.6046   21.8713 H   0  0  0  0  0  0
  -25.2734   -9.5727   22.4741 H   0  0  0  0  0  0
  -24.0025   -7.4638   22.7473 H   0  0  0  0  0  0
  -21.0819   -8.8731   19.8925 H   0  0  0  0  0  0
  -22.3645  -10.9662   19.6185 H   0  0  0  0  0  0
  -21.1961   -7.6137   23.9706 H   0  0  0  0  0  0
  -21.1507   -6.0523   25.9080 H   0  0  0  0  0  0
  -22.0586   -2.7596   23.2854 H   0  0  0  0  0  0
  -22.4130  -11.9860   22.4766 H   0  0  0  0  0  0
  -21.1167  -13.1289   22.2596 H   0  0  0  0  0  0
  -24.6741  -15.8426   20.5094 H   0  0  0  0  0  0
  -26.2821  -15.6098   20.0444 H   0  0  0  0  0  0
  -26.7117  -32.5536   23.1142 H   0  0  0  0  0  0
  -25.0042  -33.9773   25.0475 H   0  0  0  0  0  0
  -22.6934  -31.3044   21.4050 H   0  0  0  0  0  0
  -23.3755  -35.9640   23.3301 H   0  0  0  0  0  0
  -24.3589  -36.8925   22.2055 H   0  0  0  0  0  0
  -23.7237  -37.6512   23.6658 H   0  0  0  0  0  0
  -26.0445  -31.5992   20.5912 H   0  0  0  0  0  0
  -26.8229  -30.8882   21.9763 H   0  0  0  0  0  0
  -28.1117  -29.1091   21.1433 H   0  0  0  0  0  0
  -26.0695  -25.9407   19.0504 H   0  0  0  0  0  0
  -23.9856  -27.2802   19.0427 H   0  0  0  0  0  0
  -23.7219  -30.5891   19.3991 H   0  0  0  0  0  0
  -22.7421  -29.2324   19.8682 H   0  0  0  0  0  0
  -25.1287  -36.1955   25.0832 H   0  0  0  0  0  0
  -20.9967  -28.3237   24.1432 H   0  0  0  0  0  0
  -20.5662  -26.2282   23.3599 H   0  0  0  0  0  0
  -21.6651  -26.7431   22.1214 H   0  0  0  0  0  0
  -19.6909  -25.6303   21.1239 H   0  0  0  0  0  0
  -19.6701  -27.3214   20.6752 H   0  0  0  0  0  0
  -17.4198  -26.6683   21.4018 H   0  0  0  0  0  0
  -18.0317  -26.0064   22.8998 H   0  0  0  0  0  0
  -19.7925  -30.7256   24.2307 H   0  0  0  0  0  0
  -17.5008  -31.6267   24.5168 H   0  0  0  0  0  0
  -15.5353  -30.2997   23.7642 H   0  0  0  0  0  0
  -15.8663  -28.0837   22.7048 H   0  0  0  0  0  0
  -24.5899  -30.7073   25.7810 H   0  0  0  0  0  0
  -24.8966  -32.2865   26.4934 H   0  0  0  0  0  0
  -25.8099  -30.8847   27.0201 H   0  0  0  0  0  0
  -26.2815  -29.6788   24.1170 H   0  0  0  0  0  0
  -27.4111  -29.7270   25.4510 H   0  0  0  0  0  0
  -27.8628  -30.4366   23.9182 H   0  0  0  0  0  0
  -27.2690  -33.3620   26.2032 H   0  0  0  0  0  0
  -28.3853  -32.6851   25.0268 H   0  0  0  0  0  0
  -28.0724  -31.8426   26.5360 H   0  0  0  0  0  0
  -28.2610  -38.0096   24.7491 H   0  0  0  0  0  0
  -28.1068  -36.2623   24.6316 H   0  0  0  0  0  0
  -27.2299  -37.1482   25.8871 H   0  0  0  0  0  0
  -20.9304  -29.8758   21.6936 H   0  0  0  0  0  0
  -26.0179  -38.2866   24.1402 H   0  0  0  0  0  0
  -28.8787  -20.5816   22.1985 H   0  0  0  0  0  0
  -28.8910  -22.6250   17.5678 H   0  0  0  0  0  0
  -30.3134  -21.6809   17.1449 H   0  0  0  0  0  0
  -30.4728  -22.9479   18.3128 H   0  0  0  0  0  0
  -31.4982  -18.4052   18.0685 H   0  0  0  0  0  0
  -31.2719  -19.6612   16.8742 H   0  0  0  0  0  0
  -30.8772  -17.9937   16.4838 H   0  0  0  0  0  0
  -26.5485  -18.5305   15.7465 H   0  0  0  0  0  0
  -26.7483  -18.0256   17.4124 H   0  0  0  0  0  0
  -27.7550  -17.3102   16.1501 H   0  0  0  0  0  0
  -28.1352  -20.0637   14.6456 H   0  0  0  0  0  0
  -29.4642  -18.9358   14.8585 H   0  0  0  0  0  0
  -29.6020  -20.6020   15.4113 H   0  0  0  0  0  0
  -28.1020  -17.4876   20.2692 H   0  0  0  0  0  0
  -28.6279  -17.9193   21.8665 H   0  0  0  0  0  0
  -27.4626  -23.8081   19.8971 H   0  0  0  0  0  0
  -28.9558  -24.3335   19.1740 H   0  0  0  0  0  0
  -28.8684  -22.9738   21.9197 H   0  0  0  0  0  0
  -30.2974  -23.2940   20.9929 H   0  0  0  0  0  0
  -30.5831  -17.0591   19.6695 H   0  0  0  0  0  0
  -30.9833  -17.2929   21.3519 H   0  0  0  0  0  0
  -29.3341  -25.5764   21.4986 H   0  0  0  0  0  0
  -27.6092  -25.4736   21.6277 H   0  0  0  0  0  0
  -29.0927  -17.9471   18.1247 H   0  0  0  0  0  0
  -27.7900  -20.2071   17.0710 H   0  0  0  0  0  0
  -28.9599  -15.3108   21.2395 H   0  0  0  0  0  0
  1 25  1  0  0  0
  1 30  2  0  0  0
  1 87  1  0  0  0
  2  3  1  0  0  0
  2 25  1  0  0  0
  2 88  1  0  0  0
  2 89  1  0  0  0
  3  4  1  0  0  0
  3 90  1  0  0  0
  3 91  1  0  0  0
  4  5  1  0  0  0
  4 92  1  0  0  0
  4 93  1  0  0  0
  5  6  1  0  0  0
  5 26  1  0  0  0
  5 94  1  0  0  0
  6 25  1  0  0  0
  6 95  1  0  0  0
  6 96  1  0  0  0
  7  8  2  0  0  0
  7 26  1  0  0  0
  7 29  1  0  0  0
  8  9  1  0  0  0
  8 22  1  0  0  0
  9 10  1  0  0  0
  9 27  2  0  0  0
 10 11  2  0  0  0
 10 15  1  0  0  0
 11 12  1  0  0  0
 11 97  1  0  0  0
 12 13  2  0  0  0
 12 98  1  0  0  0
 13 14  1  0  0  0
 13 31  1  0  0  0
 14 15  2  0  0  0
 14 99  1  0  0  0
 15100  1  0  0  0
 16 17  2  0  0  0
 16 21  1  0  0  0
 16 31  1  0  0  0
 17 18  1  0  0  0
 17101  1  0  0  0
 18 19  2  0  0  0
 18102  1  0  0  0
 19 20  1  0  0  0
 19 24  1  0  0  0
 20 21  2  0  0  0
 20103  1  0  0  0
 21 23  1  0  0  0
 22 28  1  0  0  0
 22 32  2  0  0  0
 26 27  1  0  0  0
 28104  1  0  0  0
 28105  1  0  0  0
 29106  1  0  0  0
 29107  1  0  0  0
 33 34  1  0  0  0
 33 66  1  0  0  0
 33 70  2  0  0  0
 34 36  1  0  0  0
 34 59  1  0  0  0
 34108  1  0  0  0
 35 44  2  0  0  0
 35 45  1  0  0  0
 35 68  1  0  0  0
 36 56  1  0  0  0
 36109  1  0  0  0
 37 39  1  0  0  0
 37 47  1  0  0  0
 37 66  1  0  0  0
 37110  1  0  0  0
 38 43  2  0  0  0
 38 46  1  0  0  0
 38 47  1  0  0  0
 39 64  1  0  0  0
 39 67  2  0  0  0
 40 52  1  0  0  0
 40 53  2  0  0  0
 40 58  1  0  0  0
 41111  1  0  0  0
 41112  1  0  0  0
 41113  1  0  0  0
 41 48  1  0  0  0
 42 43  1  0  0  0
 42 66  1  0  0  0
 42114  1  0  0  0
 42115  1  0  0  0
 43 44  1  0  0  0
 44116  1  0  0  0
 45 46  2  0  0  0
 45117  1  0  0  0
 46118  1  0  0  0
 47119  1  0  0  0
 47120  1  0  0  0
 48 56  1  0  0  0
 48 65  1  0  0  0
 48121  1  0  0  0
 49 50  1  0  0  0
 49 53  1  0  0  0
 49 64  1  0  0  0
 49122  1  0  0  0
 50 51  1  0  0  0
 50123  1  0  0  0
 50124  1  0  0  0
 51 52  1  0  0  0
 51125  1  0  0  0
 51126  1  0  0  0
 52127  1  0  0  0
 52128  1  0  0  0
 53 54  1  0  0  0
 54 55  2  0  0  0
 54129  1  0  0  0
 55 57  1  0  0  0
 55130  1  0  0  0
 56 69  2  0  0  0
 57 58  2  0  0  0
 57131  1  0  0  0
 58132  1  0  0  0
 59 60  1  0  0  0
 59 61  1  0  0  0
 59 62  1  0  0  0
 60133  1  0  0  0
 60134  1  0  0  0
 60135  1  0  0  0
 61136  1  0  0  0
 61137  1  0  0  0
 61138  1  0  0  0
 62139  1  0  0  0
 62140  1  0  0  0
 62141  1  0  0  0
 63 65  1  0  0  0
 63142  1  0  0  0
 63143  1  0  0  0
 63144  1  0  0  0
 64145  1  0  0  0
 65146  1  0  0  0
 68 83  1  0  0  0
 71 72  2  0  0  0
 71 86  1  0  0  0
 71147  1  0  0  0
 72 73  1  0  0  0
 72 79  1  0  0  0
 73 74  2  0  0  0
 73 84  1  0  0  0
 74 75  1  0  0  0
 74 86  1  0  0  0
 75148  1  0  0  0
 75149  1  0  0  0
 75150  1  0  0  0
 76151  1  0  0  0
 76152  1  0  0  0
 76153  1  0  0  0
 76 84  1  0  0  0
 77154  1  0  0  0
 77155  1  0  0  0
 77156  1  0  0  0
 77 85  1  0  0  0
 78 85  1  0  0  0
 78157  1  0  0  0
 78158  1  0  0  0
 78159  1  0  0  0
 79 82  1  0  0  0
 79160  1  0  0  0
 79161  1  0  0  0
 80 81  1  0  0  0
 80 83  1  0  0  0
 80162  1  0  0  0
 80163  1  0  0  0
 81 86  1  0  0  0
 81164  1  0  0  0
 81165  1  0  0  0
 82 87  1  0  0  0
 82166  1  0  0  0
 82167  1  0  0  0
 83168  1  0  0  0
 83169  1  0  0  0
 84 85  1  0  0  0
 84170  1  0  0  0
 85171  1  0  0  0
 87172  1  0  0  0
M  ISO  4   1 100  68 101  83 101  87 100
M  END
> <chiral flag>
0

> <version>
0

> <s_m_source_file>
/data/baiqing/PycharmProjects/Reinvent-master-3.2/result/LINK_invent/BTK/process_docking_weight1_custom_sum_contain_oxygen_bond_distance_aromatic_linkinvent_7_9_3/rearranged_h_0105.sdf

> <i_m_source_file_index>
47

> <r_mmod_Potential_Energy-OPLS-2005>
-80.589714050293

> <r_mmod_Stretch_Energy-OPLS-2005>
44.2643203735352

> <r_mmod_Bend_Energy-OPLS-2005>
112.065086364746

> <r_mmod_Torsional_Energy-OPLS-2005>
257.335815429688

> <r_mmod_Improper_Torsional_Energy-OPLS-2005>
5.96813106536865

> <r_mmod_Van_der_Waal_Energy-OPLS-2005>
122.290412902832

> <r_mmod_Electrostatic_Energy-OPLS-2005>
-433.710479736328

> <r_mmod_Solvation_Energy-OPLS-2005>
-205.054382324219

> <b_mmod_Minimization_Converged-OPLS-2005>
0

> <r_mmod_RMS_Derivative-OPLS-2005>
2.95173382759094

$$$$
47
                    3D
 Structure written by MMmdl.
160169  0  0  1  0            999 V2000
  -30.7203  -14.6124   20.4882 C   0  0  0  0  0  0
  -30.4099  -12.3771   19.4682 C   0  0  0  0  0  0
  -29.4931  -12.4927   18.2346 C   0  0  0  0  0  0
  -28.0216  -12.3334   18.6549 C   0  0  0  0  0  0
  -27.6450  -13.2340   19.8629 C   0  0  2  0  0  0
  -28.6942  -13.1534   20.9956 C   0  0  0  0  0  0
  -25.2510  -13.8227   20.5742 C   0  0  0  0  0  0
  -24.1789  -13.0448   20.9184 C   0  0  0  0  0  0
  -24.6396  -11.6933   20.8769 C   0  0  0  0  0  0
  -23.9062  -10.4307   21.0409 C   0  0  0  0  0  0
  -24.3621   -9.4210   21.9182 C   0  0  0  0  0  0
  -23.6307   -8.2242   22.0752 C   0  0  0  0  0  0
  -22.4285   -8.0284   21.3549 C   0  0  0  0  0  0
  -21.9913   -9.0247   20.4643 C   0  0  0  0  0  0
  -22.7239  -10.2128   20.3058 C   0  0  0  0  0  0
  -21.6846   -6.0736   22.5273 C   0  0  0  0  0  0
  -21.4001   -6.5646   23.8213 C   0  0  0  0  0  0
  -21.3671   -5.6798   24.9178 C   0  0  0  0  0  0
  -21.6047   -4.3056   24.7214 C   0  0  0  0  0  0
  -21.8816   -3.8151   23.4343 C   0  0  0  0  0  0
  -21.9191   -4.6966   22.3399 C   0  0  0  0  0  0
  -22.7807  -13.5215   21.1864 C   0  0  0  0  0  0
  -22.1662   -4.2156   21.0970 F   0  0  0  0  0  0
  -21.5638   -3.4540   25.7730 F   0  0  0  0  0  0
  -30.0098  -13.4420   20.4108 N   0  0  0  0  0  0
  -26.2963  -12.9440   20.3399 N   0  0  0  0  0  0
  -25.9332  -11.6570   20.5831 N   0  0  0  0  0  0
  -22.0487  -12.8197   22.0440 N   0  0  0  0  0  0
  -25.4209  -15.1954   20.4243 N   0  0  0  0  0  0
  -31.8981  -14.6549   20.1283 O   0  0  0  0  0  0
  -21.6650   -6.8879   21.4244 O   0  0  0  0  0  0
  -22.3472  -14.5522   20.6741 O   0  0  0  0  0  0
  -24.6256  -31.8625   23.2012 C   0  0  0  0  0  0
  -25.9081  -32.4820   23.8344 C   0  0  1  0  0  0
  -27.2195  -27.3114   20.1050 C   0  0  0  0  0  0
  -25.5882  -33.8622   24.2228 N   0  0  0  0  0  0
  -23.4198  -30.4878   21.5478 C   0  0  2  0  0  0
  -24.8658  -28.9563   20.1078 C   0  0  0  0  0  0
  -22.7466  -29.4630   22.4933 C   0  0  0  0  0  0
  -18.0274  -28.1383   22.8507 C   0  0  0  0  0  0
  -24.1491  -36.7324   23.2670 C   0  0  0  0  0  0
  -25.9665  -30.7892   21.3810 C   0  0  0  0  0  0
  -26.0385  -29.4203   20.7159 C   0  0  0  0  0  0
  -27.2176  -28.6093   20.7105 C   0  0  0  0  0  0
  -26.0178  -26.9249   19.4551 C   0  0  0  0  0  0
  -24.8567  -27.7103   19.4722 C   0  0  0  0  0  0
  -23.6336  -29.8328   20.1605 C   0  0  0  0  0  0
  -25.4120  -36.3108   24.0335 C   0  0  1  0  0  0
  -20.5885  -28.3677   23.1277 C   0  0  2  0  0  0
  -20.6740  -26.9405   22.5406 C   0  0  0  0  0  0
  -19.5706  -26.6359   21.5224 C   0  0  0  0  0  0
  -18.1894  -26.7924   22.1639 C   0  0  0  0  0  0
  -19.1537  -28.8845   23.2886 C   0  0  0  0  0  0
  -18.9505  -30.1455   23.8893 C   0  0  0  0  0  0
  -17.6521  -30.6601   24.0583 C   0  0  0  0  0  0
  -25.9058  -34.9496   23.5070 C   0  0  0  0  0  0
  -16.5391  -29.9124   23.6334 C   0  0  0  0  0  0
  -16.7278  -28.6530   23.0352 C   0  0  0  0  0  0
  -26.4436  -31.6667   25.0750 C   0  0  0  0  0  0
  -25.3644  -31.3828   26.1469 C   0  0  0  0  0  0
  -27.0311  -30.3097   24.6226 C   0  0  0  0  0  0
  -27.5939  -32.4476   25.7511 C   0  0  0  0  0  0
  -27.5582  -37.1815   24.8467 C   0  0  0  0  0  0
  -21.4178  -29.3059   22.3702 N   0  0  0  0  0  0
  -26.4293  -37.3806   23.9427 N   0  0  0  0  0  0
  -24.6897  -31.0616   22.0995 N   0  0  0  0  0  0
  -23.4200  -28.8141   23.2987 O   0  0  0  0  0  0
  -28.3144  -26.4165   20.1713 O   0  0  0  0  0  0
  -26.5647  -34.8975   22.4657 O   0  0  0  0  0  0
  -23.5399  -32.1448   23.7296 O   0  0  0  0  0  0
  -30.7257  -19.6986   20.4541 C   0  0  0  0  0  0
  -30.1305  -20.9970   20.4939 C   0  0  0  0  0  0
  -28.7532  -21.1209   20.7943 C   0  0  0  0  0  0
  -29.9948  -18.4983   20.6999 C   0  0  0  0  0  0
  -28.0065  -19.9275   21.0525 C   0  0  0  0  0  0
  -28.6212  -18.6401   21.0013 C   0  0  0  0  0  0
  -30.9774  -22.2461   20.1675 C   0  0  0  0  0  0
  -28.1076  -22.5318   20.8561 C   0  0  0  0  0  0
  -30.3208  -23.6456   20.4301 C   0  0  0  0  0  0
  -28.8362  -23.6480   20.0301 C   0  0  2  0  0  0
  -26.5238  -20.0069   21.3986 C   0  0  0  0  0  0
  -30.7479  -17.1248   20.6400 C   0  0  0  0  0  0
  -28.0037  -25.0042   19.8300 C   0  0  0  0  0  0
  -30.0731  -15.7856   20.7620 N   0  0  0  0  0  0
  -27.8830  -17.5297   21.2473 F   0  0  0  0  0  0
  -31.4570  -12.4446   19.1688 H   0  0  0  0  0  0
  -30.3008  -11.3986   19.9399 H   0  0  0  0  0  0
  -29.7565  -11.7356   17.4957 H   0  0  0  0  0  0
  -29.6348  -13.4610   17.7512 H   0  0  0  0  0  0
  -27.8717  -11.2858   18.9169 H   0  0  0  0  0  0
  -27.3589  -12.5320   17.8122 H   0  0  0  0  0  0
  -27.6467  -14.2592   19.4911 H   0  0  0  0  0  0
  -28.6932  -12.1629   21.4550 H   0  0  0  0  0  0
  -28.4544  -13.8608   21.7917 H   0  0  0  0  0  0
  -25.2757   -9.5683   22.4770 H   0  0  0  0  0  0
  -24.0010   -7.4622   22.7470 H   0  0  0  0  0  0
  -21.0840   -8.8747   19.8952 H   0  0  0  0  0  0
  -22.3680  -10.9666   19.6178 H   0  0  0  0  0  0
  -21.1983   -7.6152   23.9715 H   0  0  0  0  0  0
  -21.1509   -6.0532   25.9078 H   0  0  0  0  0  0
  -22.0590   -2.7610   23.2836 H   0  0  0  0  0  0
  -22.4129  -11.9841   22.4775 H   0  0  0  0  0  0
  -21.1130  -13.1227   22.2750 H   0  0  0  0  0  0
  -24.6564  -15.8497   20.5521 H   0  0  0  0  0  0
  -26.2998  -15.6518   20.2138 H   0  0  0  0  0  0
  -26.7161  -32.5447   23.1098 H   0  0  0  0  0  0
  -24.9968  -33.9776   25.0325 H   0  0  0  0  0  0
  -22.7157  -31.3091   21.4019 H   0  0  0  0  0  0
  -23.3763  -35.9649   23.3313 H   0  0  0  0  0  0
  -24.3575  -36.8950   22.2087 H   0  0  0  0  0  0
  -23.7229  -37.6520   23.6698 H   0  0  0  0  0  0
  -26.1072  -31.5598   20.6220 H   0  0  0  0  0  0
  -26.8417  -30.8267   22.0166 H   0  0  0  0  0  0
  -28.1138  -28.9621   21.2018 H   0  0  0  0  0  0
  -25.9126  -25.9888   18.9283 H   0  0  0  0  0  0
  -23.9622  -27.3456   18.9874 H   0  0  0  0  0  0
  -23.7469  -30.6159   19.4105 H   0  0  0  0  0  0
  -22.7561  -29.2619   19.8536 H   0  0  0  0  0  0
  -25.1296  -36.1959   25.0829 H   0  0  0  0  0  0
  -20.9961  -28.3229   24.1402 H   0  0  0  0  0  0
  -20.5599  -26.2318   23.3611 H   0  0  0  0  0  0
  -21.6598  -26.7386   22.1210 H   0  0  0  0  0  0
  -19.6864  -25.6254   21.1284 H   0  0  0  0  0  0
  -19.6637  -27.3158   20.6753 H   0  0  0  0  0  0
  -17.4142  -26.6718   21.4046 H   0  0  0  0  0  0
  -18.0255  -26.0053   22.9013 H   0  0  0  0  0  0
  -19.8011  -30.7245   24.2239 H   0  0  0  0  0  0
  -17.5123  -31.6291   24.5151 H   0  0  0  0  0  0
  -15.5422  -30.3069   23.7662 H   0  0  0  0  0  0
  -15.8651  -28.0897   22.7059 H   0  0  0  0  0  0
  -24.5798  -30.7198   25.7802 H   0  0  0  0  0  0
  -24.8877  -32.3026   26.4886 H   0  0  0  0  0  0
  -25.7946  -30.9015   27.0264 H   0  0  0  0  0  0
  -26.2925  -29.6862   24.1187 H   0  0  0  0  0  0
  -27.3964  -29.7326   25.4732 H   0  0  0  0  0  0
  -27.8780  -30.4423   23.9489 H   0  0  0  0  0  0
  -27.2467  -33.3787   26.2017 H   0  0  0  0  0  0
  -28.3740  -32.7076   25.0337 H   0  0  0  0  0  0
  -28.0619  -31.8702   26.5490 H   0  0  0  0  0  0
  -28.2575  -38.0151   24.7525 H   0  0  0  0  0  0
  -28.1079  -36.2656   24.6219 H   0  0  0  0  0  0
  -27.2290  -37.1350   25.8873 H   0  0  0  0  0  0
  -20.9331  -29.8921   21.7054 H   0  0  0  0  0  0
  -26.0162  -38.2879   24.1444 H   0  0  0  0  0  0
  -31.7804  -19.6245   20.2235 H   0  0  0  0  0  0
  -31.2185  -22.1817   19.1045 H   0  0  0  0  0  0
  -31.9319  -22.1791   20.6917 H   0  0  0  0  0  0
  -28.0802  -22.8278   21.9058 H   0  0  0  0  0  0
  -27.0695  -22.4705   20.5315 H   0  0  0  0  0  0
  -30.8728  -24.4199   19.8933 H   0  0  0  0  0  0
  -30.3975  -23.8954   21.4897 H   0  0  0  0  0  0
  -28.8507  -23.2428   19.0158 H   0  0  0  0  0  0
  -26.3711  -20.5804   22.3137 H   0  0  0  0  0  0
  -26.0846  -19.0225   21.5577 H   0  0  0  0  0  0
  -25.9571  -20.4784   20.5963 H   0  0  0  0  0  0
  -31.5188  -17.1649   21.4098 H   0  0  0  0  0  0
  -31.2905  -17.1347   19.6911 H   0  0  0  0  0  0
  -27.0484  -24.7776   20.3032 H   0  0  0  0  0  0
  -27.8145  -25.0318   18.7550 H   0  0  0  0  0  0
  -29.0931  -15.7708   21.0024 H   0  0  0  0  0  0
  1 25  1  0  0  0
  1 30  2  0  0  0
  1 84  1  0  0  0
  2  3  1  0  0  0
  2 25  1  0  0  0
  2 86  1  0  0  0
  2 87  1  0  0  0
  3  4  1  0  0  0
  3 88  1  0  0  0
  3 89  1  0  0  0
  4  5  1  0  0  0
  4 90  1  0  0  0
  4 91  1  0  0  0
  5  6  1  0  0  0
  5 26  1  0  0  0
  5 92  1  0  0  0
  6 25  1  0  0  0
  6 93  1  0  0  0
  6 94  1  0  0  0
  7  8  2  0  0  0
  7 26  1  0  0  0
  7 29  1  0  0  0
  8  9  1  0  0  0
  8 22  1  0  0  0
  9 10  1  0  0  0
  9 27  2  0  0  0
 10 11  2  0  0  0
 10 15  1  0  0  0
 11 12  1  0  0  0
 11 95  1  0  0  0
 12 13  2  0  0  0
 12 96  1  0  0  0
 13 14  1  0  0  0
 13 31  1  0  0  0
 14 15  2  0  0  0
 14 97  1  0  0  0
 15 98  1  0  0  0
 16 17  2  0  0  0
 16 21  1  0  0  0
 16 31  1  0  0  0
 17 18  1  0  0  0
 17 99  1  0  0  0
 18 19  2  0  0  0
 18100  1  0  0  0
 19 20  1  0  0  0
 19 24  1  0  0  0
 20 21  2  0  0  0
 20101  1  0  0  0
 21 23  1  0  0  0
 22 28  1  0  0  0
 22 32  2  0  0  0
 26 27  1  0  0  0
 28102  1  0  0  0
 28103  1  0  0  0
 29104  1  0  0  0
 29105  1  0  0  0
 33 34  1  0  0  0
 33 66  1  0  0  0
 33 70  2  0  0  0
 34 36  1  0  0  0
 34 59  1  0  0  0
 34106  1  0  0  0
 35 44  2  0  0  0
 35 45  1  0  0  0
 35 68  1  0  0  0
 36 56  1  0  0  0
 36107  1  0  0  0
 37 39  1  0  0  0
 37 47  1  0  0  0
 37 66  1  0  0  0
 37108  1  0  0  0
 38 43  2  0  0  0
 38 46  1  0  0  0
 38 47  1  0  0  0
 39 64  1  0  0  0
 39 67  2  0  0  0
 40 52  1  0  0  0
 40 53  2  0  0  0
 40 58  1  0  0  0
 41109  1  0  0  0
 41110  1  0  0  0
 41111  1  0  0  0
 41 48  1  0  0  0
 42 43  1  0  0  0
 42 66  1  0  0  0
 42112  1  0  0  0
 42113  1  0  0  0
 43 44  1  0  0  0
 44114  1  0  0  0
 45 46  2  0  0  0
 45115  1  0  0  0
 46116  1  0  0  0
 47117  1  0  0  0
 47118  1  0  0  0
 48 56  1  0  0  0
 48 65  1  0  0  0
 48119  1  0  0  0
 49 50  1  0  0  0
 49 53  1  0  0  0
 49 64  1  0  0  0
 49120  1  0  0  0
 50 51  1  0  0  0
 50121  1  0  0  0
 50122  1  0  0  0
 51 52  1  0  0  0
 51123  1  0  0  0
 51124  1  0  0  0
 52125  1  0  0  0
 52126  1  0  0  0
 53 54  1  0  0  0
 54 55  2  0  0  0
 54127  1  0  0  0
 55 57  1  0  0  0
 55128  1  0  0  0
 56 69  2  0  0  0
 57 58  2  0  0  0
 57129  1  0  0  0
 58130  1  0  0  0
 59 60  1  0  0  0
 59 61  1  0  0  0
 59 62  1  0  0  0
 60131  1  0  0  0
 60132  1  0  0  0
 60133  1  0  0  0
 61134  1  0  0  0
 61135  1  0  0  0
 61136  1  0  0  0
 62137  1  0  0  0
 62138  1  0  0  0
 62139  1  0  0  0
 63 65  1  0  0  0
 63140  1  0  0  0
 63141  1  0  0  0
 63142  1  0  0  0
 64143  1  0  0  0
 65144  1  0  0  0
 68 83  1  0  0  0
 71 72  2  0  0  0
 71 74  1  0  0  0
 71145  1  0  0  0
 72 73  1  0  0  0
 72 77  1  0  0  0
 73 75  2  0  0  0
 73 78  1  0  0  0
 74 76  2  0  0  0
 74 82  1  0  0  0
 75 76  1  0  0  0
 75 81  1  0  0  0
 76 85  1  0  0  0
 77 79  1  0  0  0
 77146  1  0  0  0
 77147  1  0  0  0
 78 80  1  0  0  0
 78148  1  0  0  0
 78149  1  0  0  0
 79 80  1  0  0  0
 79150  1  0  0  0
 79151  1  0  0  0
 80 83  1  0  0  0
 80152  1  0  0  0
 81153  1  0  0  0
 81154  1  0  0  0
 81155  1  0  0  0
 82 84  1  0  0  0
 82156  1  0  0  0
 82157  1  0  0  0
 83158  1  0  0  0
 83159  1  0  0  0
 84160  1  0  0  0
M  ISO  4   1 100  68 101  83 101  84 100
M  END
> <chiral flag>
0

> <version>
0

> <s_m_source_file>
/data/baiqing/PycharmProjects/Reinvent-master-3.2/result/LINK_invent/BTK/process_docking_weight1_custom_sum_contain_oxygen_bond_distance_aromatic_linkinvent_7_9_3/rearranged_h_0105.sdf

> <i_m_source_file_index>
48

> <r_mmod_Potential_Energy-OPLS-2005>
98.4816055297852

> <r_mmod_Stretch_Energy-OPLS-2005>
79.9331588745117

> <r_mmod_Bend_Energy-OPLS-2005>
176.948043823242

> <r_mmod_Torsional_Energy-OPLS-2005>
218.663619995117

> <r_mmod_Improper_Torsional_Energy-OPLS-2005>
4.38488626480103

> <r_mmod_Van_der_Waal_Energy-OPLS-2005>
165.31575012207

> <r_mmod_Electrostatic_Energy-OPLS-2005>
-408.658508300781

> <r_mmod_Solvation_Energy-OPLS-2005>
-193.008453369141

> <b_mmod_Minimization_Converged-OPLS-2005>
0

> <r_mmod_RMS_Derivative-OPLS-2005>
3.24062347412109

$$$$
48
                    3D
 Structure written by MMmdl.
160168  0  0  1  0            999 V2000
  -30.5330  -15.0031   20.4167 C   0  0  0  0  0  0
  -30.4393  -12.6242   19.5044 C   0  0  0  0  0  0
  -29.5264  -12.5352   18.2591 C   0  0  0  0  0  0
  -28.0596  -12.3127   18.6758 C   0  0  0  0  0  0
  -27.6261  -13.2563   19.8284 C   0  0  2  0  0  0
  -28.6676  -13.3143   20.9665 C   0  0  0  0  0  0
  -25.2433  -13.8246   20.5684 C   0  0  0  0  0  0
  -24.1775  -13.0451   20.9225 C   0  0  0  0  0  0
  -24.6411  -11.6939   20.8758 C   0  0  0  0  0  0
  -23.9105  -10.4301   21.0394 C   0  0  0  0  0  0
  -24.3655   -9.4219   21.9164 C   0  0  0  0  0  0
  -23.6322   -8.2254   22.0744 C   0  0  0  0  0  0
  -22.4305   -8.0284   21.3533 C   0  0  0  0  0  0
  -21.9945   -9.0253   20.4644 C   0  0  0  0  0  0
  -22.7271  -10.2131   20.3042 C   0  0  0  0  0  0
  -21.6857   -6.0740   22.5278 C   0  0  0  0  0  0
  -21.4017   -6.5642   23.8209 C   0  0  0  0  0  0
  -21.3674   -5.6783   24.9180 C   0  0  0  0  0  0
  -21.6050   -4.3046   24.7223 C   0  0  0  0  0  0
  -21.8815   -3.8145   23.4343 C   0  0  0  0  0  0
  -21.9202   -4.6974   22.3400 C   0  0  0  0  0  0
  -22.7786  -13.5202   21.1884 C   0  0  0  0  0  0
  -22.1656   -4.2157   21.0970 F   0  0  0  0  0  0
  -21.5651   -3.4525   25.7735 F   0  0  0  0  0  0
  -29.9364  -13.7378   20.3629 N   0  0  0  0  0  0
  -26.2868  -12.9493   20.3184 N   0  0  0  0  0  0
  -25.9344  -11.6625   20.5717 N   0  0  0  0  0  0
  -22.0431  -12.8189   22.0439 N   0  0  0  0  0  0
  -25.4071  -15.1976   20.4120 N   0  0  0  0  0  0
  -31.7431  -15.0527   20.1743 O   0  0  0  0  0  0
  -21.6658   -6.8889   21.4238 O   0  0  0  0  0  0
  -22.3454  -14.5482   20.6712 O   0  0  0  0  0  0
  -24.6487  -31.8426   23.1871 C   0  0  0  0  0  0
  -25.9234  -32.4701   23.8286 C   0  0  1  0  0  0
  -27.2113  -27.0870   20.1550 C   0  0  0  0  0  0
  -25.5962  -33.8509   24.2190 N   0  0  0  0  0  0
  -23.4561  -30.4632   21.5321 C   0  0  2  0  0  0
  -24.9070  -28.8861   20.1092 C   0  0  0  0  0  0
  -22.7598  -29.4553   22.4819 C   0  0  0  0  0  0
  -18.0334  -28.1419   22.8470 C   0  0  0  0  0  0
  -24.1494  -36.7245   23.2642 C   0  0  0  0  0  0
  -26.0166  -30.6986   21.3981 C   0  0  0  0  0  0
  -26.0862  -29.3051   20.7370 C   0  0  0  0  0  0
  -27.2381  -28.4214   20.7467 C   0  0  0  0  0  0
  -26.0082  -26.7927   19.4722 C   0  0  0  0  0  0
  -24.8833  -27.6443   19.4612 C   0  0  0  0  0  0
  -23.6899  -29.7983   20.1505 C   0  0  0  0  0  0
  -25.4129  -36.3039   24.0315 C   0  0  1  0  0  0
  -20.5941  -28.3761   23.1213 C   0  0  2  0  0  0
  -20.6812  -26.9459   22.5391 C   0  0  0  0  0  0
  -19.5788  -26.6397   21.5199 C   0  0  0  0  0  0
  -18.1973  -26.7960   22.1612 C   0  0  0  0  0  0
  -19.1581  -28.8903   23.2843 C   0  0  0  0  0  0
  -18.9489  -30.1478   23.8904 C   0  0  0  0  0  0
  -17.6482  -30.6608   24.0560 C   0  0  0  0  0  0
  -25.9079  -34.9412   23.5067 C   0  0  0  0  0  0
  -16.5379  -29.9102   23.6327 C   0  0  0  0  0  0
  -16.7308  -28.6514   23.0363 C   0  0  0  0  0  0
  -26.4536  -31.6597   25.0756 C   0  0  0  0  0  0
  -25.3684  -31.3758   26.1413 C   0  0  0  0  0  0
  -27.0402  -30.3007   24.6346 C   0  0  0  0  0  0
  -27.6109  -32.4328   25.7525 C   0  0  0  0  0  0
  -27.5577  -37.1787   24.8459 C   0  0  0  0  0  0
  -21.4279  -29.3079   22.3567 N   0  0  0  0  0  0
  -26.4289  -37.3750   23.9406 N   0  0  0  0  0  0
  -24.7268  -31.0226   22.0943 N   0  0  0  0  0  0
  -23.4197  -28.8094   23.2992 O   0  0  0  0  0  0
  -28.2249  -26.0449   20.2476 O   0  0  0  0  0  0
  -26.5653  -34.8898   22.4638 O   0  0  0  0  0  0
  -23.5593  -32.1313   23.7055 O   0  0  0  0  0  0
  -29.9140  -22.8437   20.9628 C   0  0  0  0  0  0
  -28.6578  -23.0946   20.3238 C   0  0  0  0  0  0
  -30.2185  -21.4853   21.0694 C   0  0  0  0  0  0
  -28.2820  -21.7388   20.0594 C   0  0  0  0  0  0
  -27.0114  -21.2993   19.4040 C   0  0  0  0  0  0
  -31.3077  -21.0137   23.2801 C   0  0  0  0  0  0
  -32.7271  -21.5733   21.2690 C   0  0  0  0  0  0
  -27.8431  -24.5354   20.0074 C   0  0  0  0  0  0
  -29.0092  -19.0784   20.4196 C   0  0  0  0  0  0
  -30.1169  -17.7750   20.5653 C   0  0  0  0  0  0
  -31.4285  -20.9094   21.7504 C   0  0  0  0  0  0
  -29.2089  -20.6894   20.4919 N   0  0  0  0  0  0
  -29.7614  -16.2072   20.5401 N   0  0  0  0  0  0
  -31.4736  -12.7780   19.1966 H   0  0  0  0  0  0
  -30.4299  -11.6811   20.0554 H   0  0  0  0  0  0
  -29.8550  -11.7274   17.6031 H   0  0  0  0  0  0
  -29.6067  -13.4562   17.6769 H   0  0  0  0  0  0
  -27.9672  -11.2754   18.9977 H   0  0  0  0  0  0
  -27.3965  -12.4237   17.8171 H   0  0  0  0  0  0
  -27.5797  -14.2530   19.3859 H   0  0  0  0  0  0
  -28.7663  -12.3452   21.4593 H   0  0  0  0  0  0
  -28.3571  -14.0251   21.7334 H   0  0  0  0  0  0
  -25.2800   -9.5696   22.4751 H   0  0  0  0  0  0
  -24.0032   -7.4653   22.7470 H   0  0  0  0  0  0
  -21.0867   -8.8778   19.8961 H   0  0  0  0  0  0
  -22.3721  -10.9668   19.6158 H   0  0  0  0  0  0
  -21.1977   -7.6139   23.9713 H   0  0  0  0  0  0
  -21.1506   -6.0514   25.9081 H   0  0  0  0  0  0
  -22.0582   -2.7603   23.2829 H   0  0  0  0  0  0
  -22.4065  -11.9889   22.4879 H   0  0  0  0  0  0
  -21.1028  -13.1177   22.2612 H   0  0  0  0  0  0
  -24.6310  -15.8420   20.5247 H   0  0  0  0  0  0
  -26.2424  -15.6432   20.0547 H   0  0  0  0  0  0
  -26.7307  -32.5296   23.1015 H   0  0  0  0  0  0
  -25.0123  -33.9619   25.0348 H   0  0  0  0  0  0
  -22.7636  -31.2931   21.3751 H   0  0  0  0  0  0
  -23.3781  -35.9550   23.3289 H   0  0  0  0  0  0
  -24.3591  -36.8898   22.2059 H   0  0  0  0  0  0
  -23.7213  -37.6422   23.6688 H   0  0  0  0  0  0
  -26.1787  -31.4535   20.6268 H   0  0  0  0  0  0
  -26.8833  -30.7495   22.0452 H   0  0  0  0  0  0
  -28.1266  -28.7313   21.2793 H   0  0  0  0  0  0
  -25.8891  -25.8524   18.9572 H   0  0  0  0  0  0
  -23.9875  -27.3217   18.9503 H   0  0  0  0  0  0
  -23.8423  -30.5755   19.4012 H   0  0  0  0  0  0
  -22.8022  -29.2534   19.8252 H   0  0  0  0  0  0
  -25.1324  -36.1873   25.0809 H   0  0  0  0  0  0
  -21.0042  -28.3363   24.1326 H   0  0  0  0  0  0
  -20.5719  -26.2370   23.3616 H   0  0  0  0  0  0
  -21.6681  -26.7477   22.1182 H   0  0  0  0  0  0
  -19.6951  -25.6285   21.1283 H   0  0  0  0  0  0
  -19.6737  -27.3159   20.6695 H   0  0  0  0  0  0
  -17.4237  -26.6700   21.4022 H   0  0  0  0  0  0
  -18.0387  -26.0113   22.9022 H   0  0  0  0  0  0
  -19.7954  -30.7284   24.2307 H   0  0  0  0  0  0
  -17.5036  -31.6292   24.5147 H   0  0  0  0  0  0
  -15.5374  -30.3004   23.7648 H   0  0  0  0  0  0
  -15.8711  -28.0811   22.7111 H   0  0  0  0  0  0
  -24.5896  -30.7098   25.7665 H   0  0  0  0  0  0
  -24.8813  -32.2910   26.4793 H   0  0  0  0  0  0
  -25.7924  -30.8928   27.0224 H   0  0  0  0  0  0
  -26.3006  -29.6732   24.1353 H   0  0  0  0  0  0
  -27.4021  -29.7331   25.4928 H   0  0  0  0  0  0
  -27.8927  -30.4279   23.9669 H   0  0  0  0  0  0
  -27.2785  -33.3657   26.2079 H   0  0  0  0  0  0
  -28.3930  -32.6830   25.0342 H   0  0  0  0  0  0
  -28.0762  -31.8447   26.5439 H   0  0  0  0  0  0
  -28.2591  -38.0091   24.7537 H   0  0  0  0  0  0
  -28.1089  -36.2631   24.6269 H   0  0  0  0  0  0
  -27.2301  -37.1400   25.8862 H   0  0  0  0  0  0
  -20.9500  -29.8765   21.6720 H   0  0  0  0  0  0
  -26.0170  -38.2823   24.1421 H   0  0  0  0  0  0
  -30.5582  -23.6197   21.3546 H   0  0  0  0  0  0
  -26.3383  -22.1380   19.2251 H   0  0  0  0  0  0
  -26.4827  -20.5804   20.0298 H   0  0  0  0  0  0
  -27.2102  -20.8261   18.4425 H   0  0  0  0  0  0
  -30.4223  -20.4920   23.6421 H   0  0  0  0  0  0
  -31.2288  -22.0523   23.6054 H   0  0  0  0  0  0
  -32.1719  -20.5755   23.7803 H   0  0  0  0  0  0
  -32.8380  -21.4699   20.1893 H   0  0  0  0  0  0
  -33.6008  -21.1131   21.7320 H   0  0  0  0  0  0
  -32.7514  -22.6376   21.5059 H   0  0  0  0  0  0
  -26.8930  -24.3992   20.5209 H   0  0  0  0  0  0
  -27.6110  -24.4663   18.9443 H   0  0  0  0  0  0
  -28.2346  -18.8724   21.1583 H   0  0  0  0  0  0
  -28.5156  -18.9058   19.4627 H   0  0  0  0  0  0
  -30.6198  -17.8950   21.5231 H   0  0  0  0  0  0
  -30.8918  -17.9278   19.8124 H   0  0  0  0  0  0
  -31.5203  -19.8575   21.5005 H   0  0  0  0  0  0
  -28.7765  -16.0147   20.6452 H   0  0  0  0  0  0
  1 25  1  0  0  0
  1 30  2  0  0  0
  1 83  1  0  0  0
  2  3  1  0  0  0
  2 25  1  0  0  0
  2 84  1  0  0  0
  2 85  1  0  0  0
  3  4  1  0  0  0
  3 86  1  0  0  0
  3 87  1  0  0  0
  4  5  1  0  0  0
  4 88  1  0  0  0
  4 89  1  0  0  0
  5  6  1  0  0  0
  5 26  1  0  0  0
  5 90  1  0  0  0
  6 25  1  0  0  0
  6 91  1  0  0  0
  6 92  1  0  0  0
  7  8  2  0  0  0
  7 26  1  0  0  0
  7 29  1  0  0  0
  8  9  1  0  0  0
  8 22  1  0  0  0
  9 10  1  0  0  0
  9 27  2  0  0  0
 10 11  2  0  0  0
 10 15  1  0  0  0
 11 12  1  0  0  0
 11 93  1  0  0  0
 12 13  2  0  0  0
 12 94  1  0  0  0
 13 14  1  0  0  0
 13 31  1  0  0  0
 14 15  2  0  0  0
 14 95  1  0  0  0
 15 96  1  0  0  0
 16 17  2  0  0  0
 16 21  1  0  0  0
 16 31  1  0  0  0
 17 18  1  0  0  0
 17 97  1  0  0  0
 18 19  2  0  0  0
 18 98  1  0  0  0
 19 20  1  0  0  0
 19 24  1  0  0  0
 20 21  2  0  0  0
 20 99  1  0  0  0
 21 23  1  0  0  0
 22 28  1  0  0  0
 22 32  2  0  0  0
 26 27  1  0  0  0
 28100  1  0  0  0
 28101  1  0  0  0
 29102  1  0  0  0
 29103  1  0  0  0
 33 34  1  0  0  0
 33 66  1  0  0  0
 33 70  2  0  0  0
 34 36  1  0  0  0
 34 59  1  0  0  0
 34104  1  0  0  0
 35 44  2  0  0  0
 35 45  1  0  0  0
 35 68  1  0  0  0
 36 56  1  0  0  0
 36105  1  0  0  0
 37 39  1  0  0  0
 37 47  1  0  0  0
 37 66  1  0  0  0
 37106  1  0  0  0
 38 43  2  0  0  0
 38 46  1  0  0  0
 38 47  1  0  0  0
 39 64  1  0  0  0
 39 67  2  0  0  0
 40 52  1  0  0  0
 40 53  2  0  0  0
 40 58  1  0  0  0
 41107  1  0  0  0
 41108  1  0  0  0
 41109  1  0  0  0
 41 48  1  0  0  0
 42 43  1  0  0  0
 42 66  1  0  0  0
 42110  1  0  0  0
 42111  1  0  0  0
 43 44  1  0  0  0
 44112  1  0  0  0
 45 46  2  0  0  0
 45113  1  0  0  0
 46114  1  0  0  0
 47115  1  0  0  0
 47116  1  0  0  0
 48 56  1  0  0  0
 48 65  1  0  0  0
 48117  1  0  0  0
 49 50  1  0  0  0
 49 53  1  0  0  0
 49 64  1  0  0  0
 49118  1  0  0  0
 50 51  1  0  0  0
 50119  1  0  0  0
 50120  1  0  0  0
 51 52  1  0  0  0
 51121  1  0  0  0
 51122  1  0  0  0
 52123  1  0  0  0
 52124  1  0  0  0
 53 54  1  0  0  0
 54 55  2  0  0  0
 54125  1  0  0  0
 55 57  1  0  0  0
 55126  1  0  0  0
 56 69  2  0  0  0
 57 58  2  0  0  0
 57127  1  0  0  0
 58128  1  0  0  0
 59 60  1  0  0  0
 59 61  1  0  0  0
 59 62  1  0  0  0
 60129  1  0  0  0
 60130  1  0  0  0
 60131  1  0  0  0
 61132  1  0  0  0
 61133  1  0  0  0
 61134  1  0  0  0
 62135  1  0  0  0
 62136  1  0  0  0
 62137  1  0  0  0
 63 65  1  0  0  0
 63138  1  0  0  0
 63139  1  0  0  0
 63140  1  0  0  0
 64141  1  0  0  0
 65142  1  0  0  0
 68 78  1  0  0  0
 71 72  1  0  0  0
 71 73  2  0  0  0
 71143  1  0  0  0
 72 74  2  0  0  0
 72 78  1  0  0  0
 73 81  1  0  0  0
 73 82  1  0  0  0
 74 75  1  0  0  0
 74 82  1  0  0  0
 75144  1  0  0  0
 75145  1  0  0  0
 75146  1  0  0  0
 76147  1  0  0  0
 76148  1  0  0  0
 76149  1  0  0  0
 76 81  1  0  0  0
 77 81  1  0  0  0
 77150  1  0  0  0
 77151  1  0  0  0
 77152  1  0  0  0
 78153  1  0  0  0
 78154  1  0  0  0
 79 80  1  0  0  0
 79 82  1  0  0  0
 79155  1  0  0  0
 79156  1  0  0  0
 80 83  1  0  0  0
 80157  1  0  0  0
 80158  1  0  0  0
 81159  1  0  0  0
 83160  1  0  0  0
M  ISO  4   1 100  68 101  78 101  83 100
M  END
> <chiral flag>
0

> <version>
0

> <s_m_source_file>
/data/baiqing/PycharmProjects/Reinvent-master-3.2/result/LINK_invent/BTK/process_docking_weight1_custom_sum_contain_oxygen_bond_distance_aromatic_linkinvent_7_9_3/rearranged_h_0105.sdf

> <i_m_source_file_index>
49

> <r_mmod_Potential_Energy-OPLS-2005>
592.751403808594

> <r_mmod_Stretch_Energy-OPLS-2005>
314.213165283203

> <r_mmod_Bend_Energy-OPLS-2005>
303.709289550781

> <r_mmod_Torsional_Energy-OPLS-2005>
227.967620849609

> <r_mmod_Improper_Torsional_Energy-OPLS-2005>
4.67877435684204

> <r_mmod_Van_der_Waal_Energy-OPLS-2005>
110.31566619873

> <r_mmod_Electrostatic_Energy-OPLS-2005>
-387.269866943359

> <r_mmod_Solvation_Energy-OPLS-2005>
-222.660995483398

> <b_mmod_Minimization_Converged-OPLS-2005>
0

> <r_mmod_RMS_Derivative-OPLS-2005>
2.70572376251221

$$$$
49
                    3D
 Structure written by MMmdl.
165174  0  0  1  0            999 V2000
  -30.6788  -14.5250   20.4967 C   0  0  0  0  0  0
  -30.4162  -12.3184   19.4352 C   0  0  0  0  0  0
  -29.5049  -12.4938   18.2047 C   0  0  0  0  0  0
  -28.0229  -12.3555   18.6104 C   0  0  0  0  0  0
  -27.6517  -13.2130   19.8516 C   0  0  2  0  0  0
  -28.6906  -13.0493   20.9829 C   0  0  0  0  0  0
  -25.2558  -13.8169   20.5667 C   0  0  0  0  0  0
  -24.1827  -13.0441   20.9205 C   0  0  0  0  0  0
  -24.6393  -11.6912   20.8730 C   0  0  0  0  0  0
  -23.9051  -10.4292   21.0389 C   0  0  0  0  0  0
  -24.3618   -9.4223   21.9166 C   0  0  0  0  0  0
  -23.6292   -8.2254   22.0737 C   0  0  0  0  0  0
  -22.4261   -8.0286   21.3551 C   0  0  0  0  0  0
  -21.9902   -9.0245   20.4638 C   0  0  0  0  0  0
  -22.7226  -10.2125   20.3041 C   0  0  0  0  0  0
  -21.6853   -6.0733   22.5283 C   0  0  0  0  0  0
  -21.4005   -6.5625   23.8235 C   0  0  0  0  0  0
  -21.3676   -5.6782   24.9183 C   0  0  0  0  0  0
  -21.6060   -4.3040   24.7234 C   0  0  0  0  0  0
  -21.8813   -3.8138   23.4352 C   0  0  0  0  0  0
  -21.9201   -4.6963   22.3414 C   0  0  0  0  0  0
  -22.7858  -13.5235   21.1877 C   0  0  0  0  0  0
  -22.1656   -4.2158   21.0989 F   0  0  0  0  0  0
  -21.5661   -3.4521   25.7741 F   0  0  0  0  0  0
  -30.0154  -13.3388   20.4207 N   0  0  0  0  0  0
  -26.2967  -12.9345   20.3212 N   0  0  0  0  0  0
  -25.9309  -11.6513   20.5694 N   0  0  0  0  0  0
  -22.0464  -12.8227   22.0420 N   0  0  0  0  0  0
  -25.4246  -15.1894   20.4122 N   0  0  0  0  0  0
  -31.8545  -14.6377   20.1395 O   0  0  0  0  0  0
  -21.6641   -6.8860   21.4244 O   0  0  0  0  0  0
  -22.3544  -14.5546   20.6713 O   0  0  0  0  0  0
  -24.6162  -31.8674   23.2049 C   0  0  0  0  0  0
  -25.9035  -32.4840   23.8366 C   0  0  1  0  0  0
  -27.2324  -27.4073   20.0919 C   0  0  0  0  0  0
  -25.5871  -33.8634   24.2308 N   0  0  0  0  0  0
  -23.4083  -30.4859   21.5478 C   0  0  2  0  0  0
  -24.8529  -28.9409   20.1222 C   0  0  0  0  0  0
  -22.7425  -29.4626   22.4974 C   0  0  0  0  0  0
  -18.0275  -28.1374   22.8484 C   0  0  0  0  0  0
  -24.1491  -36.7314   23.2631 C   0  0  0  0  0  0
  -25.9386  -30.8186   21.3637 C   0  0  0  0  0  0
  -26.0136  -29.4464   20.7216 C   0  0  0  0  0  0
  -27.2081  -28.6834   20.7090 C   0  0  0  0  0  0
  -26.0568  -26.9213   19.4874 C   0  0  0  0  0  0
  -24.8678  -27.6767   19.5090 C   0  0  0  0  0  0
  -23.6194  -29.8146   20.1656 C   0  0  0  0  0  0
  -25.4119  -36.3133   24.0327 C   0  0  1  0  0  0
  -20.5866  -28.3642   23.1311 C   0  0  2  0  0  0
  -20.6728  -26.9367   22.5417 C   0  0  0  0  0  0
  -19.5721  -26.6359   21.5199 C   0  0  0  0  0  0
  -18.1910  -26.7908   22.1619 C   0  0  0  0  0  0
  -19.1531  -28.8815   23.2893 C   0  0  0  0  0  0
  -18.9462  -30.1416   23.8915 C   0  0  0  0  0  0
  -17.6470  -30.6564   24.0559 C   0  0  0  0  0  0
  -25.9047  -34.9492   23.5126 C   0  0  0  0  0  0
  -16.5353  -29.9085   23.6317 C   0  0  0  0  0  0
  -16.7266  -28.6499   23.0341 C   0  0  0  0  0  0
  -26.4441  -31.6620   25.0694 C   0  0  0  0  0  0
  -25.3683  -31.3827   26.1444 C   0  0  0  0  0  0
  -27.0245  -30.3058   24.6044 C   0  0  0  0  0  0
  -27.6019  -32.4292   25.7481 C   0  0  0  0  0  0
  -27.5608  -37.1812   24.8456 C   0  0  0  0  0  0
  -21.4142  -29.3034   22.3730 N   0  0  0  0  0  0
  -26.4324  -37.3809   23.9403 N   0  0  0  0  0  0
  -24.6728  -31.0726   22.0973 N   0  0  0  0  0  0
  -23.4198  -28.8163   23.3003 O   0  0  0  0  0  0
  -28.3843  -26.6497   20.0316 O   0  0  0  0  0  0
  -26.5624  -34.8948   22.4700 O   0  0  0  0  0  0
  -23.5330  -32.1433   23.7420 O   0  0  0  0  0  0
  -28.9248  -18.5487   21.8548 C   0  0  0  0  0  0
  -29.5071  -19.3571   19.8556 C   0  0  0  0  0  0
  -29.6085  -18.2279   20.6383 C   0  0  0  0  0  0
  -28.4644  -19.8401   21.7466 C   0  0  0  0  0  0
  -25.4899  -21.1354   24.5801 C   0  0  0  0  0  0
  -25.6316  -19.8398   23.7754 C   0  0  0  0  0  0
  -26.9454  -20.9649   25.0297 C   0  0  0  0  0  0
  -27.1582  -19.9549   23.8905 C   0  0  0  0  0  0
  -30.3815  -16.9625   20.2407 C   0  0  0  0  0  0
  -28.6883  -22.9606   20.7822 C   0  0  0  0  0  0
  -28.4829  -21.6809   19.9140 C   0  0  0  0  0  0
  -28.5499  -24.2924   19.9805 C   0  0  0  0  0  0
  -28.8201  -20.3700   20.5159 N   0  0  0  0  0  0
  -27.7636  -20.5668   22.7144 N   0  0  0  0  0  0
  -29.9248  -15.6330   20.7054 N   0  0  0  0  0  0
  -28.2707  -25.4443   20.8505 N   0  0  0  0  0  0
  -31.4656  -12.4003   19.1437 H   0  0  0  0  0  0
  -30.2983  -11.3169   19.8538 H   0  0  0  0  0  0
  -29.7547  -11.7569   17.4403 H   0  0  0  0  0  0
  -29.6811  -13.4726   17.7537 H   0  0  0  0  0  0
  -27.8369  -11.2995   18.8144 H   0  0  0  0  0  0
  -27.3816  -12.6179   17.7673 H   0  0  0  0  0  0
  -27.6776  -14.2523   19.5268 H   0  0  0  0  0  0
  -28.6707  -12.0331   21.3769 H   0  0  0  0  0  0
  -28.4572  -13.7084   21.8200 H   0  0  0  0  0  0
  -25.2777   -9.5735   22.4716 H   0  0  0  0  0  0
  -24.0061   -7.4647   22.7421 H   0  0  0  0  0  0
  -21.0856   -8.8736   19.8909 H   0  0  0  0  0  0
  -22.3680  -10.9657   19.6144 H   0  0  0  0  0  0
  -21.1947   -7.6126   23.9740 H   0  0  0  0  0  0
  -21.1515   -6.0489   25.9098 H   0  0  0  0  0  0
  -22.0571   -2.7599   23.2848 H   0  0  0  0  0  0
  -22.4060  -11.9946   22.4946 H   0  0  0  0  0  0
  -21.1036  -13.1213   22.2493 H   0  0  0  0  0  0
  -24.6550  -15.8373   20.5410 H   0  0  0  0  0  0
  -26.2726  -15.6454   20.1015 H   0  0  0  0  0  0
  -26.7099  -32.5558   23.1125 H   0  0  0  0  0  0
  -24.9919  -33.9781   25.0380 H   0  0  0  0  0  0
  -22.6983  -31.3033   21.4037 H   0  0  0  0  0  0
  -23.3769  -35.9639   23.3295 H   0  0  0  0  0  0
  -24.3597  -36.8934   22.2053 H   0  0  0  0  0  0
  -23.7218  -37.6495   23.6654 H   0  0  0  0  0  0
  -26.0491  -31.5731   20.5831 H   0  0  0  0  0  0
  -26.8285  -30.8825   21.9779 H   0  0  0  0  0  0
  -28.1090  -29.0652   21.1653 H   0  0  0  0  0  0
  -26.0533  -25.9584   18.9960 H   0  0  0  0  0  0
  -23.9728  -27.2845   19.0485 H   0  0  0  0  0  0
  -23.7417  -30.5874   19.4051 H   0  0  0  0  0  0
  -22.7415  -29.2403   19.8639 H   0  0  0  0  0  0
  -25.1300  -36.1998   25.0820 H   0  0  0  0  0  0
  -20.9964  -28.3168   24.1430 H   0  0  0  0  0  0
  -20.5560  -26.2244   23.3613 H   0  0  0  0  0  0
  -21.6602  -26.7344   22.1259 H   0  0  0  0  0  0
  -19.6857  -25.6271   21.1227 H   0  0  0  0  0  0
  -19.6661  -27.3154   20.6728 H   0  0  0  0  0  0
  -17.4164  -26.6650   21.4033 H   0  0  0  0  0  0
  -18.0318  -26.0067   22.9037 H   0  0  0  0  0  0
  -19.7940  -30.7214   24.2302 H   0  0  0  0  0  0
  -17.5037  -31.6262   24.5137 H   0  0  0  0  0  0
  -15.5364  -30.3008   23.7609 H   0  0  0  0  0  0
  -15.8667  -28.0823   22.7066 H   0  0  0  0  0  0
  -24.5779  -30.7248   25.7815 H   0  0  0  0  0  0
  -24.8960  -32.3056   26.4826 H   0  0  0  0  0  0
  -25.7985  -30.9033   27.0246 H   0  0  0  0  0  0
  -26.2829  -29.6904   24.0936 H   0  0  0  0  0  0
  -27.3858  -29.7189   25.4494 H   0  0  0  0  0  0
  -27.8722  -30.4395   23.9320 H   0  0  0  0  0  0
  -27.2614  -33.3508   26.2223 H   0  0  0  0  0  0
  -28.3793  -32.6979   25.0314 H   0  0  0  0  0  0
  -28.0734  -31.8302   26.5287 H   0  0  0  0  0  0
  -28.2608  -38.0120   24.7533 H   0  0  0  0  0  0
  -28.1128  -36.2659   24.6261 H   0  0  0  0  0  0
  -27.2333  -37.1420   25.8857 H   0  0  0  0  0  0
  -20.9283  -29.8863   21.7062 H   0  0  0  0  0  0
  -26.0212  -38.2892   24.1399 H   0  0  0  0  0  0
  -28.8142  -17.9052   22.7158 H   0  0  0  0  0  0
  -29.8832  -19.5327   18.8551 H   0  0  0  0  0  0
  -24.7552  -21.0859   25.3847 H   0  0  0  0  0  0
  -25.3439  -22.0168   23.9540 H   0  0  0  0  0  0
  -25.2360  -19.8930   22.7605 H   0  0  0  0  0  0
  -25.2264  -18.9792   24.3106 H   0  0  0  0  0  0
  -27.0255  -20.5090   26.0181 H   0  0  0  0  0  0
  -27.5494  -21.8709   24.9748 H   0  0  0  0  0  0
  -27.6413  -19.0353   24.2287 H   0  0  0  0  0  0
  -31.4148  -17.1226   20.5537 H   0  0  0  0  0  0
  -30.4070  -16.9294   19.1490 H   0  0  0  0  0  0
  -29.6697  -22.9260   21.2526 H   0  0  0  0  0  0
  -27.9631  -22.9617   21.5942 H   0  0  0  0  0  0
  -29.0764  -21.7852   19.0051 H   0  0  0  0  0  0
  -27.4437  -21.6360   19.5862 H   0  0  0  0  0  0
  -27.7394  -24.2049   19.2548 H   0  0  0  0  0  0
  -29.4692  -24.4670   19.4137 H   0  0  0  0  0  0
  -27.5022  -21.5287   22.5320 H   0  0  0  0  0  0
  -28.9439  -15.5084   20.9011 H   0  0  0  0  0  0
  -27.2996  -25.4125   21.1487 H   0  0  0  0  0  0
  1 25  1  0  0  0
  1 30  2  0  0  0
  1 85  1  0  0  0
  2  3  1  0  0  0
  2 25  1  0  0  0
  2 87  1  0  0  0
  2 88  1  0  0  0
  3  4  1  0  0  0
  3 89  1  0  0  0
  3 90  1  0  0  0
  4  5  1  0  0  0
  4 91  1  0  0  0
  4 92  1  0  0  0
  5  6  1  0  0  0
  5 26  1  0  0  0
  5 93  1  0  0  0
  6 25  1  0  0  0
  6 94  1  0  0  0
  6 95  1  0  0  0
  7  8  2  0  0  0
  7 26  1  0  0  0
  7 29  1  0  0  0
  8  9  1  0  0  0
  8 22  1  0  0  0
  9 10  1  0  0  0
  9 27  2  0  0  0
 10 11  2  0  0  0
 10 15  1  0  0  0
 11 12  1  0  0  0
 11 96  1  0  0  0
 12 13  2  0  0  0
 12 97  1  0  0  0
 13 14  1  0  0  0
 13 31  1  0  0  0
 14 15  2  0  0  0
 14 98  1  0  0  0
 15 99  1  0  0  0
 16 17  2  0  0  0
 16 21  1  0  0  0
 16 31  1  0  0  0
 17 18  1  0  0  0
 17100  1  0  0  0
 18 19  2  0  0  0
 18101  1  0  0  0
 19 20  1  0  0  0
 19 24  1  0  0  0
 20 21  2  0  0  0
 20102  1  0  0  0
 21 23  1  0  0  0
 22 28  1  0  0  0
 22 32  2  0  0  0
 26 27  1  0  0  0
 28103  1  0  0  0
 28104  1  0  0  0
 29105  1  0  0  0
 29106  1  0  0  0
 33 34  1  0  0  0
 33 66  1  0  0  0
 33 70  2  0  0  0
 34 36  1  0  0  0
 34 59  1  0  0  0
 34107  1  0  0  0
 35 44  2  0  0  0
 35 45  1  0  0  0
 35 68  1  0  0  0
 36 56  1  0  0  0
 36108  1  0  0  0
 37 39  1  0  0  0
 37 47  1  0  0  0
 37 66  1  0  0  0
 37109  1  0  0  0
 38 43  2  0  0  0
 38 46  1  0  0  0
 38 47  1  0  0  0
 39 64  1  0  0  0
 39 67  2  0  0  0
 40 52  1  0  0  0
 40 53  2  0  0  0
 40 58  1  0  0  0
 41110  1  0  0  0
 41111  1  0  0  0
 41112  1  0  0  0
 41 48  1  0  0  0
 42 43  1  0  0  0
 42 66  1  0  0  0
 42113  1  0  0  0
 42114  1  0  0  0
 43 44  1  0  0  0
 44115  1  0  0  0
 45 46  2  0  0  0
 45116  1  0  0  0
 46117  1  0  0  0
 47118  1  0  0  0
 47119  1  0  0  0
 48 56  1  0  0  0
 48 65  1  0  0  0
 48120  1  0  0  0
 49 50  1  0  0  0
 49 53  1  0  0  0
 49 64  1  0  0  0
 49121  1  0  0  0
 50 51  1  0  0  0
 50122  1  0  0  0
 50123  1  0  0  0
 51 52  1  0  0  0
 51124  1  0  0  0
 51125  1  0  0  0
 52126  1  0  0  0
 52127  1  0  0  0
 53 54  1  0  0  0
 54 55  2  0  0  0
 54128  1  0  0  0
 55 57  1  0  0  0
 55129  1  0  0  0
 56 69  2  0  0  0
 57 58  2  0  0  0
 57130  1  0  0  0
 58131  1  0  0  0
 59 60  1  0  0  0
 59 61  1  0  0  0
 59 62  1  0  0  0
 60132  1  0  0  0
 60133  1  0  0  0
 60134  1  0  0  0
 61135  1  0  0  0
 61136  1  0  0  0
 61137  1  0  0  0
 62138  1  0  0  0
 62139  1  0  0  0
 62140  1  0  0  0
 63 65  1  0  0  0
 63141  1  0  0  0
 63142  1  0  0  0
 63143  1  0  0  0
 64144  1  0  0  0
 65145  1  0  0  0
 68 86  1  0  0  0
 71 73  1  0  0  0
 71 74  2  0  0  0
 71146  1  0  0  0
 72 73  2  0  0  0
 72 83  1  0  0  0
 72147  1  0  0  0
 73 79  1  0  0  0
 74 83  1  0  0  0
 74 84  1  0  0  0
 75 76  1  0  0  0
 75 77  1  0  0  0
 75148  1  0  0  0
 75149  1  0  0  0
 76 78  1  0  0  0
 76150  1  0  0  0
 76151  1  0  0  0
 77 78  1  0  0  0
 77152  1  0  0  0
 77153  1  0  0  0
 78 84  1  0  0  0
 78154  1  0  0  0
 79 85  1  0  0  0
 79155  1  0  0  0
 79156  1  0  0  0
 80 81  1  0  0  0
 80 82  1  0  0  0
 80157  1  0  0  0
 80158  1  0  0  0
 81 83  1  0  0  0
 81159  1  0  0  0
 81160  1  0  0  0
 82 86  1  0  0  0
 82161  1  0  0  0
 82162  1  0  0  0
 84163  1  0  0  0
 85164  1  0  0  0
 86165  1  0  0  0
M  ISO  4   1 100  68 101  85 100  86 101
M  END
> <chiral flag>
0

> <version>
0

> <s_m_source_file>
/data/baiqing/PycharmProjects/Reinvent-master-3.2/result/LINK_invent/BTK/process_docking_weight1_custom_sum_contain_oxygen_bond_distance_aromatic_linkinvent_7_9_3/rearranged_h_0105.sdf

> <i_m_source_file_index>
50

> <r_mmod_Potential_Energy-OPLS-2005>
-102.136512756348

> <r_mmod_Stretch_Energy-OPLS-2005>
41.3838768005371

> <r_mmod_Bend_Energy-OPLS-2005>
129.777252197266

> <r_mmod_Torsional_Energy-OPLS-2005>
262.393402099609

> <r_mmod_Improper_Torsional_Energy-OPLS-2005>
8.53412818908691

> <r_mmod_Van_der_Waal_Energy-OPLS-2005>
122.175636291504

> <r_mmod_Electrostatic_Energy-OPLS-2005>
-464.973297119141

> <r_mmod_Solvation_Energy-OPLS-2005>
-222.675720214844

> <b_mmod_Minimization_Converged-OPLS-2005>
0

> <r_mmod_RMS_Derivative-OPLS-2005>
3.80340051651001

$$$$
50
                    3D
 Structure written by MMmdl.
160168  0  0  1  0            999 V2000
  -30.3252  -15.6593   20.3233 C   0  0  0  0  0  0
  -30.4254  -13.0839   19.5772 C   0  0  0  0  0  0
  -29.5568  -12.6933   18.3442 C   0  0  0  0  0  0
  -28.1327  -12.3203   18.7782 C   0  0  0  0  0  0
  -27.6005  -13.3219   19.8261 C   0  0  2  0  0  0
  -28.6120  -13.6645   20.9527 C   0  0  0  0  0  0
  -25.2303  -13.8299   20.5815 C   0  0  0  0  0  0
  -24.1694  -13.0440   20.9275 C   0  0  0  0  0  0
  -24.6403  -11.6946   20.8719 C   0  0  0  0  0  0
  -23.9099  -10.4290   21.0360 C   0  0  0  0  0  0
  -24.3624   -9.4210   21.9164 C   0  0  0  0  0  0
  -23.6303   -8.2238   22.0737 C   0  0  0  0  0  0
  -22.4294   -8.0259   21.3520 C   0  0  0  0  0  0
  -21.9930   -9.0234   20.4617 C   0  0  0  0  0  0
  -22.7250  -10.2126   20.3030 C   0  0  0  0  0  0
  -21.6861   -6.0708   22.5263 C   0  0  0  0  0  0
  -21.4024   -6.5625   23.8190 C   0  0  0  0  0  0
  -21.3684   -5.6773   24.9158 C   0  0  0  0  0  0
  -21.6054   -4.3032   24.7213 C   0  0  0  0  0  0
  -21.8817   -3.8119   23.4337 C   0  0  0  0  0  0
  -21.9189   -4.6935   22.3395 C   0  0  0  0  0  0
  -22.7696  -13.5146   21.1924 C   0  0  0  0  0  0
  -22.1662   -4.2115   21.0974 F   0  0  0  0  0  0
  -21.5641   -3.4533   25.7734 F   0  0  0  0  0  0
  -29.8070  -14.2812   20.3235 N   0  0  0  0  0  0
  -26.2784  -12.9669   20.3290 N   0  0  0  0  0  0
  -25.9360  -11.6701   20.5667 N   0  0  0  0  0  0
  -22.0378  -12.8119   22.0480 N   0  0  0  0  0  0
  -25.3909  -15.2051   20.4282 N   0  0  0  0  0  0
  -31.5328  -15.5882   20.0350 O   0  0  0  0  0  0
  -21.6643   -6.8872   21.4236 O   0  0  0  0  0  0
  -22.3353  -14.5428   20.6726 O   0  0  0  0  0  0
  -24.6867  -31.7965   23.1471 C   0  0  0  0  0  0
  -25.9415  -32.4461   23.8037 C   0  0  1  0  0  0
  -27.2385  -26.6833   20.2062 C   0  0  0  0  0  0
  -25.5990  -33.8288   24.1948 N   0  0  0  0  0  0
  -23.5164  -30.3933   21.5026 C   0  0  2  0  0  0
  -24.9750  -28.7278   20.1189 C   0  0  0  0  0  0
  -22.7786  -29.4276   22.4699 C   0  0  0  0  0  0
  -18.0349  -28.1425   22.8440 C   0  0  0  0  0  0
  -24.1500  -36.7180   23.2646 C   0  0  0  0  0  0
  -26.0965  -30.5196   21.4141 C   0  0  0  0  0  0
  -26.1632  -29.0810   20.7690 C   0  0  0  0  0  0
  -27.2776  -28.0850   20.7807 C   0  0  0  0  0  0
  -26.0146  -26.5404   19.5013 C   0  0  0  0  0  0
  -24.9394  -27.4826   19.4654 C   0  0  0  0  0  0
  -23.7717  -29.6844   20.1401 C   0  0  0  0  0  0
  -25.4147  -36.2915   24.0281 C   0  0  1  0  0  0
  -20.5976  -28.3781   23.1140 C   0  0  2  0  0  0
  -20.6807  -26.9437   22.5398 C   0  0  0  0  0  0
  -19.5790  -26.6369   21.5206 C   0  0  0  0  0  0
  -18.1974  -26.7949   22.1607 C   0  0  0  0  0  0
  -19.1609  -28.8927   23.2774 C   0  0  0  0  0  0
  -18.9501  -30.1505   23.8826 C   0  0  0  0  0  0
  -17.6493  -30.6601   24.0550 C   0  0  0  0  0  0
  -25.9120  -34.9290   23.4961 C   0  0  0  0  0  0
  -16.5386  -29.9082   23.6348 C   0  0  0  0  0  0
  -16.7330  -28.6510   23.0356 C   0  0  0  0  0  0
  -26.4587  -31.6499   25.0671 C   0  0  0  0  0  0
  -25.3649  -31.3808   26.1284 C   0  0  0  0  0  0
  -27.0506  -30.2838   24.6542 C   0  0  0  0  0  0
  -27.6052  -32.4336   25.7510 C   0  0  0  0  0  0
  -27.5575  -37.1749   24.8458 C   0  0  0  0  0  0
  -21.4425  -29.3027   22.3463 N   0  0  0  0  0  0
  -26.4282  -37.3664   23.9402 N   0  0  0  0  0  0
  -24.7910  -30.9350   22.0763 N   0  0  0  0  0  0
  -23.4214  -28.7864   23.3048 O   0  0  0  0  0  0
  -28.2074  -25.4642   20.3008 O   0  0  0  0  0  0
  -26.5758  -34.8863   22.4582 O   0  0  0  0  0  0
  -23.5881  -32.1040   23.6415 O   0  0  0  0  0  0
  -29.8027  -22.6586   21.5924 C   0  0  0  0  0  0
  -29.0834  -22.2026   20.5343 C   0  0  0  0  0  0
  -29.5690  -20.5745   20.5161 C   0  0  0  0  0  0
  -30.8522  -20.7636   21.0384 C   0  0  0  0  0  0
  -32.0165  -20.9325   23.9811 C   0  0  0  0  0  0
  -33.3524  -21.0383   20.5333 C   0  0  0  0  0  0
  -32.2448  -19.0869   19.5915 C   0  0  0  0  0  0
  -29.3161  -18.7571   20.0070 C   0  0  0  0  0  0
  -28.0687  -23.7188   20.0443 C   0  0  0  0  0  0
  -31.6408  -22.1375   23.1146 C   0  0  0  0  0  0
  -32.1938  -20.0479   20.7973 C   0  0  0  0  0  0
  -30.7867  -21.7999   21.9716 N   0  0  0  0  0  0
  -29.5813  -17.0313   20.4917 N   0  0  0  0  0  0
  -31.4349  -13.3105   19.2340 H   0  0  0  0  0  0
  -30.5452  -12.2263   20.2420 H   0  0  0  0  0  0
  -30.0089  -11.8730   17.7881 H   0  0  0  0  0  0
  -29.5171  -13.5434   17.6608 H   0  0  0  0  0  0
  -28.1628  -11.3203   19.2112 H   0  0  0  0  0  0
  -27.4680  -12.2679   17.9157 H   0  0  0  0  0  0
  -27.4617  -14.2426   19.2559 H   0  0  0  0  0  0
  -28.8597  -12.7802   21.5421 H   0  0  0  0  0  0
  -28.1700  -14.3837   21.6446 H   0  0  0  0  0  0
  -25.2774   -9.5682   22.4743 H   0  0  0  0  0  0
  -23.9995   -7.4626   22.7461 H   0  0  0  0  0  0
  -21.0858   -8.8720   19.8941 H   0  0  0  0  0  0
  -22.3664  -10.9642   19.6121 H   0  0  0  0  0  0
  -21.2021   -7.6126   23.9681 H   0  0  0  0  0  0
  -21.1534   -6.0514   25.9056 H   0  0  0  0  0  0
  -22.0584   -2.7578   23.2839 H   0  0  0  0  0  0
  -22.4013  -11.9812   22.4921 H   0  0  0  0  0  0
  -21.0961  -13.1067   22.2655 H   0  0  0  0  0  0
  -24.6176  -15.8549   20.5249 H   0  0  0  0  0  0
  -26.2341  -15.6454   20.0860 H   0  0  0  0  0  0
  -26.7509  -32.4933   23.0770 H   0  0  0  0  0  0
  -25.0063  -33.9319   25.0052 H   0  0  0  0  0  0
  -22.8448  -31.2324   21.3072 H   0  0  0  0  0  0
  -23.3771  -35.9501   23.3255 H   0  0  0  0  0  0
  -24.3570  -36.8899   22.2071 H   0  0  0  0  0  0
  -23.7247  -37.6339   23.6754 H   0  0  0  0  0  0
  -26.2883  -31.2317   20.6103 H   0  0  0  0  0  0
  -26.9555  -30.6018   22.0675 H   0  0  0  0  0  0
  -28.1686  -28.3524   21.3291 H   0  0  0  0  0  0
  -25.8446  -25.5986   18.9989 H   0  0  0  0  0  0
  -24.0398  -27.1991   18.9365 H   0  0  0  0  0  0
  -23.9517  -30.4414   19.3758 H   0  0  0  0  0  0
  -22.8762  -29.1502   19.8156 H   0  0  0  0  0  0
  -25.1357  -36.1692   25.0768 H   0  0  0  0  0  0
  -21.0062  -28.3402   24.1266 H   0  0  0  0  0  0
  -20.5648  -26.2408   23.3662 H   0  0  0  0  0  0
  -21.6673  -26.7367   22.1224 H   0  0  0  0  0  0
  -19.6940  -25.6256   21.1294 H   0  0  0  0  0  0
  -19.6740  -27.3134   20.6703 H   0  0  0  0  0  0
  -17.4235  -26.6686   21.4015 H   0  0  0  0  0  0
  -18.0366  -26.0115   22.9029 H   0  0  0  0  0  0
  -19.7967  -30.7342   24.2167 H   0  0  0  0  0  0
  -17.5036  -31.6267   24.5174 H   0  0  0  0  0  0
  -15.5378  -30.2964   23.7707 H   0  0  0  0  0  0
  -15.8730  -28.0814   22.7110 H   0  0  0  0  0  0
  -24.5875  -30.7122   25.7570 H   0  0  0  0  0  0
  -24.8781  -32.3020   26.4488 H   0  0  0  0  0  0
  -25.7810  -30.9106   27.0205 H   0  0  0  0  0  0
  -26.3194  -29.6474   24.1540 H   0  0  0  0  0  0
  -27.3962  -29.7258   25.5255 H   0  0  0  0  0  0
  -27.9181  -30.3982   24.0044 H   0  0  0  0  0  0
  -27.2620  -33.3724   26.1876 H   0  0  0  0  0  0
  -28.3993  -32.6747   25.0431 H   0  0  0  0  0  0
  -28.0586  -31.8585   26.5597 H   0  0  0  0  0  0
  -28.2545  -38.0084   24.7515 H   0  0  0  0  0  0
  -28.1120  -36.2603   24.6290 H   0  0  0  0  0  0
  -27.2289  -37.1406   25.8856 H   0  0  0  0  0  0
  -20.9735  -29.8732   21.6557 H   0  0  0  0  0  0
  -26.0122  -38.2724   24.1377 H   0  0  0  0  0  0
  -29.7255  -23.6138   22.0993 H   0  0  0  0  0  0
  -32.1734  -21.2541   25.0100 H   0  0  0  0  0  0
  -32.9396  -20.4690   23.6389 H   0  0  0  0  0  0
  -31.2264  -20.1806   23.9885 H   0  0  0  0  0  0
  -33.1274  -21.6847   19.6849 H   0  0  0  0  0  0
  -34.2795  -20.5174   20.2929 H   0  0  0  0  0  0
  -33.5929  -21.6731   21.3797 H   0  0  0  0  0  0
  -31.7496  -18.1531   19.8088 H   0  0  0  0  0  0
  -33.2602  -18.7856   19.3306 H   0  0  0  0  0  0
  -31.8104  -19.5325   18.6957 H   0  0  0  0  0  0
  -29.6241  -18.7627   18.9611 H   0  0  0  0  0  0
  -28.2300  -18.7582   19.9335 H   0  0  0  0  0  0
  -27.0768  -23.4859   20.4274 H   0  0  0  0  0  0
  -27.9580  -23.6193   18.9640 H   0  0  0  0  0  0
  -32.4989  -22.7388   22.8186 H   0  0  0  0  0  0
  -31.0698  -22.8071   23.7596 H   0  0  0  0  0  0
  -32.4429  -19.4541   21.6756 H   0  0  0  0  0  0
  -28.7198  -16.7677   20.9458 H   0  0  0  0  0  0
  1 25  1  0  0  0
  1 30  2  0  0  0
  1 83  1  0  0  0
  2  3  1  0  0  0
  2 25  1  0  0  0
  2 84  1  0  0  0
  2 85  1  0  0  0
  3  4  1  0  0  0
  3 86  1  0  0  0
  3 87  1  0  0  0
  4  5  1  0  0  0
  4 88  1  0  0  0
  4 89  1  0  0  0
  5  6  1  0  0  0
  5 26  1  0  0  0
  5 90  1  0  0  0
  6 25  1  0  0  0
  6 91  1  0  0  0
  6 92  1  0  0  0
  7  8  2  0  0  0
  7 26  1  0  0  0
  7 29  1  0  0  0
  8  9  1  0  0  0
  8 22  1  0  0  0
  9 10  1  0  0  0
  9 27  2  0  0  0
 10 11  2  0  0  0
 10 15  1  0  0  0
 11 12  1  0  0  0
 11 93  1  0  0  0
 12 13  2  0  0  0
 12 94  1  0  0  0
 13 14  1  0  0  0
 13 31  1  0  0  0
 14 15  2  0  0  0
 14 95  1  0  0  0
 15 96  1  0  0  0
 16 17  2  0  0  0
 16 21  1  0  0  0
 16 31  1  0  0  0
 17 18  1  0  0  0
 17 97  1  0  0  0
 18 19  2  0  0  0
 18 98  1  0  0  0
 19 20  1  0  0  0
 19 24  1  0  0  0
 20 21  2  0  0  0
 20 99  1  0  0  0
 21 23  1  0  0  0
 22 28  1  0  0  0
 22 32  2  0  0  0
 26 27  1  0  0  0
 28100  1  0  0  0
 28101  1  0  0  0
 29102  1  0  0  0
 29103  1  0  0  0
 33 34  1  0  0  0
 33 66  1  0  0  0
 33 70  2  0  0  0
 34 36  1  0  0  0
 34 59  1  0  0  0
 34104  1  0  0  0
 35 44  2  0  0  0
 35 45  1  0  0  0
 35 68  1  0  0  0
 36 56  1  0  0  0
 36105  1  0  0  0
 37 39  1  0  0  0
 37 47  1  0  0  0
 37 66  1  0  0  0
 37106  1  0  0  0
 38 43  2  0  0  0
 38 46  1  0  0  0
 38 47  1  0  0  0
 39 64  1  0  0  0
 39 67  2  0  0  0
 40 52  1  0  0  0
 40 53  2  0  0  0
 40 58  1  0  0  0
 41107  1  0  0  0
 41108  1  0  0  0
 41109  1  0  0  0
 41 48  1  0  0  0
 42 43  1  0  0  0
 42 66  1  0  0  0
 42110  1  0  0  0
 42111  1  0  0  0
 43 44  1  0  0  0
 44112  1  0  0  0
 45 46  2  0  0  0
 45113  1  0  0  0
 46114  1  0  0  0
 47115  1  0  0  0
 47116  1  0  0  0
 48 56  1  0  0  0
 48 65  1  0  0  0
 48117  1  0  0  0
 49 50  1  0  0  0
 49 53  1  0  0  0
 49 64  1  0  0  0
 49118  1  0  0  0
 50 51  1  0  0  0
 50119  1  0  0  0
 50120  1  0  0  0
 51 52  1  0  0  0
 51121  1  0  0  0
 51122  1  0  0  0
 52123  1  0  0  0
 52124  1  0  0  0
 53 54  1  0  0  0
 54 55  2  0  0  0
 54125  1  0  0  0
 55 57  1  0  0  0
 55126  1  0  0  0
 56 69  2  0  0  0
 57 58  2  0  0  0
 57127  1  0  0  0
 58128  1  0  0  0
 59 60  1  0  0  0
 59 61  1  0  0  0
 59 62  1  0  0  0
 60129  1  0  0  0
 60130  1  0  0  0
 60131  1  0  0  0
 61132  1  0  0  0
 61133  1  0  0  0
 61134  1  0  0  0
 62135  1  0  0  0
 62136  1  0  0  0
 62137  1  0  0  0
 63 65  1  0  0  0
 63138  1  0  0  0
 63139  1  0  0  0
 63140  1  0  0  0
 64141  1  0  0  0
 65142  1  0  0  0
 68 79  1  0  0  0
 71 72  2  0  0  0
 71 82  1  0  0  0
 71143  1  0  0  0
 72 73  1  0  0  0
 72 79  1  0  0  0
 73 74  2  0  0  0
 73 78  1  0  0  0
 74 81  1  0  0  0
 74 82  1  0  0  0
 75 80  1  0  0  0
 75144  1  0  0  0
 75145  1  0  0  0
 75146  1  0  0  0
 76147  1  0  0  0
 76148  1  0  0  0
 76149  1  0  0  0
 76 81  1  0  0  0
 77 81  1  0  0  0
 77150  1  0  0  0
 77151  1  0  0  0
 77152  1  0  0  0
 78 83  1  0  0  0
 78153  1  0  0  0
 78154  1  0  0  0
 79155  1  0  0  0
 79156  1  0  0  0
 80 82  1  0  0  0
 80157  1  0  0  0
 80158  1  0  0  0
 81159  1  0  0  0
 83160  1  0  0  0
M  ISO  4   1 100  68 101  79 101  83 100
M  END
> <chiral flag>
0

> <version>
0

> <s_m_source_file>
/data/baiqing/PycharmProjects/Reinvent-master-3.2/result/LINK_invent/BTK/process_docking_weight1_custom_sum_contain_oxygen_bond_distance_aromatic_linkinvent_7_9_3/rearranged_h_0105.sdf

> <i_m_source_file_index>
51

> <r_mmod_Potential_Energy-OPLS-2005>
2717.43090820312

> <r_mmod_Stretch_Energy-OPLS-2005>
1215.57788085938

> <r_mmod_Bend_Energy-OPLS-2005>
752.076171875

> <r_mmod_Torsional_Energy-OPLS-2005>
324.082977294922

> <r_mmod_Improper_Torsional_Energy-OPLS-2005>
6.58529329299927

> <r_mmod_Van_der_Waal_Energy-OPLS-2005>
123.113777160645

> <r_mmod_Electrostatic_Energy-OPLS-2005>
-416.670074462891

> <r_mmod_Solvation_Energy-OPLS-2005>
-220.648590087891

> <b_mmod_Minimization_Converged-OPLS-2005>
0

> <r_mmod_RMS_Derivative-OPLS-2005>
4.1008620262146

$$$$
51
                    3D
 Structure written by MMmdl.
169177  0  0  1  0            999 V2000
  -30.6150  -14.7249   20.4581 C   0  0  0  0  0  0
  -30.4347  -12.4387   19.4842 C   0  0  0  0  0  0
  -29.5151  -12.5112   18.2443 C   0  0  0  0  0  0
  -28.0401  -12.3391   18.6535 C   0  0  0  0  0  0
  -27.6485  -13.2299   19.8631 C   0  0  2  0  0  0
  -28.6911  -13.1487   21.0020 C   0  0  0  0  0  0
  -25.2526  -13.8204   20.5696 C   0  0  0  0  0  0
  -24.1813  -13.0445   20.9198 C   0  0  0  0  0  0
  -24.6404  -11.6924   20.8749 C   0  0  0  0  0  0
  -23.9080  -10.4295   21.0409 C   0  0  0  0  0  0
  -24.3625   -9.4206   21.9188 C   0  0  0  0  0  0
  -23.6294   -8.2242   22.0759 C   0  0  0  0  0  0
  -22.4278   -8.0282   21.3541 C   0  0  0  0  0  0
  -21.9915   -9.0262   20.4644 C   0  0  0  0  0  0
  -22.7249  -10.2141   20.3055 C   0  0  0  0  0  0
  -21.6856   -6.0732   22.5274 C   0  0  0  0  0  0
  -21.4012   -6.5639   23.8204 C   0  0  0  0  0  0
  -21.3659   -5.6793   24.9166 C   0  0  0  0  0  0
  -21.6047   -4.3055   24.7224 C   0  0  0  0  0  0
  -21.8819   -3.8143   23.4345 C   0  0  0  0  0  0
  -21.9189   -4.6957   22.3397 C   0  0  0  0  0  0
  -22.7830  -13.5221   21.1850 C   0  0  0  0  0  0
  -22.1658   -4.2140   21.0977 F   0  0  0  0  0  0
  -21.5632   -3.4542   25.7741 F   0  0  0  0  0  0
  -30.0000  -13.4933   20.4311 N   0  0  0  0  0  0
  -26.2971  -12.9408   20.3331 N   0  0  0  0  0  0
  -25.9343  -11.6552   20.5784 N   0  0  0  0  0  0
  -22.0475  -12.8215   22.0409 N   0  0  0  0  0  0
  -25.4216  -15.1929   20.4109 N   0  0  0  0  0  0
  -31.7824  -14.8339   20.0749 O   0  0  0  0  0  0
  -21.6641   -6.8877   21.4239 O   0  0  0  0  0  0
  -22.3502  -14.5513   20.6683 O   0  0  0  0  0  0
  -24.6305  -31.8554   23.1986 C   0  0  0  0  0  0
  -25.9131  -32.4756   23.8336 C   0  0  1  0  0  0
  -27.2170  -27.2621   20.1444 C   0  0  0  0  0  0
  -25.5927  -33.8560   24.2260 N   0  0  0  0  0  0
  -23.4290  -30.4781   21.5393 C   0  0  2  0  0  0
  -24.8803  -28.9283   20.1042 C   0  0  0  0  0  0
  -22.7509  -29.4595   22.4880 C   0  0  0  0  0  0
  -18.0299  -28.1387   22.8490 C   0  0  0  0  0  0
  -24.1475  -36.7281   23.2644 C   0  0  0  0  0  0
  -25.9742  -30.7668   21.3826 C   0  0  0  0  0  0
  -26.0474  -29.3891   20.7283 C   0  0  0  0  0  0
  -27.2196  -28.5668   20.7425 C   0  0  0  0  0  0
  -26.0491  -26.8942   19.4426 C   0  0  0  0  0  0
  -24.8857  -27.6880   19.4476 C   0  0  0  0  0  0
  -23.6492  -29.8129   20.1538 C   0  0  0  0  0  0
  -25.4104  -36.3075   24.0331 C   0  0  1  0  0  0
  -20.5905  -28.3693   23.1260 C   0  0  2  0  0  0
  -20.6770  -26.9406   22.5405 C   0  0  0  0  0  0
  -19.5739  -26.6379   21.5212 C   0  0  0  0  0  0
  -18.1927  -26.7930   22.1633 C   0  0  0  0  0  0
  -19.1556  -28.8860   23.2870 C   0  0  0  0  0  0
  -18.9479  -30.1460   23.8890 C   0  0  0  0  0  0
  -17.6479  -30.6589   24.0567 C   0  0  0  0  0  0
  -25.9047  -34.9448   23.5101 C   0  0  0  0  0  0
  -16.5366  -29.9089   23.6331 C   0  0  0  0  0  0
  -16.7287  -28.6506   23.0356 C   0  0  0  0  0  0
  -26.4503  -31.6585   25.0735 C   0  0  0  0  0  0
  -25.3729  -31.3741   26.1457 C   0  0  0  0  0  0
  -27.0353  -30.3000   24.6231 C   0  0  0  0  0  0
  -27.6049  -32.4332   25.7511 C   0  0  0  0  0  0
  -27.5570  -37.1800   24.8472 C   0  0  0  0  0  0
  -21.4211  -29.3040   22.3642 N   0  0  0  0  0  0
  -26.4277  -37.3775   23.9418 N   0  0  0  0  0  0
  -24.6963  -31.0523   22.0960 N   0  0  0  0  0  0
  -23.4206  -28.8140   23.2986 O   0  0  0  0  0  0
  -28.2837  -26.3339   20.2045 O   0  0  0  0  0  0
  -26.5622  -34.8928   22.4667 O   0  0  0  0  0  0
  -23.5453  -32.1373   23.7278 O   0  0  0  0  0  0
  -28.9493  -19.6824   20.1448 C   0  0  0  0  0  0
  -29.7871  -18.6364   20.5423 C   0  0  0  0  0  0
  -30.6008  -19.2381   21.5570 C   0  0  0  0  0  0
  -30.2433  -20.5691   21.7092 C   0  0  0  0  0  0
  -30.7947  -21.5996   22.6488 C   0  0  0  0  0  0
  -34.1595  -18.1355   22.7263 C   0  0  0  0  0  0
  -33.3419  -18.4595   20.3593 C   0  0  0  0  0  0
  -26.6563  -24.6579   21.3048 C   0  0  0  0  0  0
  -31.6894  -18.5219   22.3278 C   0  0  0  0  0  0
  -29.9333  -17.1745   19.9165 C   0  0  0  0  0  0
  -28.8559  -23.6331   20.3204 C   0  0  0  0  0  0
  -28.3665  -22.1760   20.8546 C   0  0  0  0  0  0
  -33.1198  -18.8310   21.8353 C   0  0  0  0  0  0
  -28.1100  -24.9797   20.8744 C   0  0  1  0  0  0
  -29.1968  -20.8875   20.8468 N   0  0  0  0  0  0
  -29.8354  -15.8502   20.6677 N   0  0  0  0  0  0
  -31.4771  -12.5567   19.1823 H   0  0  0  0  0  0
  -30.3712  -11.4561   19.9545 H   0  0  0  0  0  0
  -29.7948  -11.7440   17.5210 H   0  0  0  0  0  0
  -29.6484  -13.4701   17.7405 H   0  0  0  0  0  0
  -27.8927  -11.2883   18.9059 H   0  0  0  0  0  0
  -27.3850  -12.5432   17.8055 H   0  0  0  0  0  0
  -27.6488  -14.2554   19.4948 H   0  0  0  0  0  0
  -28.7189  -12.1488   21.4370 H   0  0  0  0  0  0
  -28.4297  -13.8258   21.8169 H   0  0  0  0  0  0
  -25.2780   -9.5673   22.4754 H   0  0  0  0  0  0
  -24.0000   -7.4631   22.7484 H   0  0  0  0  0  0
  -21.0841   -8.8784   19.8955 H   0  0  0  0  0  0
  -22.3713  -10.9679   19.6153 H   0  0  0  0  0  0
  -21.2006   -7.6148   23.9701 H   0  0  0  0  0  0
  -21.1483   -6.0527   25.9067 H   0  0  0  0  0  0
  -22.0600   -2.7607   23.2850 H   0  0  0  0  0  0
  -22.4111  -11.9893   22.4821 H   0  0  0  0  0  0
  -21.1083  -13.1221   22.2602 H   0  0  0  0  0  0
  -24.6549  -15.8479   20.5215 H   0  0  0  0  0  0
  -26.2684  -15.6350   20.0788 H   0  0  0  0  0  0
  -26.7199  -32.5414   23.1078 H   0  0  0  0  0  0
  -25.0071  -33.9684   25.0405 H   0  0  0  0  0  0
  -22.7254  -31.3003   21.3925 H   0  0  0  0  0  0
  -23.3740  -35.9610   23.3307 H   0  0  0  0  0  0
  -24.3566  -36.8901   22.2058 H   0  0  0  0  0  0
  -23.7226  -37.6487   23.6657 H   0  0  0  0  0  0
  -26.1140  -31.5243   20.6106 H   0  0  0  0  0  0
  -26.8507  -30.8171   22.0164 H   0  0  0  0  0  0
  -28.1082  -28.9080   21.2550 H   0  0  0  0  0  0
  -26.0213  -25.9501   18.9179 H   0  0  0  0  0  0
  -24.0012  -27.3382   18.9339 H   0  0  0  0  0  0
  -23.7735  -30.5897   19.3982 H   0  0  0  0  0  0
  -22.7688  -29.2456   19.8474 H   0  0  0  0  0  0
  -25.1280  -36.1923   25.0826 H   0  0  0  0  0  0
  -21.0008  -28.3269   24.1377 H   0  0  0  0  0  0
  -20.5651  -26.2307   23.3613 H   0  0  0  0  0  0
  -21.6637  -26.7405   22.1213 H   0  0  0  0  0  0
  -19.6887  -25.6288   21.1246 H   0  0  0  0  0  0
  -19.6675  -27.3188   20.6740 H   0  0  0  0  0  0
  -17.4192  -26.6690   21.4037 H   0  0  0  0  0  0
  -18.0322  -26.0072   22.9029 H   0  0  0  0  0  0
  -19.7957  -30.7278   24.2251 H   0  0  0  0  0  0
  -17.5037  -31.6274   24.5159 H   0  0  0  0  0  0
  -15.5368  -30.2992   23.7659 H   0  0  0  0  0  0
  -15.8685  -28.0825   22.7067 H   0  0  0  0  0  0
  -24.5905  -30.7083   25.7803 H   0  0  0  0  0  0
  -24.8918  -32.2910   26.4870 H   0  0  0  0  0  0
  -25.8060  -30.8942   27.0242 H   0  0  0  0  0  0
  -26.2948  -29.6750   24.1227 H   0  0  0  0  0  0
  -27.3997  -29.7269   25.4768 H   0  0  0  0  0  0
  -27.8839  -30.4267   23.9505 H   0  0  0  0  0  0
  -27.2644  -33.3630   26.2077 H   0  0  0  0  0  0
  -28.3872  -32.6893   25.0357 H   0  0  0  0  0  0
  -28.0697  -31.8463   26.5444 H   0  0  0  0  0  0
  -28.2601  -38.0082   24.7508 H   0  0  0  0  0  0
  -28.1048  -36.2619   24.6301 H   0  0  0  0  0  0
  -27.2288  -37.1459   25.8875 H   0  0  0  0  0  0
  -20.9390  -29.8789   21.6878 H   0  0  0  0  0  0
  -26.0156  -38.2853   24.1420 H   0  0  0  0  0  0
  -28.1645  -19.6728   19.3997 H   0  0  0  0  0  0
  -31.5374  -21.1727   23.3229 H   0  0  0  0  0  0
  -30.0130  -22.0364   23.2702 H   0  0  0  0  0  0
  -31.2828  -22.4041   22.0983 H   0  0  0  0  0  0
  -35.1755  -18.3618   22.4008 H   0  0  0  0  0  0
  -34.0386  -17.0518   22.7082 H   0  0  0  0  0  0
  -34.0696  -18.4597   23.7635 H   0  0  0  0  0  0
  -34.3563  -18.7008   20.0388 H   0  0  0  0  0  0
  -32.6635  -19.0071   19.7047 H   0  0  0  0  0  0
  -33.1832  -17.3946   20.1873 H   0  0  0  0  0  0
  -26.1664  -25.5097   21.7751 H   0  0  0  0  0  0
  -26.0451  -24.3254   20.4675 H   0  0  0  0  0  0
  -26.6173  -23.8716   22.0556 H   0  0  0  0  0  0
  -31.5065  -17.4477   22.2847 H   0  0  0  0  0  0
  -31.5912  -18.7919   23.3804 H   0  0  0  0  0  0
  -30.8852  -17.1821   19.3860 H   0  0  0  0  0  0
  -29.1908  -17.1120   19.1203 H   0  0  0  0  0  0
  -29.9229  -23.7391   20.5189 H   0  0  0  0  0  0
  -28.7733  -23.6204   19.2341 H   0  0  0  0  0  0
  -27.4236  -21.9461   20.3568 H   0  0  0  0  0  0
  -28.0931  -22.3016   21.9010 H   0  0  0  0  0  0
  -33.2796  -19.9063   21.9281 H   0  0  0  0  0  0
  -28.6080  -25.1575   21.8282 H   0  0  0  0  0  0
  -28.9259  -15.6572   21.0581 H   0  0  0  0  0  0
  1 25  1  0  0  0
  1 30  2  0  0  0
  1 86  1  0  0  0
  2  3  1  0  0  0
  2 25  1  0  0  0
  2 87  1  0  0  0
  2 88  1  0  0  0
  3  4  1  0  0  0
  3 89  1  0  0  0
  3 90  1  0  0  0
  4  5  1  0  0  0
  4 91  1  0  0  0
  4 92  1  0  0  0
  5  6  1  0  0  0
  5 26  1  0  0  0
  5 93  1  0  0  0
  6 25  1  0  0  0
  6 94  1  0  0  0
  6 95  1  0  0  0
  7  8  2  0  0  0
  7 26  1  0  0  0
  7 29  1  0  0  0
  8  9  1  0  0  0
  8 22  1  0  0  0
  9 10  1  0  0  0
  9 27  2  0  0  0
 10 11  2  0  0  0
 10 15  1  0  0  0
 11 12  1  0  0  0
 11 96  1  0  0  0
 12 13  2  0  0  0
 12 97  1  0  0  0
 13 14  1  0  0  0
 13 31  1  0  0  0
 14 15  2  0  0  0
 14 98  1  0  0  0
 15 99  1  0  0  0
 16 17  2  0  0  0
 16 21  1  0  0  0
 16 31  1  0  0  0
 17 18  1  0  0  0
 17100  1  0  0  0
 18 19  2  0  0  0
 18101  1  0  0  0
 19 20  1  0  0  0
 19 24  1  0  0  0
 20 21  2  0  0  0
 20102  1  0  0  0
 21 23  1  0  0  0
 22 28  1  0  0  0
 22 32  2  0  0  0
 26 27  1  0  0  0
 28103  1  0  0  0
 28104  1  0  0  0
 29105  1  0  0  0
 29106  1  0  0  0
 33 34  1  0  0  0
 33 66  1  0  0  0
 33 70  2  0  0  0
 34 36  1  0  0  0
 34 59  1  0  0  0
 34107  1  0  0  0
 35 44  2  0  0  0
 35 45  1  0  0  0
 35 68  1  0  0  0
 36 56  1  0  0  0
 36108  1  0  0  0
 37 39  1  0  0  0
 37 47  1  0  0  0
 37 66  1  0  0  0
 37109  1  0  0  0
 38 43  2  0  0  0
 38 46  1  0  0  0
 38 47  1  0  0  0
 39 64  1  0  0  0
 39 67  2  0  0  0
 40 52  1  0  0  0
 40 53  2  0  0  0
 40 58  1  0  0  0
 41110  1  0  0  0
 41111  1  0  0  0
 41112  1  0  0  0
 41 48  1  0  0  0
 42 43  1  0  0  0
 42 66  1  0  0  0
 42113  1  0  0  0
 42114  1  0  0  0
 43 44  1  0  0  0
 44115  1  0  0  0
 45 46  2  0  0  0
 45116  1  0  0  0
 46117  1  0  0  0
 47118  1  0  0  0
 47119  1  0  0  0
 48 56  1  0  0  0
 48 65  1  0  0  0
 48120  1  0  0  0
 49 50  1  0  0  0
 49 53  1  0  0  0
 49 64  1  0  0  0
 49121  1  0  0  0
 50 51  1  0  0  0
 50122  1  0  0  0
 50123  1  0  0  0
 51 52  1  0  0  0
 51124  1  0  0  0
 51125  1  0  0  0
 52126  1  0  0  0
 52127  1  0  0  0
 53 54  1  0  0  0
 54 55  2  0  0  0
 54128  1  0  0  0
 55 57  1  0  0  0
 55129  1  0  0  0
 56 69  2  0  0  0
 57 58  2  0  0  0
 57130  1  0  0  0
 58131  1  0  0  0
 59 60  1  0  0  0
 59 61  1  0  0  0
 59 62  1  0  0  0
 60132  1  0  0  0
 60133  1  0  0  0
 60134  1  0  0  0
 61135  1  0  0  0
 61136  1  0  0  0
 61137  1  0  0  0
 62138  1  0  0  0
 62139  1  0  0  0
 62140  1  0  0  0
 63 65  1  0  0  0
 63141  1  0  0  0
 63142  1  0  0  0
 63143  1  0  0  0
 64144  1  0  0  0
 65145  1  0  0  0
 68 84  1  0  0  0
 71 72  2  0  0  0
 71 85  1  0  0  0
 71146  1  0  0  0
 72 73  1  0  0  0
 72 80  1  0  0  0
 73 74  2  0  0  0
 73 79  1  0  0  0
 74 75  1  0  0  0
 74 85  1  0  0  0
 75147  1  0  0  0
 75148  1  0  0  0
 75149  1  0  0  0
 76150  1  0  0  0
 76151  1  0  0  0
 76152  1  0  0  0
 76 83  1  0  0  0
 77 83  1  0  0  0
 77153  1  0  0  0
 77154  1  0  0  0
 77155  1  0  0  0
 78156  1  0  0  0
 78157  1  0  0  0
 78158  1  0  0  0
 78 84  1  0  0  0
 79 83  1  0  0  0
 79159  1  0  0  0
 79160  1  0  0  0
 80 86  1  0  0  0
 80161  1  0  0  0
 80162  1  0  0  0
 81 82  1  0  0  0
 81 84  1  0  0  0
 81163  1  0  0  0
 81164  1  0  0  0
 82 85  1  0  0  0
 82165  1  0  0  0
 82166  1  0  0  0
 83167  1  0  0  0
 84168  1  0  0  0
 86169  1  0  0  0
M  ISO  4   1 100  68 101  84 101  86 100
M  END
> <chiral flag>
0

> <version>
0

> <s_m_source_file>
/data/baiqing/PycharmProjects/Reinvent-master-3.2/result/LINK_invent/BTK/process_docking_weight1_custom_sum_contain_oxygen_bond_distance_aromatic_linkinvent_7_9_3/rearranged_h_0105.sdf

> <i_m_source_file_index>
52

> <r_mmod_Potential_Energy-OPLS-2005>
149.837829589844

> <r_mmod_Stretch_Energy-OPLS-2005>
124.788261413574

> <r_mmod_Bend_Energy-OPLS-2005>
193.705795288086

> <r_mmod_Torsional_Energy-OPLS-2005>
270.190521240234

> <r_mmod_Improper_Torsional_Energy-OPLS-2005>
9.69657897949219

> <r_mmod_Van_der_Waal_Energy-OPLS-2005>
114.458877563477

> <r_mmod_Electrostatic_Energy-OPLS-2005>
-440.293609619141

> <r_mmod_Solvation_Energy-OPLS-2005>
-206.705764770508

> <b_mmod_Minimization_Converged-OPLS-2005>
0

> <r_mmod_RMS_Derivative-OPLS-2005>
1.47065258026123

$$$$
52
                    3D
 Structure written by MMmdl.
171180  0  0  1  0            999 V2000
  -30.5729  -14.8645   20.4295 C   0  0  0  0  0  0
  -30.4408  -12.5311   19.4858 C   0  0  0  0  0  0
  -29.5168  -12.5068   18.2460 C   0  0  0  0  0  0
  -28.0481  -12.3094   18.6665 C   0  0  0  0  0  0
  -27.6362  -13.2384   19.8389 C   0  0  2  0  0  0
  -28.6808  -13.2347   20.9760 C   0  0  0  0  0  0
  -25.2510  -13.8204   20.5704 C   0  0  0  0  0  0
  -24.1811  -13.0444   20.9231 C   0  0  0  0  0  0
  -24.6411  -11.6921   20.8764 C   0  0  0  0  0  0
  -23.9098  -10.4290   21.0417 C   0  0  0  0  0  0
  -24.3644   -9.4200   21.9193 C   0  0  0  0  0  0
  -23.6311   -8.2239   22.0753 C   0  0  0  0  0  0
  -22.4289   -8.0287   21.3549 C   0  0  0  0  0  0
  -21.9937   -9.0262   20.4650 C   0  0  0  0  0  0
  -22.7274  -10.2138   20.3060 C   0  0  0  0  0  0
  -21.6852   -6.0756   22.5286 C   0  0  0  0  0  0
  -21.4006   -6.5654   23.8221 C   0  0  0  0  0  0
  -21.3648   -5.6804   24.9181 C   0  0  0  0  0  0
  -21.6031   -4.3067   24.7234 C   0  0  0  0  0  0
  -21.8824   -3.8162   23.4353 C   0  0  0  0  0  0
  -21.9195   -4.6982   22.3408 C   0  0  0  0  0  0
  -22.7831  -13.5221   21.1882 C   0  0  0  0  0  0
  -22.1667   -4.2165   21.0989 F   0  0  0  0  0  0
  -21.5622   -3.4546   25.7747 F   0  0  0  0  0  0
  -29.9684  -13.6176   20.3856 N   0  0  0  0  0  0
  -26.2929  -12.9416   20.3244 N   0  0  0  0  0  0
  -25.9342  -11.6559   20.5755 N   0  0  0  0  0  0
  -22.0472  -12.8192   22.0421 N   0  0  0  0  0  0
  -25.4212  -15.1924   20.4103 N   0  0  0  0  0  0
  -31.7668  -14.9492   20.1273 O   0  0  0  0  0  0
  -21.6641   -6.8891   21.4245 O   0  0  0  0  0  0
  -22.3513  -14.5528   20.6728 O   0  0  0  0  0  0
  -24.6410  -31.8473   23.1924 C   0  0  0  0  0  0
  -25.9195  -32.4723   23.8291 C   0  0  1  0  0  0
  -27.2012  -27.1689   20.1419 C   0  0  0  0  0  0
  -25.5956  -33.8526   24.2201 N   0  0  0  0  0  0
  -23.4413  -30.4707   21.5391 C   0  0  2  0  0  0
  -24.8867  -28.9084   20.1097 C   0  0  0  0  0  0
  -22.7546  -29.4575   22.4887 C   0  0  0  0  0  0
  -18.0290  -28.1413   22.8469 C   0  0  0  0  0  0
  -24.1480  -36.7261   23.2643 C   0  0  0  0  0  0
  -25.9964  -30.7324   21.3854 C   0  0  0  0  0  0
  -26.0651  -29.3464   20.7290 C   0  0  0  0  0  0
  -27.2274  -28.4909   20.7323 C   0  0  0  0  0  0
  -26.0066  -26.8384   19.4668 C   0  0  0  0  0  0
  -24.8679  -27.6654   19.4640 C   0  0  0  0  0  0
  -23.6624  -29.8060   20.1560 C   0  0  0  0  0  0
  -25.4108  -36.3051   24.0320 C   0  0  1  0  0  0
  -20.5906  -28.3728   23.1248 C   0  0  2  0  0  0
  -20.6780  -26.9442   22.5406 C   0  0  0  0  0  0
  -19.5757  -26.6399   21.5216 C   0  0  0  0  0  0
  -18.1936  -26.7957   22.1612 C   0  0  0  0  0  0
  -19.1553  -28.8886   23.2855 C   0  0  0  0  0  0
  -18.9477  -30.1481   23.8884 C   0  0  0  0  0  0
  -17.6476  -30.6607   24.0572 C   0  0  0  0  0  0
  -25.9059  -34.9423   23.5069 C   0  0  0  0  0  0
  -16.5362  -29.9105   23.6347 C   0  0  0  0  0  0
  -16.7278  -28.6529   23.0358 C   0  0  0  0  0  0
  -26.4513  -31.6596   25.0737 C   0  0  0  0  0  0
  -25.3688  -31.3790   26.1434 C   0  0  0  0  0  0
  -27.0379  -30.3004   24.6294 C   0  0  0  0  0  0
  -27.6059  -32.4351   25.7508 C   0  0  0  0  0  0
  -27.5561  -37.1782   24.8468 C   0  0  0  0  0  0
  -21.4247  -29.3058   22.3631 N   0  0  0  0  0  0
  -26.4267  -37.3768   23.9426 N   0  0  0  0  0  0
  -24.7135  -31.0361   22.0949 N   0  0  0  0  0  0
  -23.4209  -28.8098   23.3004 O   0  0  0  0  0  0
  -28.2284  -26.1677   20.1806 O   0  0  0  0  0  0
  -26.5650  -34.8917   22.4646 O   0  0  0  0  0  0
  -23.5541  -32.1334   23.7161 O   0  0  0  0  0  0
  -29.1400  -21.2449   21.5459 C   0  0  0  0  0  0
  -28.7147  -21.0383   19.2289 C   0  0  0  0  0  0
  -29.0365  -20.3400   20.4491 C   0  0  0  0  0  0
  -28.4630  -22.4894   19.2084 C   0  0  0  0  0  0
  -28.5255  -23.2907   20.4050 C   0  0  0  0  0  0
  -27.3187  -19.4405   16.0762 C   0  0  0  0  0  0
  -27.1517  -19.8437   17.5407 C   0  0  0  0  0  0
  -28.5315  -20.2448   15.5794 C   0  0  0  0  0  0
  -28.5877  -20.1710   17.9652 C   0  0  1  0  0  0
  -28.0691  -23.2256   17.9250 C   0  0  0  0  0  0
  -31.4212  -21.3376   15.6279 C   0  0  0  0  0  0
  -28.9800  -18.7115   20.6897 C   0  0  0  0  0  0
  -27.8135  -24.7574   20.6434 C   0  0  0  0  0  0
  -30.1096  -17.5409   20.3700 C   0  0  0  0  0  0
  -30.7332  -20.5490   16.7556 C   0  0  0  0  0  0
  -28.9006  -22.6033   21.5269 N   0  0  0  0  0  0
  -29.7913  -16.0255   20.5936 N   0  0  0  0  0  0
  -29.2596  -20.7355   16.7777 N   0  3  1  0  0  0
  -31.4758  -12.6758   19.1721 H   0  0  0  0  0  0
  -30.4199  -11.5714   20.0035 H   0  0  0  0  0  0
  -29.8186  -11.7087   17.5656 H   0  0  0  0  0  0
  -29.6166  -13.4398   17.6892 H   0  0  0  0  0  0
  -27.9332  -11.2671   18.9674 H   0  0  0  0  0  0
  -27.3837  -12.4514   17.8132 H   0  0  0  0  0  0
  -27.6102  -14.2452   19.4198 H   0  0  0  0  0  0
  -28.7479  -12.2525   21.4454 H   0  0  0  0  0  0
  -28.3959  -13.9351   21.7630 H   0  0  0  0  0  0
  -25.2791   -9.5669   22.4774 H   0  0  0  0  0  0
  -24.0020   -7.4624   22.7468 H   0  0  0  0  0  0
  -21.0871   -8.8788   19.8952 H   0  0  0  0  0  0
  -22.3745  -10.9681   19.6166 H   0  0  0  0  0  0
  -21.1990   -7.6161   23.9731 H   0  0  0  0  0  0
  -21.1453   -6.0533   25.9086 H   0  0  0  0  0  0
  -22.0609   -2.7623   23.2852 H   0  0  0  0  0  0
  -22.4102  -11.9850   22.4793 H   0  0  0  0  0  0
  -21.1079  -13.1184   22.2604 H   0  0  0  0  0  0
  -24.6536  -15.8465   20.5217 H   0  0  0  0  0  0
  -26.2602  -15.6256   20.0475 H   0  0  0  0  0  0
  -26.7257  -32.5328   23.1013 H   0  0  0  0  0  0
  -25.0088  -33.9651   25.0343 H   0  0  0  0  0  0
  -22.7431  -31.2968   21.3879 H   0  0  0  0  0  0
  -23.3762  -35.9573   23.3290 H   0  0  0  0  0  0
  -24.3561  -36.8904   22.2063 H   0  0  0  0  0  0
  -23.7204  -37.6439   23.6681 H   0  0  0  0  0  0
  -26.1429  -31.4864   20.6098 H   0  0  0  0  0  0
  -26.8718  -30.7838   22.0208 H   0  0  0  0  0  0
  -28.1251  -28.8168   21.2392 H   0  0  0  0  0  0
  -25.9230  -25.8985   18.9404 H   0  0  0  0  0  0
  -23.9729  -27.3308   18.9584 H   0  0  0  0  0  0
  -23.7901  -30.5834   19.4012 H   0  0  0  0  0  0
  -22.7770  -29.2464   19.8463 H   0  0  0  0  0  0
  -25.1284  -36.1880   25.0810 H   0  0  0  0  0  0
  -20.9978  -28.3313   24.1375 H   0  0  0  0  0  0
  -20.5714  -26.2333   23.3613 H   0  0  0  0  0  0
  -21.6642  -26.7469   22.1181 H   0  0  0  0  0  0
  -19.6944  -25.6315   21.1241 H   0  0  0  0  0  0
  -19.6715  -27.3204   20.6746 H   0  0  0  0  0  0
  -17.4210  -26.6703   21.4015 H   0  0  0  0  0  0
  -18.0336  -26.0107   22.9014 H   0  0  0  0  0  0
  -19.7962  -30.7298   24.2251 H   0  0  0  0  0  0
  -17.5039  -31.6287   24.5180 H   0  0  0  0  0  0
  -15.5374  -30.3011   23.7703 H   0  0  0  0  0  0
  -15.8668  -28.0855   22.7090 H   0  0  0  0  0  0
  -24.5880  -30.7121   25.7763 H   0  0  0  0  0  0
  -24.8865  -32.2980   26.4780 H   0  0  0  0  0  0
  -25.7959  -30.9026   27.0270 H   0  0  0  0  0  0
  -26.3005  -29.6735   24.1273 H   0  0  0  0  0  0
  -27.3997  -29.7290   25.4856 H   0  0  0  0  0  0
  -27.8897  -30.4276   23.9605 H   0  0  0  0  0  0
  -27.2681  -33.3697   26.1983 H   0  0  0  0  0  0
  -28.3908  -32.6823   25.0353 H   0  0  0  0  0  0
  -28.0666  -31.8535   26.5502 H   0  0  0  0  0  0
  -28.2576  -38.0082   24.7512 H   0  0  0  0  0  0
  -28.1047  -36.2610   24.6271 H   0  0  0  0  0  0
  -27.2282  -37.1396   25.8872 H   0  0  0  0  0  0
  -20.9462  -29.8778   21.6809 H   0  0  0  0  0  0
  -26.0138  -38.2832   24.1459 H   0  0  0  0  0  0
  -29.3368  -20.8446   22.5294 H   0  0  0  0  0  0
  -26.4228  -19.6214   15.4811 H   0  0  0  0  0  0
  -27.5417  -18.3744   16.0134 H   0  0  0  0  0  0
  -26.7024  -19.0586   18.1505 H   0  0  0  0  0  0
  -26.5003  -20.7124   17.6100 H   0  0  0  0  0  0
  -28.2112  -21.1026   14.9862 H   0  0  0  0  0  0
  -29.1580  -19.6246   14.9364 H   0  0  0  0  0  0
  -29.0757  -19.2127   18.1412 H   0  0  0  0  0  0
  -27.3515  -22.6817   17.3165 H   0  0  0  0  0  0
  -28.9532  -23.4340   17.3218 H   0  0  0  0  0  0
  -27.6058  -24.1909   18.1245 H   0  0  0  0  0  0
  -32.5034  -21.2249   15.6932 H   0  0  0  0  0  0
  -31.2016  -22.4036   15.6867 H   0  0  0  0  0  0
  -31.1191  -20.9838   14.6419 H   0  0  0  0  0  0
  -28.0527  -18.3825   20.2190 H   0  0  0  0  0  0
  -28.7682  -18.6083   21.7547 H   0  0  0  0  0  0
  -27.7563  -24.8642   21.7273 H   0  0  0  0  0  0
  -26.7781  -24.5721   20.3683 H   0  0  0  0  0  0
  -31.0058  -17.7678   20.9491 H   0  0  0  0  0  0
  -30.4152  -17.6409   19.3282 H   0  0  0  0  0  0
  -31.1427  -20.8838   17.7100 H   0  0  0  0  0  0
  -30.9765  -19.4887   16.6759 H   0  0  0  0  0  0
  -28.8286  -15.8270   20.8236 H   0  0  0  0  0  0
  -29.0819  -21.7259   16.8532 H   0  0  0  0  0  0
  1 25  1  0  0  0
  1 30  2  0  0  0
  1 87  1  0  0  0
  2  3  1  0  0  0
  2 25  1  0  0  0
  2 89  1  0  0  0
  2 90  1  0  0  0
  3  4  1  0  0  0
  3 91  1  0  0  0
  3 92  1  0  0  0
  4  5  1  0  0  0
  4 93  1  0  0  0
  4 94  1  0  0  0
  5  6  1  0  0  0
  5 26  1  0  0  0
  5 95  1  0  0  0
  6 25  1  0  0  0
  6 96  1  0  0  0
  6 97  1  0  0  0
  7  8  2  0  0  0
  7 26  1  0  0  0
  7 29  1  0  0  0
  8  9  1  0  0  0
  8 22  1  0  0  0
  9 10  1  0  0  0
  9 27  2  0  0  0
 10 11  2  0  0  0
 10 15  1  0  0  0
 11 12  1  0  0  0
 11 98  1  0  0  0
 12 13  2  0  0  0
 12 99  1  0  0  0
 13 14  1  0  0  0
 13 31  1  0  0  0
 14 15  2  0  0  0
 14100  1  0  0  0
 15101  1  0  0  0
 16 17  2  0  0  0
 16 21  1  0  0  0
 16 31  1  0  0  0
 17 18  1  0  0  0
 17102  1  0  0  0
 18 19  2  0  0  0
 18103  1  0  0  0
 19 20  1  0  0  0
 19 24  1  0  0  0
 20 21  2  0  0  0
 20104  1  0  0  0
 21 23  1  0  0  0
 22 28  1  0  0  0
 22 32  2  0  0  0
 26 27  1  0  0  0
 28105  1  0  0  0
 28106  1  0  0  0
 29107  1  0  0  0
 29108  1  0  0  0
 33 34  1  0  0  0
 33 66  1  0  0  0
 33 70  2  0  0  0
 34 36  1  0  0  0
 34 59  1  0  0  0
 34109  1  0  0  0
 35 44  2  0  0  0
 35 45  1  0  0  0
 35 68  1  0  0  0
 36 56  1  0  0  0
 36110  1  0  0  0
 37 39  1  0  0  0
 37 47  1  0  0  0
 37 66  1  0  0  0
 37111  1  0  0  0
 38 43  2  0  0  0
 38 46  1  0  0  0
 38 47  1  0  0  0
 39 64  1  0  0  0
 39 67  2  0  0  0
 40 52  1  0  0  0
 40 53  2  0  0  0
 40 58  1  0  0  0
 41112  1  0  0  0
 41113  1  0  0  0
 41114  1  0  0  0
 41 48  1  0  0  0
 42 43  1  0  0  0
 42 66  1  0  0  0
 42115  1  0  0  0
 42116  1  0  0  0
 43 44  1  0  0  0
 44117  1  0  0  0
 45 46  2  0  0  0
 45118  1  0  0  0
 46119  1  0  0  0
 47120  1  0  0  0
 47121  1  0  0  0
 48 56  1  0  0  0
 48 65  1  0  0  0
 48122  1  0  0  0
 49 50  1  0  0  0
 49 53  1  0  0  0
 49 64  1  0  0  0
 49123  1  0  0  0
 50 51  1  0  0  0
 50124  1  0  0  0
 50125  1  0  0  0
 51 52  1  0  0  0
 51126  1  0  0  0
 51127  1  0  0  0
 52128  1  0  0  0
 52129  1  0  0  0
 53 54  1  0  0  0
 54 55  2  0  0  0
 54130  1  0  0  0
 55 57  1  0  0  0
 55131  1  0  0  0
 56 69  2  0  0  0
 57 58  2  0  0  0
 57132  1  0  0  0
 58133  1  0  0  0
 59 60  1  0  0  0
 59 61  1  0  0  0
 59 62  1  0  0  0
 60134  1  0  0  0
 60135  1  0  0  0
 60136  1  0  0  0
 61137  1  0  0  0
 61138  1  0  0  0
 61139  1  0  0  0
 62140  1  0  0  0
 62141  1  0  0  0
 62142  1  0  0  0
 63 65  1  0  0  0
 63143  1  0  0  0
 63144  1  0  0  0
 63145  1  0  0  0
 64146  1  0  0  0
 65147  1  0  0  0
 68 83  1  0  0  0
 71 73  2  0  0  0
 71 86  1  0  0  0
 71148  1  0  0  0
 72 73  1  0  0  0
 72 74  2  0  0  0
 72 79  1  0  0  0
 73 82  1  0  0  0
 74 75  1  0  0  0
 74 80  1  0  0  0
 75 83  1  0  0  0
 75 86  2  0  0  0
 76 77  1  0  0  0
 76 78  1  0  0  0
 76149  1  0  0  0
 76150  1  0  0  0
 77 79  1  0  0  0
 77151  1  0  0  0
 77152  1  0  0  0
 78 88  1  0  0  0
 78153  1  0  0  0
 78154  1  0  0  0
 79 88  1  0  0  0
 79155  1  0  0  0
 80156  1  0  0  0
 80157  1  0  0  0
 80158  1  0  0  0
 81 85  1  0  0  0
 81159  1  0  0  0
 81160  1  0  0  0
 81161  1  0  0  0
 82 84  1  0  0  0
 82162  1  0  0  0
 82163  1  0  0  0
 83164  1  0  0  0
 83165  1  0  0  0
 84 87  1  0  0  0
 84166  1  0  0  0
 84167  1  0  0  0
 85168  1  0  0  0
 85169  1  0  0  0
 85 88  1  0  0  0
 87170  1  0  0  0
 88171  1  0  0  0
M  CHG  1  88   1
M  ISO  4   1 100  68 101  83 101  87 100
M  END
> <chiral flag>
0

> <version>
0

> <s_m_source_file>
/data/baiqing/PycharmProjects/Reinvent-master-3.2/result/LINK_invent/BTK/process_docking_weight1_custom_sum_contain_oxygen_bond_distance_aromatic_linkinvent_7_9_3/rearranged_h_0105.sdf

> <i_m_source_file_index>
53

> <r_mmod_Potential_Energy-OPLS-2005>
189.196319580078

> <r_mmod_Stretch_Energy-OPLS-2005>
202.607955932617

> <r_mmod_Bend_Energy-OPLS-2005>
263.367156982422

> <r_mmod_Torsional_Energy-OPLS-2005>
304.394317626953

> <r_mmod_Improper_Torsional_Energy-OPLS-2005>
9.73689937591553

> <r_mmod_Van_der_Waal_Energy-OPLS-2005>
133.946472167969

> <r_mmod_Electrostatic_Energy-OPLS-2005>
-416.317840576172

> <r_mmod_Solvation_Energy-OPLS-2005>
-463.467803955078

> <b_mmod_Minimization_Converged-OPLS-2005>
0

> <r_mmod_RMS_Derivative-OPLS-2005>
1.99473965167999

$$$$
53
                    3D
 Structure written by MMmdl.
168176  0  0  1  0            999 V2000
  -30.6036  -14.6639   20.5720 C   0  0  0  0  0  0
  -30.4475  -12.4384   19.4360 C   0  0  0  0  0  0
  -29.5073  -12.5492   18.2121 C   0  0  0  0  0  0
  -28.0244  -12.3804   18.6128 C   0  0  0  0  0  0
  -27.6542  -13.2112   19.8692 C   0  0  2  0  0  0
  -28.7010  -12.9615   20.9691 C   0  0  0  0  0  0
  -25.2567  -13.8120   20.5662 C   0  0  0  0  0  0
  -24.1836  -13.0401   20.9195 C   0  0  0  0  0  0
  -24.6396  -11.6870   20.8718 C   0  0  0  0  0  0
  -23.9057  -10.4266   21.0382 C   0  0  0  0  0  0
  -24.3610   -9.4193   21.9165 C   0  0  0  0  0  0
  -23.6289   -8.2221   22.0753 C   0  0  0  0  0  0
  -22.4265   -8.0265   21.3550 C   0  0  0  0  0  0
  -21.9887   -9.0235   20.4653 C   0  0  0  0  0  0
  -22.7215  -10.2109   20.3046 C   0  0  0  0  0  0
  -21.6866   -6.0711   22.5266 C   0  0  0  0  0  0
  -21.4019   -6.5618   23.8200 C   0  0  0  0  0  0
  -21.3670   -5.6788   24.9174 C   0  0  0  0  0  0
  -21.6063   -4.3053   24.7222 C   0  0  0  0  0  0
  -21.8834   -3.8127   23.4349 C   0  0  0  0  0  0
  -21.9199   -4.6936   22.3401 C   0  0  0  0  0  0
  -22.7870  -13.5207   21.1892 C   0  0  0  0  0  0
  -22.1659   -4.2113   21.0983 F   0  0  0  0  0  0
  -21.5636   -3.4549   25.7739 F   0  0  0  0  0  0
  -29.9965  -13.4270   20.4485 N   0  0  0  0  0  0
  -26.2994  -12.9302   20.3326 N   0  0  0  0  0  0
  -25.9320  -11.6452   20.5712 N   0  0  0  0  0  0
  -22.0527  -12.8211   22.0470 N   0  0  0  0  0  0
  -25.4236  -15.1839   20.4042 N   0  0  0  0  0  0
  -31.7355  -14.8176   20.0939 O   0  0  0  0  0  0
  -21.6660   -6.8842   21.4220 O   0  0  0  0  0  0
  -22.3546  -14.5495   20.6720 O   0  0  0  0  0  0
  -24.6262  -31.8593   23.2007 C   0  0  0  0  0  0
  -25.9096  -32.4780   23.8343 C   0  0  1  0  0  0
  -27.2264  -27.3134   20.1094 C   0  0  0  0  0  0
  -25.5917  -33.8585   24.2266 N   0  0  0  0  0  0
  -23.4209  -30.4816   21.5463 C   0  0  2  0  0  0
  -24.8649  -28.9353   20.1113 C   0  0  0  0  0  0
  -22.7494  -29.4620   22.4957 C   0  0  0  0  0  0
  -18.0295  -28.1394   22.8492 C   0  0  0  0  0  0
  -24.1495  -36.7294   23.2644 C   0  0  0  0  0  0
  -25.9628  -30.7879   21.3721 C   0  0  0  0  0  0
  -26.0359  -29.4154   20.7123 C   0  0  0  0  0  0
  -27.2193  -28.6176   20.6985 C   0  0  0  0  0  0
  -26.0268  -26.8859   19.4927 C   0  0  0  0  0  0
  -24.8624  -27.6761   19.4938 C   0  0  0  0  0  0
  -23.6341  -29.8174   20.1615 C   0  0  0  0  0  0
  -25.4125  -36.3091   24.0330 C   0  0  1  0  0  0
  -20.5895  -28.3700   23.1289 C   0  0  2  0  0  0
  -20.6798  -26.9430   22.5416 C   0  0  0  0  0  0
  -19.5770  -26.6389   21.5225 C   0  0  0  0  0  0
  -18.1944  -26.7936   22.1621 C   0  0  0  0  0  0
  -19.1546  -28.8863   23.2880 C   0  0  0  0  0  0
  -18.9468  -30.1471   23.8894 C   0  0  0  0  0  0
  -17.6467  -30.6592   24.0571 C   0  0  0  0  0  0
  -25.9062  -34.9462   23.5096 C   0  0  0  0  0  0
  -16.5357  -29.9095   23.6333 C   0  0  0  0  0  0
  -16.7281  -28.6511   23.0347 C   0  0  0  0  0  0
  -26.4480  -31.6597   25.0722 C   0  0  0  0  0  0
  -25.3725  -31.3714   26.1457 C   0  0  0  0  0  0
  -27.0316  -30.3028   24.6147 C   0  0  0  0  0  0
  -27.6033  -32.4350   25.7485 C   0  0  0  0  0  0
  -27.5587  -37.1803   24.8470 C   0  0  0  0  0  0
  -21.4205  -29.3032   22.3681 N   0  0  0  0  0  0
  -26.4303  -37.3784   23.9410 N   0  0  0  0  0  0
  -24.6893  -31.0597   22.0967 N   0  0  0  0  0  0
  -23.4205  -28.8175   23.3059 O   0  0  0  0  0  0
  -28.3500  -26.4694   20.1483 O   0  0  0  0  0  0
  -26.5637  -34.8927   22.4668 O   0  0  0  0  0  0
  -23.5419  -32.1396   23.7318 O   0  0  0  0  0  0
  -28.1499  -21.6927   19.8203 C   0  0  0  0  0  0
  -28.3359  -20.2588   19.9430 C   0  0  0  0  0  0
  -29.2068  -22.4735   20.2308 C   0  0  0  0  0  0
  -29.5758  -19.8807   20.4296 C   0  0  0  0  0  0
  -27.2350  -19.2997   19.6073 C   0  0  0  0  0  0
  -29.9128  -14.2372   23.9384 C   0  0  0  0  0  0
  -31.2368  -16.3140   23.5266 C   0  0  0  0  0  0
  -29.0034  -16.4405   24.6316 C   0  0  0  0  0  0
  -29.3632  -24.0265   20.3144 C   0  0  0  0  0  0
  -30.1420  -18.4933   20.8822 C   0  0  0  0  0  0
  -29.8208  -17.0965   20.1429 C   0  0  0  0  0  0
  -29.0515  -15.9071   22.1790 C   0  0  0  0  0  0
  -28.1482  -25.0041   19.9983 C   0  0  0  0  0  0
  -29.8114  -15.7200   23.5346 C   0  0  0  0  0  0
  -29.8541  -15.7875   20.9333 N   0  0  0  0  0  0
  -30.5059  -21.3676   20.7173 S   0  0  0  0  0  0
  -31.4806  -12.5992   19.1247 H   0  0  0  0  0  0
  -30.4299  -11.4255   19.8402 H   0  0  0  0  0  0
  -29.7801  -11.8091   17.4583 H   0  0  0  0  0  0
  -29.6451  -13.5241   17.7415 H   0  0  0  0  0  0
  -27.8495  -11.3214   18.8058 H   0  0  0  0  0  0
  -27.3737  -12.6453   17.7784 H   0  0  0  0  0  0
  -27.6944  -14.2638   19.5892 H   0  0  0  0  0  0
  -28.7461  -11.8915   21.1805 H   0  0  0  0  0  0
  -28.4120  -13.3631   21.9256 H   0  0  0  0  0  0
  -25.2741   -9.5701   22.4738 H   0  0  0  0  0  0
  -24.0012   -7.4603   22.7442 H   0  0  0  0  0  0
  -21.0834   -8.8740   19.8933 H   0  0  0  0  0  0
  -22.3655  -10.9641   19.6158 H   0  0  0  0  0  0
  -21.1988   -7.6121   23.9701 H   0  0  0  0  0  0
  -21.1496   -6.0509   25.9091 H   0  0  0  0  0  0
  -22.0601   -2.7579   23.2855 H   0  0  0  0  0  0
  -22.4157  -11.9878   22.4856 H   0  0  0  0  0  0
  -21.1112  -13.1167   22.2620 H   0  0  0  0  0  0
  -24.6497  -15.8325   20.4996 H   0  0  0  0  0  0
  -26.2792  -15.6260   20.0962 H   0  0  0  0  0  0
  -26.7170  -32.5440   23.1095 H   0  0  0  0  0  0
  -25.0100  -33.9736   25.0429 H   0  0  0  0  0  0
  -22.7166  -31.3037   21.4039 H   0  0  0  0  0  0
  -23.3761  -35.9620   23.3310 H   0  0  0  0  0  0
  -24.3602  -36.8906   22.2060 H   0  0  0  0  0  0
  -23.7229  -37.6486   23.6667 H   0  0  0  0  0  0
  -26.1007  -31.5518   20.6049 H   0  0  0  0  0  0
  -26.8412  -30.8322   22.0051 H   0  0  0  0  0  0
  -28.1194  -28.9851   21.1702 H   0  0  0  0  0  0
  -25.9572  -25.9239   19.0087 H   0  0  0  0  0  0
  -23.9630  -27.3020   19.0236 H   0  0  0  0  0  0
  -23.7580  -30.5949   19.4082 H   0  0  0  0  0  0
  -22.7518  -29.2514   19.8548 H   0  0  0  0  0  0
  -25.1299  -36.1951   25.0819 H   0  0  0  0  0  0
  -20.9985  -28.3267   24.1408 H   0  0  0  0  0  0
  -20.5743  -26.2305   23.3609 H   0  0  0  0  0  0
  -21.6664  -26.7488   22.1180 H   0  0  0  0  0  0
  -19.6950  -25.6303   21.1254 H   0  0  0  0  0  0
  -19.6712  -27.3206   20.6759 H   0  0  0  0  0  0
  -17.4228  -26.6704   21.4003 H   0  0  0  0  0  0
  -18.0328  -26.0070   22.9011 H   0  0  0  0  0  0
  -19.7951  -30.7298   24.2241 H   0  0  0  0  0  0
  -17.5022  -31.6271   24.5189 H   0  0  0  0  0  0
  -15.5359  -30.2996   23.7661 H   0  0  0  0  0  0
  -15.8684  -28.0838   22.7046 H   0  0  0  0  0  0
  -24.5900  -30.7064   25.7784 H   0  0  0  0  0  0
  -24.8928  -32.2877   26.4911 H   0  0  0  0  0  0
  -25.8069  -30.8876   27.0218 H   0  0  0  0  0  0
  -26.2866  -29.6798   24.1187 H   0  0  0  0  0  0
  -27.4048  -29.7260   25.4617 H   0  0  0  0  0  0
  -27.8731  -30.4334   23.9340 H   0  0  0  0  0  0
  -27.2619  -33.3646   26.2054 H   0  0  0  0  0  0
  -28.3827  -32.6922   25.0303 H   0  0  0  0  0  0
  -28.0726  -31.8503   26.5405 H   0  0  0  0  0  0
  -28.2596  -38.0108   24.7521 H   0  0  0  0  0  0
  -28.1083  -36.2633   24.6283 H   0  0  0  0  0  0
  -27.2317  -37.1439   25.8877 H   0  0  0  0  0  0
  -20.9405  -29.8718   21.6848 H   0  0  0  0  0  0
  -26.0182  -38.2858   24.1403 H   0  0  0  0  0  0
  -27.2165  -22.1021   19.4599 H   0  0  0  0  0  0
  -26.2716  -19.8044   19.5195 H   0  0  0  0  0  0
  -27.1225  -18.5393   20.3792 H   0  0  0  0  0  0
  -27.4231  -18.7967   18.6588 H   0  0  0  0  0  0
  -30.3951  -14.1252   24.9097 H   0  0  0  0  0  0
  -30.4999  -13.6507   23.2337 H   0  0  0  0  0  0
  -28.9284  -13.7781   24.0307 H   0  0  0  0  0  0
  -31.7222  -16.1702   24.4929 H   0  0  0  0  0  0
  -31.2388  -17.3849   23.3348 H   0  0  0  0  0  0
  -31.8848  -15.8441   22.7871 H   0  0  0  0  0  0
  -29.4651  -16.3236   25.6125 H   0  0  0  0  0  0
  -27.9859  -16.0535   24.7028 H   0  0  0  0  0  0
  -28.9310  -17.5125   24.4411 H   0  0  0  0  0  0
  -30.1840  -24.3155   19.6581 H   0  0  0  0  0  0
  -29.7125  -24.2692   21.3188 H   0  0  0  0  0  0
  -29.8906  -18.4335   21.9363 H   0  0  0  0  0  0
  -31.2296  -18.5748   20.8966 H   0  0  0  0  0  0
  -30.4669  -17.0111   19.2684 H   0  0  0  0  0  0
  -28.8181  -17.1364   19.7254 H   0  0  0  0  0  0
  -28.5657  -16.8798   22.1974 H   0  0  0  0  0  0
  -28.1489  -15.3089   22.1391 H   0  0  0  0  0  0
  -27.3216  -24.7107   20.6482 H   0  0  0  0  0  0
  -27.8327  -24.8033   18.9735 H   0  0  0  0  0  0
  1 25  1  0  0  0
  1 30  2  0  0  0
  1 85  1  0  0  0
  2  3  1  0  0  0
  2 25  1  0  0  0
  2 87  1  0  0  0
  2 88  1  0  0  0
  3  4  1  0  0  0
  3 89  1  0  0  0
  3 90  1  0  0  0
  4  5  1  0  0  0
  4 91  1  0  0  0
  4 92  1  0  0  0
  5  6  1  0  0  0
  5 26  1  0  0  0
  5 93  1  0  0  0
  6 25  1  0  0  0
  6 94  1  0  0  0
  6 95  1  0  0  0
  7  8  2  0  0  0
  7 26  1  0  0  0
  7 29  1  0  0  0
  8  9  1  0  0  0
  8 22  1  0  0  0
  9 10  1  0  0  0
  9 27  2  0  0  0
 10 11  2  0  0  0
 10 15  1  0  0  0
 11 12  1  0  0  0
 11 96  1  0  0  0
 12 13  2  0  0  0
 12 97  1  0  0  0
 13 14  1  0  0  0
 13 31  1  0  0  0
 14 15  2  0  0  0
 14 98  1  0  0  0
 15 99  1  0  0  0
 16 17  2  0  0  0
 16 21  1  0  0  0
 16 31  1  0  0  0
 17 18  1  0  0  0
 17100  1  0  0  0
 18 19  2  0  0  0
 18101  1  0  0  0
 19 20  1  0  0  0
 19 24  1  0  0  0
 20 21  2  0  0  0
 20102  1  0  0  0
 21 23  1  0  0  0
 22 28  1  0  0  0
 22 32  2  0  0  0
 26 27  1  0  0  0
 28103  1  0  0  0
 28104  1  0  0  0
 29105  1  0  0  0
 29106  1  0  0  0
 33 34  1  0  0  0
 33 66  1  0  0  0
 33 70  2  0  0  0
 34 36  1  0  0  0
 34 59  1  0  0  0
 34107  1  0  0  0
 35 44  2  0  0  0
 35 45  1  0  0  0
 35 68  1  0  0  0
 36 56  1  0  0  0
 36108  1  0  0  0
 37 39  1  0  0  0
 37 47  1  0  0  0
 37 66  1  0  0  0
 37109  1  0  0  0
 38 43  2  0  0  0
 38 46  1  0  0  0
 38 47  1  0  0  0
 39 64  1  0  0  0
 39 67  2  0  0  0
 40 52  1  0  0  0
 40 53  2  0  0  0
 40 58  1  0  0  0
 41110  1  0  0  0
 41111  1  0  0  0
 41112  1  0  0  0
 41 48  1  0  0  0
 42 43  1  0  0  0
 42 66  1  0  0  0
 42113  1  0  0  0
 42114  1  0  0  0
 43 44  1  0  0  0
 44115  1  0  0  0
 45 46  2  0  0  0
 45116  1  0  0  0
 46117  1  0  0  0
 47118  1  0  0  0
 47119  1  0  0  0
 48 56  1  0  0  0
 48 65  1  0  0  0
 48120  1  0  0  0
 49 50  1  0  0  0
 49 53  1  0  0  0
 49 64  1  0  0  0
 49121  1  0  0  0
 50 51  1  0  0  0
 50122  1  0  0  0
 50123  1  0  0  0
 51 52  1  0  0  0
 51124  1  0  0  0
 51125  1  0  0  0
 52126  1  0  0  0
 52127  1  0  0  0
 53 54  1  0  0  0
 54 55  2  0  0  0
 54128  1  0  0  0
 55 57  1  0  0  0
 55129  1  0  0  0
 56 69  2  0  0  0
 57 58  2  0  0  0
 57130  1  0  0  0
 58131  1  0  0  0
 59 60  1  0  0  0
 59 61  1  0  0  0
 59 62  1  0  0  0
 60132  1  0  0  0
 60133  1  0  0  0
 60134  1  0  0  0
 61135  1  0  0  0
 61136  1  0  0  0
 61137  1  0  0  0
 62138  1  0  0  0
 62139  1  0  0  0
 62140  1  0  0  0
 63 65  1  0  0  0
 63141  1  0  0  0
 63142  1  0  0  0
 63143  1  0  0  0
 64144  1  0  0  0
 65145  1  0  0  0
 68 83  1  0  0  0
 71 72  1  0  0  0
 71 73  2  0  0  0
 71146  1  0  0  0
 72 74  2  0  0  0
 72 75  1  0  0  0
 73 79  1  0  0  0
 73 86  1  0  0  0
 74 80  1  0  0  0
 74 86  1  0  0  0
 75147  1  0  0  0
 75148  1  0  0  0
 75149  1  0  0  0
 76150  1  0  0  0
 76151  1  0  0  0
 76152  1  0  0  0
 76 84  1  0  0  0
 77 84  1  0  0  0
 77153  1  0  0  0
 77154  1  0  0  0
 77155  1  0  0  0
 78 84  1  0  0  0
 78156  1  0  0  0
 78157  1  0  0  0
 78158  1  0  0  0
 79 83  1  0  0  0
 79159  1  0  0  0
 79160  1  0  0  0
 80 81  1  0  0  0
 80161  1  0  0  0
 80162  1  0  0  0
 81 85  1  0  0  0
 81163  1  0  0  0
 81164  1  0  0  0
 82 84  1  0  0  0
 82 85  1  0  0  0
 82165  1  0  0  0
 82166  1  0  0  0
 83167  1  0  0  0
 83168  1  0  0  0
M  ISO  4   1 100  68 101  83 101  85 100
M  END
> <chiral flag>
0

> <version>
0

> <s_m_source_file>
/data/baiqing/PycharmProjects/Reinvent-master-3.2/result/LINK_invent/BTK/process_docking_weight1_custom_sum_contain_oxygen_bond_distance_aromatic_linkinvent_7_9_3/rearranged_h_0105.sdf

> <i_m_source_file_index>
54

> <r_mmod_Potential_Energy-OPLS-2005>
262.099395751953

> <r_mmod_Stretch_Energy-OPLS-2005>
100.47827911377

> <r_mmod_Bend_Energy-OPLS-2005>
183.292434692383

> <r_mmod_Torsional_Energy-OPLS-2005>
297.292083740234

> <r_mmod_Improper_Torsional_Energy-OPLS-2005>
8.39522647857666

> <r_mmod_Van_der_Waal_Energy-OPLS-2005>
131.042556762695

> <r_mmod_Electrostatic_Energy-OPLS-2005>
-329.392272949219

> <r_mmod_Solvation_Energy-OPLS-2005>
-178.902847290039

> <b_mmod_Minimization_Converged-OPLS-2005>
0

> <r_mmod_RMS_Derivative-OPLS-2005>
2.32690978050232

$$$$
54
                    3D
 Structure written by MMmdl.
165173  0  0  1  0            999 V2000
  -30.4116  -15.5072   20.3393 C   0  0  0  0  0  0
  -30.4168  -12.9912   19.5252 C   0  0  0  0  0  0
  -29.5330  -12.6155   18.3074 C   0  0  0  0  0  0
  -28.1033  -12.2867   18.7592 C   0  0  0  0  0  0
  -27.5962  -13.2997   19.8125 C   0  0  2  0  0  0
  -28.6223  -13.6128   20.9288 C   0  0  0  0  0  0
  -25.2341  -13.8297   20.5814 C   0  0  0  0  0  0
  -24.1715  -13.0449   20.9279 C   0  0  0  0  0  0
  -24.6404  -11.6948   20.8767 C   0  0  0  0  0  0
  -23.9103  -10.4298   21.0392 C   0  0  0  0  0  0
  -24.3642   -9.4212   21.9180 C   0  0  0  0  0  0
  -23.6305   -8.2248   22.0752 C   0  0  0  0  0  0
  -22.4292   -8.0287   21.3536 C   0  0  0  0  0  0
  -21.9934   -9.0263   20.4642 C   0  0  0  0  0  0
  -22.7267  -10.2142   20.3048 C   0  0  0  0  0  0
  -21.6861   -6.0736   22.5272 C   0  0  0  0  0  0
  -21.4016   -6.5640   23.8209 C   0  0  0  0  0  0
  -21.3656   -5.6790   24.9170 C   0  0  0  0  0  0
  -21.6046   -4.3058   24.7217 C   0  0  0  0  0  0
  -21.8816   -3.8142   23.4342 C   0  0  0  0  0  0
  -21.9195   -4.6961   22.3400 C   0  0  0  0  0  0
  -22.7729  -13.5176   21.1901 C   0  0  0  0  0  0
  -22.1658   -4.2152   21.0977 F   0  0  0  0  0  0
  -21.5633   -3.4536   25.7729 F   0  0  0  0  0  0
  -29.8109  -14.1881   20.2617 N   0  0  0  0  0  0
  -26.2780  -12.9602   20.3268 N   0  0  0  0  0  0
  -25.9351  -11.6684   20.5734 N   0  0  0  0  0  0
  -22.0400  -12.8156   22.0464 N   0  0  0  0  0  0
  -25.3987  -15.2023   20.4247 N   0  0  0  0  0  0
  -31.6366  -15.3790   20.1542 O   0  0  0  0  0  0
  -21.6652   -6.8882   21.4234 O   0  0  0  0  0  0
  -22.3409  -14.5474   20.6736 O   0  0  0  0  0  0
  -24.6775  -31.8075   23.1552 C   0  0  0  0  0  0
  -25.9391  -32.4503   23.8083 C   0  0  1  0  0  0
  -27.2281  -26.7831   20.1955 C   0  0  0  0  0  0
  -25.6021  -33.8329   24.1990 N   0  0  0  0  0  0
  -23.4996  -30.4122   21.5064 C   0  0  2  0  0  0
  -24.9565  -28.7698   20.1090 C   0  0  0  0  0  0
  -22.7745  -29.4347   22.4710 C   0  0  0  0  0  0
  -18.0337  -28.1415   22.8452 C   0  0  0  0  0  0
  -24.1492  -36.7147   23.2649 C   0  0  0  0  0  0
  -26.0763  -30.5654   21.4088 C   0  0  0  0  0  0
  -26.1424  -29.1395   20.7555 C   0  0  0  0  0  0
  -27.2634  -28.1707   20.7700 C   0  0  0  0  0  0
  -26.0099  -26.6011   19.4954 C   0  0  0  0  0  0
  -24.9248  -27.5254   19.4575 C   0  0  0  0  0  0
  -23.7485  -29.7150   20.1379 C   0  0  0  0  0  0
  -25.4140  -36.2908   24.0285 C   0  0  1  0  0  0
  -20.5971  -28.3772   23.1143 C   0  0  2  0  0  0
  -20.6810  -26.9440   22.5394 C   0  0  0  0  0  0
  -19.5788  -26.6374   21.5207 C   0  0  0  0  0  0
  -18.1968  -26.7946   22.1610 C   0  0  0  0  0  0
  -19.1604  -28.8923   23.2782 C   0  0  0  0  0  0
  -18.9514  -30.1508   23.8829 C   0  0  0  0  0  0
  -17.6502  -30.6607   24.0559 C   0  0  0  0  0  0
  -25.9127  -34.9305   23.4962 C   0  0  0  0  0  0
  -16.5395  -29.9089   23.6362 C   0  0  0  0  0  0
  -16.7319  -28.6511   23.0372 C   0  0  0  0  0  0
  -26.4597  -31.6509   25.0677 C   0  0  0  0  0  0
  -25.3684  -31.3780   26.1301 C   0  0  0  0  0  0
  -27.0516  -30.2853   24.6533 C   0  0  0  0  0  0
  -27.6071  -32.4353   25.7479 C   0  0  0  0  0  0
  -27.5551  -37.1727   24.8474 C   0  0  0  0  0  0
  -21.4394  -29.3040   22.3477 N   0  0  0  0  0  0
  -26.4261  -37.3670   23.9419 N   0  0  0  0  0  0
  -24.7733  -30.9593   22.0762 N   0  0  0  0  0  0
  -23.4227  -28.7947   23.3024 O   0  0  0  0  0  0
  -28.2051  -25.6076   20.3106 O   0  0  0  0  0  0
  -26.5749  -34.8882   22.4568 O   0  0  0  0  0  0
  -23.5815  -32.1124   23.6553 O   0  0  0  0  0  0
  -30.4544  -18.2059   19.5873 C   0  0  0  0  0  0
  -28.7316  -17.7921   20.9840 C   0  0  0  0  0  0
  -29.7662  -19.7712   19.2670 C   0  0  0  0  0  0
  -28.8129  -19.4943   21.3416 C   0  0  1  0  0  0
  -31.3205  -19.3847   24.4156 C   0  0  0  0  0  0
  -28.8554  -18.8700   24.4629 C   0  0  0  0  0  0
  -28.4697  -23.9739   18.4548 C   0  0  0  0  0  0
  -29.9458  -19.8331   22.3542 C   0  0  0  0  0  0
  -28.9214  -22.3159   20.5349 C   0  0  0  0  0  0
  -30.1148  -18.9183   23.5836 C   0  0  0  0  0  0
  -28.1186  -23.9221   19.9443 C   0  0  1  0  0  0
  -29.8101  -16.9307   20.2456 N   0  0  0  0  0  0
  -28.8284  -20.5988   20.2187 N   0  3  1  0  0  0
  -31.4199  -13.2082   19.1572 H   0  0  0  0  0  0
  -30.5415  -12.1380   20.1942 H   0  0  0  0  0  0
  -29.9615  -11.7686   17.7706 H   0  0  0  0  0  0
  -29.5096  -13.4482   17.6025 H   0  0  0  0  0  0
  -28.1163  -11.2867   19.1947 H   0  0  0  0  0  0
  -27.4276  -12.2388   17.9044 H   0  0  0  0  0  0
  -27.4654  -14.2253   19.2506 H   0  0  0  0  0  0
  -28.8601  -12.7298   21.5238 H   0  0  0  0  0  0
  -28.2116  -14.3524   21.6174 H   0  0  0  0  0  0
  -25.2781   -9.5685   22.4775 H   0  0  0  0  0  0
  -24.0010   -7.4644   22.7479 H   0  0  0  0  0  0
  -21.0869   -8.8775   19.8955 H   0  0  0  0  0  0
  -22.3711  -10.9682   19.6163 H   0  0  0  0  0  0
  -21.2007   -7.6149   23.9706 H   0  0  0  0  0  0
  -21.1481   -6.0525   25.9073 H   0  0  0  0  0  0
  -22.0601   -2.7606   23.2834 H   0  0  0  0  0  0
  -22.4040  -11.9810   22.4824 H   0  0  0  0  0  0
  -21.1009  -13.1147   22.2667 H   0  0  0  0  0  0
  -24.6299  -15.8536   20.5400 H   0  0  0  0  0  0
  -26.2502  -15.6420   20.1009 H   0  0  0  0  0  0
  -26.7474  -32.4986   23.0798 H   0  0  0  0  0  0
  -25.0156  -33.9388   25.0137 H   0  0  0  0  0  0
  -22.8216  -31.2478   21.3223 H   0  0  0  0  0  0
  -23.3787  -35.9445   23.3273 H   0  0  0  0  0  0
  -24.3568  -36.8839   22.2074 H   0  0  0  0  0  0
  -23.7222  -37.6300   23.6751 H   0  0  0  0  0  0
  -26.2777  -31.2960   20.6234 H   0  0  0  0  0  0
  -26.9290  -30.6256   22.0730 H   0  0  0  0  0  0
  -28.1546  -28.4574   21.3106 H   0  0  0  0  0  0
  -25.8520  -25.6531   19.0025 H   0  0  0  0  0  0
  -24.0274  -27.2321   18.9285 H   0  0  0  0  0  0
  -23.9134  -30.4782   19.3769 H   0  0  0  0  0  0
  -22.8563  -29.1752   19.8169 H   0  0  0  0  0  0
  -25.1347  -36.1671   25.0776 H   0  0  0  0  0  0
  -21.0064  -28.3391   24.1257 H   0  0  0  0  0  0
  -20.5683  -26.2400   23.3648 H   0  0  0  0  0  0
  -21.6669  -26.7391   22.1201 H   0  0  0  0  0  0
  -19.6958  -25.6269   21.1275 H   0  0  0  0  0  0
  -19.6728  -27.3154   20.6717 H   0  0  0  0  0  0
  -17.4233  -26.6693   21.4010 H   0  0  0  0  0  0
  -18.0353  -26.0089   22.9010 H   0  0  0  0  0  0
  -19.7999  -30.7341   24.2150 H   0  0  0  0  0  0
  -17.5069  -31.6277   24.5177 H   0  0  0  0  0  0
  -15.5403  -30.2988   23.7720 H   0  0  0  0  0  0
  -15.8706  -28.0825   22.7126 H   0  0  0  0  0  0
  -24.5920  -30.7097   25.7560 H   0  0  0  0  0  0
  -24.8823  -32.2978   26.4562 H   0  0  0  0  0  0
  -25.7867  -30.9033   27.0186 H   0  0  0  0  0  0
  -26.3214  -29.6481   24.1535 H   0  0  0  0  0  0
  -27.3976  -29.7292   25.5257 H   0  0  0  0  0  0
  -27.9182  -30.3977   24.0015 H   0  0  0  0  0  0
  -27.2654  -33.3744   26.1846 H   0  0  0  0  0  0
  -28.3960  -32.6771   25.0344 H   0  0  0  0  0  0
  -28.0660  -31.8625   26.5549 H   0  0  0  0  0  0
  -28.2546  -38.0044   24.7525 H   0  0  0  0  0  0
  -28.1070  -36.2570   24.6295 H   0  0  0  0  0  0
  -27.2267  -37.1336   25.8876 H   0  0  0  0  0  0
  -20.9692  -29.8715   21.6564 H   0  0  0  0  0  0
  -26.0090  -38.2713   24.1458 H   0  0  0  0  0  0
  -31.3562  -18.3808   20.1746 H   0  0  0  0  0  0
  -30.8496  -17.8570   18.6321 H   0  0  0  0  0  0
  -27.8162  -17.6435   20.4101 H   0  0  0  0  0  0
  -28.5355  -17.2646   21.9164 H   0  0  0  0  0  0
  -29.1969  -19.6735   18.3417 H   0  0  0  0  0  0
  -30.5884  -20.4338   18.9969 H   0  0  0  0  0  0
  -27.8805  -19.7015   21.8679 H   0  0  0  0  0  0
  -31.4969  -18.7239   25.2650 H   0  0  0  0  0  0
  -31.1699  -20.3926   24.8058 H   0  0  0  0  0  0
  -32.2354  -19.3980   23.8208 H   0  0  0  0  0  0
  -29.0075  -18.2214   25.3264 H   0  0  0  0  0  0
  -27.9929  -18.4820   23.9220 H   0  0  0  0  0  0
  -28.5934  -19.8611   24.8356 H   0  0  0  0  0  0
  -28.1794  -23.0568   17.9443 H   0  0  0  0  0  0
  -29.5459  -24.0975   18.3286 H   0  0  0  0  0  0
  -27.9826  -24.8085   17.9504 H   0  0  0  0  0  0
  -29.7963  -20.8465   22.7234 H   0  0  0  0  0  0
  -30.8970  -19.8709   21.8250 H   0  0  0  0  0  0
  -28.6469  -22.3503   21.5880 H   0  0  0  0  0  0
  -29.9931  -22.5151   20.5383 H   0  0  0  0  0  0
  -30.3377  -17.9085   23.2395 H   0  0  0  0  0  0
  -27.0495  -23.7228   20.0165 H   0  0  0  0  0  0
  -27.9163  -20.5066   19.7946 H   0  0  0  0  0  0
  1 25  1  0  0  0
  1 30  2  0  0  0
  1 82  1  0  0  0
  2  3  1  0  0  0
  2 25  1  0  0  0
  2 84  1  0  0  0
  2 85  1  0  0  0
  3  4  1  0  0  0
  3 86  1  0  0  0
  3 87  1  0  0  0
  4  5  1  0  0  0
  4 88  1  0  0  0
  4 89  1  0  0  0
  5  6  1  0  0  0
  5 26  1  0  0  0
  5 90  1  0  0  0
  6 25  1  0  0  0
  6 91  1  0  0  0
  6 92  1  0  0  0
  7  8  2  0  0  0
  7 26  1  0  0  0
  7 29  1  0  0  0
  8  9  1  0  0  0
  8 22  1  0  0  0
  9 10  1  0  0  0
  9 27  2  0  0  0
 10 11  2  0  0  0
 10 15  1  0  0  0
 11 12  1  0  0  0
 11 93  1  0  0  0
 12 13  2  0  0  0
 12 94  1  0  0  0
 13 14  1  0  0  0
 13 31  1  0  0  0
 14 15  2  0  0  0
 14 95  1  0  0  0
 15 96  1  0  0  0
 16 17  2  0  0  0
 16 21  1  0  0  0
 16 31  1  0  0  0
 17 18  1  0  0  0
 17 97  1  0  0  0
 18 19  2  0  0  0
 18 98  1  0  0  0
 19 20  1  0  0  0
 19 24  1  0  0  0
 20 21  2  0  0  0
 20 99  1  0  0  0
 21 23  1  0  0  0
 22 28  1  0  0  0
 22 32  2  0  0  0
 26 27  1  0  0  0
 28100  1  0  0  0
 28101  1  0  0  0
 29102  1  0  0  0
 29103  1  0  0  0
 33 34  1  0  0  0
 33 66  1  0  0  0
 33 70  2  0  0  0
 34 36  1  0  0  0
 34 59  1  0  0  0
 34104  1  0  0  0
 35 44  2  0  0  0
 35 45  1  0  0  0
 35 68  1  0  0  0
 36 56  1  0  0  0
 36105  1  0  0  0
 37 39  1  0  0  0
 37 47  1  0  0  0
 37 66  1  0  0  0
 37106  1  0  0  0
 38 43  2  0  0  0
 38 46  1  0  0  0
 38 47  1  0  0  0
 39 64  1  0  0  0
 39 67  2  0  0  0
 40 52  1  0  0  0
 40 53  2  0  0  0
 40 58  1  0  0  0
 41107  1  0  0  0
 41108  1  0  0  0
 41109  1  0  0  0
 41 48  1  0  0  0
 42 43  1  0  0  0
 42 66  1  0  0  0
 42110  1  0  0  0
 42111  1  0  0  0
 43 44  1  0  0  0
 44112  1  0  0  0
 45 46  2  0  0  0
 45113  1  0  0  0
 46114  1  0  0  0
 47115  1  0  0  0
 47116  1  0  0  0
 48 56  1  0  0  0
 48 65  1  0  0  0
 48117  1  0  0  0
 49 50  1  0  0  0
 49 53  1  0  0  0
 49 64  1  0  0  0
 49118  1  0  0  0
 50 51  1  0  0  0
 50119  1  0  0  0
 50120  1  0  0  0
 51 52  1  0  0  0
 51121  1  0  0  0
 51122  1  0  0  0
 52123  1  0  0  0
 52124  1  0  0  0
 53 54  1  0  0  0
 54 55  2  0  0  0
 54125  1  0  0  0
 55 57  1  0  0  0
 55126  1  0  0  0
 56 69  2  0  0  0
 57 58  2  0  0  0
 57127  1  0  0  0
 58128  1  0  0  0
 59 60  1  0  0  0
 59 61  1  0  0  0
 59 62  1  0  0  0
 60129  1  0  0  0
 60130  1  0  0  0
 60131  1  0  0  0
 61132  1  0  0  0
 61133  1  0  0  0
 61134  1  0  0  0
 62135  1  0  0  0
 62136  1  0  0  0
 62137  1  0  0  0
 63 65  1  0  0  0
 63138  1  0  0  0
 63139  1  0  0  0
 63140  1  0  0  0
 64141  1  0  0  0
 65142  1  0  0  0
 68 81  1  0  0  0
 71 73  1  0  0  0
 71 82  1  0  0  0
 71143  1  0  0  0
 71144  1  0  0  0
 72 74  1  0  0  0
 72 82  1  0  0  0
 72145  1  0  0  0
 72146  1  0  0  0
 73 83  1  0  0  0
 73147  1  0  0  0
 73148  1  0  0  0
 74 78  1  0  0  0
 74 83  1  0  0  0
 74149  1  0  0  0
 75150  1  0  0  0
 75151  1  0  0  0
 75152  1  0  0  0
 75 80  1  0  0  0
 76 80  1  0  0  0
 76153  1  0  0  0
 76154  1  0  0  0
 76155  1  0  0  0
 77156  1  0  0  0
 77157  1  0  0  0
 77158  1  0  0  0
 77 81  1  0  0  0
 78 80  1  0  0  0
 78159  1  0  0  0
 78160  1  0  0  0
 79 81  1  0  0  0
 79161  1  0  0  0
 79162  1  0  0  0
 79 83  1  0  0  0
 80163  1  0  0  0
 81164  1  0  0  0
 83165  1  0  0  0
M  CHG  1  83   1
M  ISO  4   1 100  68 101  81 101  82 100
M  END
> <chiral flag>
0

> <version>
0

> <s_m_source_file>
/data/baiqing/PycharmProjects/Reinvent-master-3.2/result/LINK_invent/BTK/process_docking_weight1_custom_sum_contain_oxygen_bond_distance_aromatic_linkinvent_7_9_3/rearranged_h_0105.sdf

> <i_m_source_file_index>
55

> <r_mmod_Potential_Energy-OPLS-2005>
2137.17431640625

> <r_mmod_Stretch_Energy-OPLS-2005>
834.296569824219

> <r_mmod_Bend_Energy-OPLS-2005>
674.210876464844

> <r_mmod_Torsional_Energy-OPLS-2005>
401.705383300781

> <r_mmod_Improper_Torsional_Energy-OPLS-2005>
12.0131988525391

> <r_mmod_Van_der_Waal_Energy-OPLS-2005>
114.142242431641

> <r_mmod_Electrostatic_Energy-OPLS-2005>
-199.713348388672

> <r_mmod_Solvation_Energy-OPLS-2005>
-422.766387939453

> <b_mmod_Minimization_Converged-OPLS-2005>
0

> <r_mmod_RMS_Derivative-OPLS-2005>
1.97955870628357

$$$$
55
                    3D
 Structure written by MMmdl.
176184  0  0  1  0            999 V2000
  -30.6727  -14.6825   20.4277 C   0  0  0  0  0  0
  -30.4225  -12.3986   19.4792 C   0  0  0  0  0  0
  -29.5082  -12.4939   18.2385 C   0  0  0  0  0  0
  -28.0343  -12.3314   18.6520 C   0  0  0  0  0  0
  -27.6483  -13.2356   19.8522 C   0  0  2  0  0  0
  -28.6969  -13.1797   20.9864 C   0  0  0  0  0  0
  -25.2546  -13.8208   20.5740 C   0  0  0  0  0  0
  -24.1843  -13.0461   20.9239 C   0  0  0  0  0  0
  -24.6445  -11.6940   20.8805 C   0  0  0  0  0  0
  -23.9137  -10.4311   21.0473 C   0  0  0  0  0  0
  -24.3665   -9.4215   21.9242 C   0  0  0  0  0  0
  -23.6321   -8.2262   22.0790 C   0  0  0  0  0  0
  -22.4307   -8.0309   21.3573 C   0  0  0  0  0  0
  -21.9978   -9.0309   20.4679 C   0  0  0  0  0  0
  -22.7322  -10.2172   20.3102 C   0  0  0  0  0  0
  -21.6873   -6.0781   22.5301 C   0  0  0  0  0  0
  -21.4015   -6.5669   23.8231 C   0  0  0  0  0  0
  -21.3655   -5.6816   24.9187 C   0  0  0  0  0  0
  -21.6034   -4.3085   24.7251 C   0  0  0  0  0  0
  -21.8812   -3.8185   23.4371 C   0  0  0  0  0  0
  -21.9188   -4.7004   22.3424 C   0  0  0  0  0  0
  -22.7851  -13.5217   21.1896 C   0  0  0  0  0  0
  -22.1650   -4.2194   21.1004 F   0  0  0  0  0  0
  -21.5638   -3.4557   25.7766 F   0  0  0  0  0  0
  -30.0131  -13.4756   20.4079 N   0  0  0  0  0  0
  -26.3002  -12.9437   20.3346 N   0  0  0  0  0  0
  -25.9375  -11.6579   20.5826 N   0  0  0  0  0  0
  -22.0473  -12.8188   22.0412 N   0  0  0  0  0  0
  -25.4219  -15.1940   20.4164 N   0  0  0  0  0  0
  -31.8752  -14.6955   20.1748 O   0  0  0  0  0  0
  -21.6648   -6.8920   21.4263 O   0  0  0  0  0  0
  -22.3532  -14.5548   20.6778 O   0  0  0  0  0  0
  -24.6309  -31.8581   23.2036 C   0  0  0  0  0  0
  -25.9132  -32.4762   23.8381 C   0  0  1  0  0  0
  -27.2194  -27.2924   20.1185 C   0  0  0  0  0  0
  -25.5949  -33.8564   24.2333 N   0  0  0  0  0  0
  -23.4293  -30.4848   21.5410 C   0  0  2  0  0  0
  -24.8769  -28.9429   20.1133 C   0  0  0  0  0  0
  -22.7530  -29.4613   22.4861 C   0  0  0  0  0  0
  -18.0315  -28.1445   22.8476 C   0  0  0  0  0  0
  -24.1512  -36.7294   23.2643 C   0  0  0  0  0  0
  -25.9732  -30.7811   21.3775 C   0  0  0  0  0  0
  -26.0469  -29.4051   20.7283 C   0  0  0  0  0  0
  -27.2222  -28.5885   20.7308 C   0  0  0  0  0  0
  -26.0213  -26.8999   19.4752 C   0  0  0  0  0  0
  -24.8657  -27.6969   19.4780 C   0  0  0  0  0  0
  -23.6502  -29.8259   20.1559 C   0  0  0  0  0  0
  -25.4118  -36.3072   24.0351 C   0  0  1  0  0  0
  -20.5915  -28.3743   23.1282 C   0  0  2  0  0  0
  -20.6821  -26.9465   22.5409 C   0  0  0  0  0  0
  -19.5775  -26.6429   21.5232 C   0  0  0  0  0  0
  -18.1950  -26.7977   22.1625 C   0  0  0  0  0  0
  -19.1562  -28.8908   23.2878 C   0  0  0  0  0  0
  -18.9464  -30.1497   23.8909 C   0  0  0  0  0  0
  -17.6451  -30.6612   24.0587 C   0  0  0  0  0  0
  -25.9030  -34.9430   23.5129 C   0  0  0  0  0  0
  -16.5358  -29.9100   23.6352 C   0  0  0  0  0  0
  -16.7293  -28.6543   23.0340 C   0  0  0  0  0  0
  -26.4518  -31.6536   25.0713 C   0  0  0  0  0  0
  -25.3742  -31.3608   26.1419 C   0  0  0  0  0  0
  -27.0404  -30.2992   24.6105 C   0  0  0  0  0  0
  -27.6128  -32.4226   25.7463 C   0  0  0  0  0  0
  -27.5584  -37.1797   24.8467 C   0  0  0  0  0  0
  -21.4232  -29.3075   22.3637 N   0  0  0  0  0  0
  -26.4300  -37.3744   23.9407 N   0  0  0  0  0  0
  -24.6978  -31.0586   22.0977 N   0  0  0  0  0  0
  -23.4231  -28.8124   23.2943 O   0  0  0  0  0  0
  -28.3144  -26.4065   20.1662 O   0  0  0  0  0  0
  -26.5568  -34.8901   22.4675 O   0  0  0  0  0  0
  -23.5461  -32.1383   23.7318 O   0  0  0  0  0  0
  -31.1609  -21.5713   19.9135 C   0  0  0  0  0  0
  -29.7070  -19.7610   20.5804 C   0  0  0  0  0  0
  -29.8614  -21.1634   20.2449 C   0  0  0  0  0  0
  -32.2581  -20.6964   19.9634 C   0  0  0  0  0  0
  -30.7960  -18.8129   20.6497 C   0  0  0  0  0  0
  -32.1100  -19.3305   20.3587 C   0  0  0  0  0  0
  -33.6028  -21.3133   19.5908 C   0  0  0  0  0  0
  -33.4406  -17.2282   19.6437 C   0  0  0  0  0  0
  -33.8751  -18.3486   21.9788 C   0  0  0  0  0  0
  -28.1410  -22.0506   18.6984 C   0  0  0  0  0  0
  -26.1483  -20.1482   20.5403 C   0  0  0  0  0  0
  -30.5891  -17.3377   21.2309 C   0  0  0  0  0  0
  -29.9363  -16.1010   20.4407 C   0  0  0  0  0  0
  -29.1178  -23.8064   20.2534 C   0  0  0  0  0  0
  -28.0155  -24.9500   20.0387 C   0  0  0  0  0  0
  -27.6056  -21.9380   21.2256 C   0  0  0  0  0  0
  -33.3979  -18.4905   20.5171 C   0  0  0  0  0  0
  -28.6920  -22.2345   20.1329 C   0  0  2  0  0  0
  -26.3279  -21.5505   20.7154 O   0  0  0  0  0  0
  -31.4700  -12.4644   19.1794 H   0  0  0  0  0  0
  -30.3102  -11.4244   19.9597 H   0  0  0  0  0  0
  -29.7791  -11.7307   17.5086 H   0  0  0  0  0  0
  -29.6519  -13.4551   17.7420 H   0  0  0  0  0  0
  -27.8811  -11.2837   18.9154 H   0  0  0  0  0  0
  -27.3776  -12.5260   17.8032 H   0  0  0  0  0  0
  -27.6414  -14.2562   19.4696 H   0  0  0  0  0  0
  -28.7088  -12.1965   21.4613 H   0  0  0  0  0  0
  -28.4542  -13.8978   21.7710 H   0  0  0  0  0  0
  -25.2814   -9.5682   22.4817 H   0  0  0  0  0  0
  -24.0046   -7.4650   22.7497 H   0  0  0  0  0  0
  -21.0929   -8.8841   19.8964 H   0  0  0  0  0  0
  -22.3820  -10.9726   19.6214 H   0  0  0  0  0  0
  -21.1977   -7.6177   23.9751 H   0  0  0  0  0  0
  -21.1484   -6.0552   25.9092 H   0  0  0  0  0  0
  -22.0582   -2.7654   23.2875 H   0  0  0  0  0  0
  -22.4080  -11.9818   22.4755 H   0  0  0  0  0  0
  -21.1107  -13.1233   22.2643 H   0  0  0  0  0  0
  -24.6567  -15.8463   20.5434 H   0  0  0  0  0  0
  -26.2738  -15.6411   20.1040 H   0  0  0  0  0  0
  -26.7164  -32.5436   23.1115 H   0  0  0  0  0  0
  -25.0225  -33.9720   25.0556 H   0  0  0  0  0  0
  -22.7233  -31.3051   21.3896 H   0  0  0  0  0  0
  -23.3770  -35.9614   23.3283 H   0  0  0  0  0  0
  -24.3644  -36.8935   22.2062 H   0  0  0  0  0  0
  -23.7266  -37.6496   23.6672 H   0  0  0  0  0  0
  -26.0970  -31.5260   20.5919 H   0  0  0  0  0  0
  -26.8616  -30.8463   21.9934 H   0  0  0  0  0  0
  -28.1180  -28.9198   21.2372 H   0  0  0  0  0  0
  -25.9295  -25.9574   18.9614 H   0  0  0  0  0  0
  -23.9705  -27.3463   18.9834 H   0  0  0  0  0  0
  -23.7780  -30.5993   19.3970 H   0  0  0  0  0  0
  -22.7733  -29.2548   19.8507 H   0  0  0  0  0  0
  -25.1281  -36.1945   25.0839 H   0  0  0  0  0  0
  -21.0016  -28.3345   24.1397 H   0  0  0  0  0  0
  -20.5852  -26.2323   23.3592 H   0  0  0  0  0  0
  -21.6672  -26.7566   22.1125 H   0  0  0  0  0  0
  -19.6975  -25.6345   21.1263 H   0  0  0  0  0  0
  -19.6762  -27.3252   20.6772 H   0  0  0  0  0  0
  -17.4243  -26.6756   21.4008 H   0  0  0  0  0  0
  -18.0348  -26.0126   22.9023 H   0  0  0  0  0  0
  -19.7916  -30.7342   24.2304 H   0  0  0  0  0  0
  -17.4976  -31.6291   24.5181 H   0  0  0  0  0  0
  -15.5356  -30.2994   23.7668 H   0  0  0  0  0  0
  -15.8696  -28.0881   22.7024 H   0  0  0  0  0  0
  -24.6013  -30.6867   25.7717 H   0  0  0  0  0  0
  -24.8809  -32.2715   26.4809 H   0  0  0  0  0  0
  -25.8056  -30.8833   27.0220 H   0  0  0  0  0  0
  -26.2995  -29.6671   24.1203 H   0  0  0  0  0  0
  -27.4265  -29.7289   25.4559 H   0  0  0  0  0  0
  -27.8763  -30.4375   23.9248 H   0  0  0  0  0  0
  -27.2874  -33.3592   26.2007 H   0  0  0  0  0  0
  -28.3958  -32.6651   25.0258 H   0  0  0  0  0  0
  -28.0755  -31.8321   26.5384 H   0  0  0  0  0  0
  -28.2550  -38.0136   24.7524 H   0  0  0  0  0  0
  -28.1136  -36.2663   24.6281 H   0  0  0  0  0  0
  -27.2308  -37.1424   25.8869 H   0  0  0  0  0  0
  -20.9410  -29.8798   21.6836 H   0  0  0  0  0  0
  -26.0201  -38.2818   24.1383 H   0  0  0  0  0  0
  -31.3436  -22.5885   19.6060 H   0  0  0  0  0  0
  -28.7305  -19.3852   20.8359 H   0  0  0  0  0  0
  -33.5070  -22.3436   19.2447 H   0  0  0  0  0  0
  -34.0787  -20.7605   18.7807 H   0  0  0  0  0  0
  -34.2735  -21.3295   20.4519 H   0  0  0  0  0  0
  -32.4574  -16.9563   19.2691 H   0  0  0  0  0  0
  -33.8708  -16.3751   20.1722 H   0  0  0  0  0  0
  -34.0507  -17.3959   18.7556 H   0  0  0  0  0  0
  -34.0200  -19.3363   22.4202 H   0  0  0  0  0  0
  -34.8446  -17.8501   22.0180 H   0  0  0  0  0  0
  -33.1958  -17.8058   22.6312 H   0  0  0  0  0  0
  -28.8692  -22.3850   17.9592 H   0  0  0  0  0  0
  -27.2208  -22.6076   18.5251 H   0  0  0  0  0  0
  -27.9412  -21.0054   18.4688 H   0  0  0  0  0  0
  -26.8589  -19.7217   19.8360 H   0  0  0  0  0  0
  -25.1536  -19.9584   20.1365 H   0  0  0  0  0  0
  -26.2326  -19.6022   21.4814 H   0  0  0  0  0  0
  -29.9731  -17.4795   22.1184 H   0  0  0  0  0  0
  -31.5281  -16.9797   21.6324 H   0  0  0  0  0  0
  -29.8211  -16.3953   19.3983 H   0  0  0  0  0  0
  -28.9184  -15.9570   20.8018 H   0  0  0  0  0  0
  -29.6149  -23.9537   21.2124 H   0  0  0  0  0  0
  -29.8672  -24.0289   19.4985 H   0  0  0  0  0  0
  -27.1747  -24.7440   20.7036 H   0  0  0  0  0  0
  -27.6529  -24.7955   19.0235 H   0  0  0  0  0  0
  -27.4260  -22.8377   21.8163 H   0  0  0  0  0  0
  -27.9546  -21.2317   21.9776 H   0  0  0  0  0  0
  -34.2353  -19.0338   20.0941 H   0  0  0  0  0  0
  1 25  1  0  0  0
  1 30  2  0  0  0
  1 83  1  0  0  0
  2  3  1  0  0  0
  2 25  1  0  0  0
  2 90  1  0  0  0
  2 91  1  0  0  0
  3  4  1  0  0  0
  3 92  1  0  0  0
  3 93  1  0  0  0
  4  5  1  0  0  0
  4 94  1  0  0  0
  4 95  1  0  0  0
  5  6  1  0  0  0
  5 26  1  0  0  0
  5 96  1  0  0  0
  6 25  1  0  0  0
  6 97  1  0  0  0
  6 98  1  0  0  0
  7  8  2  0  0  0
  7 26  1  0  0  0
  7 29  1  0  0  0
  8  9  1  0  0  0
  8 22  1  0  0  0
  9 10  1  0  0  0
  9 27  2  0  0  0
 10 11  2  0  0  0
 10 15  1  0  0  0
 11 12  1  0  0  0
 11 99  1  0  0  0
 12 13  2  0  0  0
 12100  1  0  0  0
 13 14  1  0  0  0
 13 31  1  0  0  0
 14 15  2  0  0  0
 14101  1  0  0  0
 15102  1  0  0  0
 16 17  2  0  0  0
 16 21  1  0  0  0
 16 31  1  0  0  0
 17 18  1  0  0  0
 17103  1  0  0  0
 18 19  2  0  0  0
 18104  1  0  0  0
 19 20  1  0  0  0
 19 24  1  0  0  0
 20 21  2  0  0  0
 20105  1  0  0  0
 21 23  1  0  0  0
 22 28  1  0  0  0
 22 32  2  0  0  0
 26 27  1  0  0  0
 28106  1  0  0  0
 28107  1  0  0  0
 29108  1  0  0  0
 29109  1  0  0  0
 33 34  1  0  0  0
 33 66  1  0  0  0
 33 70  2  0  0  0
 34 36  1  0  0  0
 34 59  1  0  0  0
 34110  1  0  0  0
 35 44  2  0  0  0
 35 45  1  0  0  0
 35 68  1  0  0  0
 36 56  1  0  0  0
 36111  1  0  0  0
 37 39  1  0  0  0
 37 47  1  0  0  0
 37 66  1  0  0  0
 37112  1  0  0  0
 38 43  2  0  0  0
 38 46  1  0  0  0
 38 47  1  0  0  0
 39 64  1  0  0  0
 39 67  2  0  0  0
 40 52  1  0  0  0
 40 53  2  0  0  0
 40 58  1  0  0  0
 41113  1  0  0  0
 41114  1  0  0  0
 41115  1  0  0  0
 41 48  1  0  0  0
 42 43  1  0  0  0
 42 66  1  0  0  0
 42116  1  0  0  0
 42117  1  0  0  0
 43 44  1  0  0  0
 44118  1  0  0  0
 45 46  2  0  0  0
 45119  1  0  0  0
 46120  1  0  0  0
 47121  1  0  0  0
 47122  1  0  0  0
 48 56  1  0  0  0
 48 65  1  0  0  0
 48123  1  0  0  0
 49 50  1  0  0  0
 49 53  1  0  0  0
 49 64  1  0  0  0
 49124  1  0  0  0
 50 51  1  0  0  0
 50125  1  0  0  0
 50126  1  0  0  0
 51 52  1  0  0  0
 51127  1  0  0  0
 51128  1  0  0  0
 52129  1  0  0  0
 52130  1  0  0  0
 53 54  1  0  0  0
 54 55  2  0  0  0
 54131  1  0  0  0
 55 57  1  0  0  0
 55132  1  0  0  0
 56 69  2  0  0  0
 57 58  2  0  0  0
 57133  1  0  0  0
 58134  1  0  0  0
 59 60  1  0  0  0
 59 61  1  0  0  0
 59 62  1  0  0  0
 60135  1  0  0  0
 60136  1  0  0  0
 60137  1  0  0  0
 61138  1  0  0  0
 61139  1  0  0  0
 61140  1  0  0  0
 62141  1  0  0  0
 62142  1  0  0  0
 62143  1  0  0  0
 63 65  1  0  0  0
 63144  1  0  0  0
 63145  1  0  0  0
 63146  1  0  0  0
 64147  1  0  0  0
 65148  1  0  0  0
 68 85  1  0  0  0
 71 73  2  0  0  0
 71 74  1  0  0  0
 71149  1  0  0  0
 72 73  1  0  0  0
 72 75  2  0  0  0
 72150  1  0  0  0
 73 88  1  0  0  0
 74 76  2  0  0  0
 74 77  1  0  0  0
 75 76  1  0  0  0
 75 82  1  0  0  0
 76 87  1  0  0  0
 77151  1  0  0  0
 77152  1  0  0  0
 77153  1  0  0  0
 78154  1  0  0  0
 78155  1  0  0  0
 78156  1  0  0  0
 78 87  1  0  0  0
 79 87  1  0  0  0
 79157  1  0  0  0
 79158  1  0  0  0
 79159  1  0  0  0
 80160  1  0  0  0
 80161  1  0  0  0
 80162  1  0  0  0
 80 88  1  0  0  0
 81 89  1  0  0  0
 81163  1  0  0  0
 81164  1  0  0  0
 81165  1  0  0  0
 82 83  1  0  0  0
 82166  1  0  0  0
 82167  1  0  0  0
 83168  1  0  0  0
 83169  1  0  0  0
 84 85  1  0  0  0
 84 88  1  0  0  0
 84170  1  0  0  0
 84171  1  0  0  0
 85172  1  0  0  0
 85173  1  0  0  0
 86 88  1  0  0  0
 86 89  1  0  0  0
 86174  1  0  0  0
 86175  1  0  0  0
 87176  1  0  0  0
M  ISO  4   1 100  68 101  83 100  85 101
M  END
> <chiral flag>
0

> <version>
0

> <s_m_source_file>
/data/baiqing/PycharmProjects/Reinvent-master-3.2/result/LINK_invent/BTK/process_docking_weight1_custom_sum_contain_oxygen_bond_distance_aromatic_linkinvent_7_9_3/rearranged_h_0105.sdf

> <i_m_source_file_index>
56

> <r_mmod_Potential_Energy-OPLS-2005>
243.033081054688

> <r_mmod_Stretch_Energy-OPLS-2005>
120.478103637695

> <r_mmod_Bend_Energy-OPLS-2005>
192.449569702148

> <r_mmod_Torsional_Energy-OPLS-2005>
247.757064819336

> <r_mmod_Improper_Torsional_Energy-OPLS-2005>
7.96754837036133

> <r_mmod_Van_der_Waal_Energy-OPLS-2005>
168.41064453125

> <r_mmod_Electrostatic_Energy-OPLS-2005>
-372.801330566406

> <r_mmod_Solvation_Energy-OPLS-2005>
-190.157806396484

> <b_mmod_Minimization_Converged-OPLS-2005>
0

> <r_mmod_RMS_Derivative-OPLS-2005>
4.5077805519104

$$$$
56
                    3D
 Structure written by MMmdl.
147155  0  0  1  0            999 V2000
  -30.2080  -15.8793   20.3025 C   0  0  0  0  0  0
  -30.4053  -13.2674   19.5362 C   0  0  0  0  0  0
  -29.5573  -12.7125   18.3482 C   0  0  0  0  0  0
  -28.1528  -12.3014   18.8087 C   0  0  0  0  0  0
  -27.5871  -13.3306   19.8083 C   0  0  2  0  0  0
  -28.5874  -13.7703   20.9095 C   0  0  0  0  0  0
  -25.2285  -13.8317   20.5825 C   0  0  0  0  0  0
  -24.1701  -13.0436   20.9306 C   0  0  0  0  0  0
  -24.6435  -11.6957   20.8770 C   0  0  0  0  0  0
  -23.9141  -10.4295   21.0393 C   0  0  0  0  0  0
  -24.3669   -9.4207   21.9178 C   0  0  0  0  0  0
  -23.6324   -8.2250   22.0753 C   0  0  0  0  0  0
  -22.4303   -8.0295   21.3544 C   0  0  0  0  0  0
  -21.9952   -9.0272   20.4643 C   0  0  0  0  0  0
  -22.7303  -10.2139   20.3048 C   0  0  0  0  0  0
  -21.6860   -6.0748   22.5279 C   0  0  0  0  0  0
  -21.4020   -6.5648   23.8213 C   0  0  0  0  0  0
  -21.3657   -5.6797   24.9174 C   0  0  0  0  0  0
  -21.6043   -4.3060   24.7221 C   0  0  0  0  0  0
  -21.8820   -3.8155   23.4343 C   0  0  0  0  0  0
  -21.9196   -4.6973   22.3400 C   0  0  0  0  0  0
  -22.7706  -13.5149   21.1932 C   0  0  0  0  0  0
  -22.1663   -4.2160   21.0977 F   0  0  0  0  0  0
  -21.5623   -3.4541   25.7732 F   0  0  0  0  0  0
  -29.7181  -14.4699   20.2343 N   0  0  0  0  0  0
  -26.2759  -12.9691   20.3269 N   0  0  0  0  0  0
  -25.9392  -11.6735   20.5700 N   0  0  0  0  0  0
  -22.0378  -12.8119   22.0482 N   0  0  0  0  0  0
  -25.3846  -15.2060   20.4247 N   0  0  0  0  0  0
  -31.4500  -15.7769   20.1799 O   0  0  0  0  0  0
  -21.6653   -6.8899   21.4245 O   0  0  0  0  0  0
  -22.3375  -14.5443   20.6767 O   0  0  0  0  0  0
  -24.6999  -31.7791   23.1350 C   0  0  0  0  0  0
  -25.9497  -32.4361   23.7963 C   0  0  1  0  0  0
  -27.2345  -26.5250   20.2341 C   0  0  0  0  0  0
  -25.6007  -33.8194   24.1841 N   0  0  0  0  0  0
  -23.5334  -30.3727   21.4932 C   0  0  2  0  0  0
  -24.9897  -28.6713   20.1240 C   0  0  0  0  0  0
  -22.7835  -29.4209   22.4660 C   0  0  0  0  0  0
  -18.0351  -28.1438   22.8455 C   0  0  0  0  0  0
  -24.1486  -36.7096   23.2658 C   0  0  0  0  0  0
  -26.1201  -30.4535   21.4240 C   0  0  0  0  0  0
  -26.1816  -28.9981   20.7789 C   0  0  0  0  0  0
  -27.2780  -27.9595   20.7919 C   0  0  0  0  0  0
  -26.0048  -26.4470   19.5192 C   0  0  0  0  0  0
  -24.9504  -27.4241   19.4698 C   0  0  0  0  0  0
  -23.7953  -29.6500   20.1371 C   0  0  0  0  0  0
  -25.4144  -36.2831   24.0275 C   0  0  1  0  0  0
  -20.5993  -28.3800   23.1116 C   0  0  2  0  0  0
  -20.6808  -26.9444   22.5407 C   0  0  0  0  0  0
  -19.5783  -26.6372   21.5224 C   0  0  0  0  0  0
  -18.1967  -26.7966   22.1620 C   0  0  0  0  0  0
  -19.1622  -28.8947   23.2764 C   0  0  0  0  0  0
  -18.9526  -30.1528   23.8814 C   0  0  0  0  0  0
  -17.6514  -30.6616   24.0552 C   0  0  0  0  0  0
  -25.9141  -34.9228   23.4908 C   0  0  0  0  0  0
  -16.5401  -29.9096   23.6361 C   0  0  0  0  0  0
  -16.7330  -28.6519   23.0380 C   0  0  0  0  0  0
  -26.4620  -31.6476   25.0661 C   0  0  0  0  0  0
  -25.3637  -31.3853   26.1246 C   0  0  0  0  0  0
  -27.0578  -30.2793   24.6689 C   0  0  0  0  0  0
  -27.6040  -32.4376   25.7483 C   0  0  0  0  0  0
  -27.5551  -37.1699   24.8472 C   0  0  0  0  0  0
  -21.4466  -29.3009   22.3412 N   0  0  0  0  0  0
  -26.4251  -37.3616   23.9421 N   0  0  0  0  0  0
  -24.8102  -30.9060   22.0695 N   0  0  0  0  0  0
  -23.4202  -28.7848   23.3093 O   0  0  0  0  0  0
  -28.2288  -25.2701   20.3071 O   0  0  0  0  0  0
  -26.5803  -34.8847   22.4540 O   0  0  0  0  0  0
  -23.5983  -32.0946   23.6200 O   0  0  0  0  0  0
  -29.0070  -20.4083   21.4266 C   0  0  0  0  0  0
  -28.8149  -20.3602   19.1958 C   0  0  0  0  0  0
  -28.2095  -22.0310   21.3069 C   0  0  0  0  0  0
  -28.8954  -22.1650   19.1502 C   0  0  0  0  0  0
  -29.4841  -19.1808   20.2792 C   0  0  2  0  0  0
  -28.4463  -23.4132   20.2815 C   0  0  1  0  0  0
  -29.4452  -17.3077   20.3278 N   0  0  0  0  0  0
  -31.3736  -13.5706   19.1367 H   0  0  0  0  0  0
  -30.6372  -12.4748   20.2501 H   0  0  0  0  0  0
  -30.0622  -11.8674   17.8782 H   0  0  0  0  0  0
  -29.4720  -13.4841   17.5817 H   0  0  0  0  0  0
  -28.2294  -11.3287   19.2968 H   0  0  0  0  0  0
  -27.4850  -12.1703   17.9563 H   0  0  0  0  0  0
  -27.4159  -14.2152   19.1929 H   0  0  0  0  0  0
  -28.9065  -12.9318   21.5303 H   0  0  0  0  0  0
  -28.1062  -14.4794   21.5845 H   0  0  0  0  0  0
  -25.2809   -9.5675   22.4765 H   0  0  0  0  0  0
  -24.0019   -7.4643   22.7480 H   0  0  0  0  0  0
  -21.0880   -8.8811   19.8951 H   0  0  0  0  0  0
  -22.3769  -10.9685   19.6161 H   0  0  0  0  0  0
  -21.2017   -7.6157   23.9721 H   0  0  0  0  0  0
  -21.1472   -6.0525   25.9076 H   0  0  0  0  0  0
  -22.0599   -2.7617   23.2840 H   0  0  0  0  0  0
  -22.4025  -11.9796   22.4878 H   0  0  0  0  0  0
  -21.0982  -13.1107   22.2685 H   0  0  0  0  0  0
  -24.6102  -15.8522   20.5322 H   0  0  0  0  0  0
  -26.2250  -15.6482   20.0772 H   0  0  0  0  0  0
  -26.7593  -32.4786   23.0682 H   0  0  0  0  0  0
  -25.0061  -33.9199   24.9934 H   0  0  0  0  0  0
  -22.8689  -31.2144   21.2873 H   0  0  0  0  0  0
  -23.3777  -35.9393   23.3254 H   0  0  0  0  0  0
  -24.3549  -36.8828   22.2085 H   0  0  0  0  0  0
  -23.7212  -37.6238   23.6788 H   0  0  0  0  0  0
  -26.3412  -31.1655   20.6279 H   0  0  0  0  0  0
  -26.9650  -30.5277   22.0962 H   0  0  0  0  0  0
  -28.1750  -28.2272   21.3318 H   0  0  0  0  0  0
  -25.8133  -25.5164   19.0038 H   0  0  0  0  0  0
  -24.0551  -27.1625   18.9233 H   0  0  0  0  0  0
  -23.9847  -30.4004   19.3686 H   0  0  0  0  0  0
  -22.8957  -29.1252   19.8112 H   0  0  0  0  0  0
  -25.1359  -36.1560   25.0763 H   0  0  0  0  0  0
  -21.0078  -28.3435   24.1243 H   0  0  0  0  0  0
  -20.5664  -26.2425   23.3683 H   0  0  0  0  0  0
  -21.6667  -26.7363   22.1231 H   0  0  0  0  0  0
  -19.6933  -25.6262   21.1305 H   0  0  0  0  0  0
  -19.6736  -27.3144   20.6726 H   0  0  0  0  0  0
  -17.4240  -26.6723   21.4019 H   0  0  0  0  0  0
  -18.0338  -26.0130   22.9032 H   0  0  0  0  0  0
  -19.8002  -30.7370   24.2139 H   0  0  0  0  0  0
  -17.5066  -31.6289   24.5172 H   0  0  0  0  0  0
  -15.5400  -30.2975   23.7736 H   0  0  0  0  0  0
  -15.8729  -28.0810   22.7145 H   0  0  0  0  0  0
  -24.5860  -30.7163   25.7546 H   0  0  0  0  0  0
  -24.8788  -32.3095   26.4397 H   0  0  0  0  0  0
  -25.7774  -30.9196   27.0198 H   0  0  0  0  0  0
  -26.3328  -29.6350   24.1706 H   0  0  0  0  0  0
  -27.3967  -29.7313   25.5490 H   0  0  0  0  0  0
  -27.9319  -30.3881   24.0266 H   0  0  0  0  0  0
  -27.2569  -33.3779   26.1775 H   0  0  0  0  0  0
  -28.3992  -32.6769   25.0409 H   0  0  0  0  0  0
  -28.0550  -31.8691   26.5625 H   0  0  0  0  0  0
  -28.2533  -38.0027   24.7528 H   0  0  0  0  0  0
  -28.1080  -36.2550   24.6287 H   0  0  0  0  0  0
  -27.2272  -37.1319   25.8875 H   0  0  0  0  0  0
  -20.9807  -29.8618   21.6415 H   0  0  0  0  0  0
  -26.0058  -38.2647   24.1460 H   0  0  0  0  0  0
  -28.3926  -19.8709   22.1492 H   0  0  0  0  0  0
  -29.9213  -20.6058   21.9877 H   0  0  0  0  0  0
  -29.1587  -20.0483   18.2096 H   0  0  0  0  0  0
  -27.7473  -20.1350   19.1656 H   0  0  0  0  0  0
  -28.2549  -22.4307   22.3202 H   0  0  0  0  0  0
  -27.1511  -21.7970   21.1851 H   0  0  0  0  0  0
  -28.3558  -22.4305   18.2413 H   0  0  0  0  0  0
  -29.9326  -22.3831   18.8922 H   0  0  0  0  0  0
  -30.5599  -19.3206   20.1638 H   0  0  0  0  0  0
  -29.4535  -23.6212   20.6440 H   0  0  0  0  0  0
  -28.4688  -17.0514   20.3771 H   0  0  0  0  0  0
  1 25  1  0  0  0
  1 30  2  0  0  0
  1 77  1  0  0  0
  2  3  1  0  0  0
  2 25  1  0  0  0
  2 78  1  0  0  0
  2 79  1  0  0  0
  3  4  1  0  0  0
  3 80  1  0  0  0
  3 81  1  0  0  0
  4  5  1  0  0  0
  4 82  1  0  0  0
  4 83  1  0  0  0
  5  6  1  0  0  0
  5 26  1  0  0  0
  5 84  1  0  0  0
  6 25  1  0  0  0
  6 85  1  0  0  0
  6 86  1  0  0  0
  7  8  2  0  0  0
  7 26  1  0  0  0
  7 29  1  0  0  0
  8  9  1  0  0  0
  8 22  1  0  0  0
  9 10  1  0  0  0
  9 27  2  0  0  0
 10 11  2  0  0  0
 10 15  1  0  0  0
 11 12  1  0  0  0
 11 87  1  0  0  0
 12 13  2  0  0  0
 12 88  1  0  0  0
 13 14  1  0  0  0
 13 31  1  0  0  0
 14 15  2  0  0  0
 14 89  1  0  0  0
 15 90  1  0  0  0
 16 17  2  0  0  0
 16 21  1  0  0  0
 16 31  1  0  0  0
 17 18  1  0  0  0
 17 91  1  0  0  0
 18 19  2  0  0  0
 18 92  1  0  0  0
 19 20  1  0  0  0
 19 24  1  0  0  0
 20 21  2  0  0  0
 20 93  1  0  0  0
 21 23  1  0  0  0
 22 28  1  0  0  0
 22 32  2  0  0  0
 26 27  1  0  0  0
 28 94  1  0  0  0
 28 95  1  0  0  0
 29 96  1  0  0  0
 29 97  1  0  0  0
 33 34  1  0  0  0
 33 66  1  0  0  0
 33 70  2  0  0  0
 34 36  1  0  0  0
 34 59  1  0  0  0
 34 98  1  0  0  0
 35 44  2  0  0  0
 35 45  1  0  0  0
 35 68  1  0  0  0
 36 56  1  0  0  0
 36 99  1  0  0  0
 37 39  1  0  0  0
 37 47  1  0  0  0
 37 66  1  0  0  0
 37100  1  0  0  0
 38 43  2  0  0  0
 38 46  1  0  0  0
 38 47  1  0  0  0
 39 64  1  0  0  0
 39 67  2  0  0  0
 40 52  1  0  0  0
 40 53  2  0  0  0
 40 58  1  0  0  0
 41101  1  0  0  0
 41102  1  0  0  0
 41103  1  0  0  0
 41 48  1  0  0  0
 42 43  1  0  0  0
 42 66  1  0  0  0
 42104  1  0  0  0
 42105  1  0  0  0
 43 44  1  0  0  0
 44106  1  0  0  0
 45 46  2  0  0  0
 45107  1  0  0  0
 46108  1  0  0  0
 47109  1  0  0  0
 47110  1  0  0  0
 48 56  1  0  0  0
 48 65  1  0  0  0
 48111  1  0  0  0
 49 50  1  0  0  0
 49 53  1  0  0  0
 49 64  1  0  0  0
 49112  1  0  0  0
 50 51  1  0  0  0
 50113  1  0  0  0
 50114  1  0  0  0
 51 52  1  0  0  0
 51115  1  0  0  0
 51116  1  0  0  0
 52117  1  0  0  0
 52118  1  0  0  0
 53 54  1  0  0  0
 54 55  2  0  0  0
 54119  1  0  0  0
 55 57  1  0  0  0
 55120  1  0  0  0
 56 69  2  0  0  0
 57 58  2  0  0  0
 57121  1  0  0  0
 58122  1  0  0  0
 59 60  1  0  0  0
 59 61  1  0  0  0
 59 62  1  0  0  0
 60123  1  0  0  0
 60124  1  0  0  0
 60125  1  0  0  0
 61126  1  0  0  0
 61127  1  0  0  0
 61128  1  0  0  0
 62129  1  0  0  0
 62130  1  0  0  0
 62131  1  0  0  0
 63 65  1  0  0  0
 63132  1  0  0  0
 63133  1  0  0  0
 63134  1  0  0  0
 64135  1  0  0  0
 65136  1  0  0  0
 68 76  1  0  0  0
 71 73  1  0  0  0
 71 75  1  0  0  0
 71137  1  0  0  0
 71138  1  0  0  0
 72 74  1  0  0  0
 72 75  1  0  0  0
 72139  1  0  0  0
 72140  1  0  0  0
 73 76  1  0  0  0
 73141  1  0  0  0
 73142  1  0  0  0
 74 76  1  0  0  0
 74143  1  0  0  0
 74144  1  0  0  0
 75 77  1  0  0  0
 75145  1  0  0  0
 76146  1  0  0  0
 77147  1  0  0  0
M  ISO  4   1 100  68 101  76 101  77 100
M  END
> <chiral flag>
0

> <version>
0

> <s_m_source_file>
/data/baiqing/PycharmProjects/Reinvent-master-3.2/result/LINK_invent/BTK/process_docking_weight1_custom_sum_contain_oxygen_bond_distance_aromatic_linkinvent_7_9_3/rearranged_h_0105.sdf

> <i_m_source_file_index>
57

> <r_mmod_Potential_Energy-OPLS-2005>
3508.3359375

> <r_mmod_Stretch_Energy-OPLS-2005>
1375.18981933594

> <r_mmod_Bend_Energy-OPLS-2005>
1047.43798828125

> <r_mmod_Torsional_Energy-OPLS-2005>
244.690505981445

> <r_mmod_Improper_Torsional_Energy-OPLS-2005>
3.74291706085205

> <r_mmod_Van_der_Waal_Energy-OPLS-2005>
121.230651855469

> <r_mmod_Electrostatic_Energy-OPLS-2005>
-364.220825195312

> <r_mmod_Solvation_Energy-OPLS-2005>
-216.269866943359

> <b_mmod_Minimization_Converged-OPLS-2005>
0

> <r_mmod_RMS_Derivative-OPLS-2005>
0.805095314979553

$$$$
57
                    3D
 Structure written by MMmdl.
166174  0  0  1  0            999 V2000
  -30.4975  -15.0475   20.4110 C   0  0  0  0  0  0
  -30.4410  -12.6618   19.4921 C   0  0  0  0  0  0
  -29.5227  -12.5471   18.2528 C   0  0  0  0  0  0
  -28.0593  -12.3110   18.6780 C   0  0  0  0  0  0
  -27.6195  -13.2558   19.8267 C   0  0  2  0  0  0
  -28.6627  -13.3255   20.9588 C   0  0  0  0  0  0
  -25.2426  -13.8223   20.5709 C   0  0  0  0  0  0
  -24.1759  -13.0442   20.9249 C   0  0  0  0  0  0
  -24.6384  -11.6925   20.8757 C   0  0  0  0  0  0
  -23.9078  -10.4291   21.0416 C   0  0  0  0  0  0
  -24.3628   -9.4208   21.9194 C   0  0  0  0  0  0
  -23.6307   -8.2237   22.0765 C   0  0  0  0  0  0
  -22.4286   -8.0276   21.3547 C   0  0  0  0  0  0
  -21.9925   -9.0248   20.4651 C   0  0  0  0  0  0
  -22.7249  -10.2132   20.3064 C   0  0  0  0  0  0
  -21.6848   -6.0735   22.5285 C   0  0  0  0  0  0
  -21.4006   -6.5640   23.8213 C   0  0  0  0  0  0
  -21.3670   -5.6793   24.9178 C   0  0  0  0  0  0
  -21.6048   -4.3051   24.7232 C   0  0  0  0  0  0
  -21.8816   -3.8149   23.4351 C   0  0  0  0  0  0
  -21.9195   -4.6967   22.3406 C   0  0  0  0  0  0
  -22.7777  -13.5204   21.1898 C   0  0  0  0  0  0
  -22.1661   -4.2158   21.0981 F   0  0  0  0  0  0
  -21.5645   -3.4535   25.7743 F   0  0  0  0  0  0
  -29.9181  -13.7739   20.3423 N   0  0  0  0  0  0
  -26.2839  -12.9463   20.3190 N   0  0  0  0  0  0
  -25.9316  -11.6594   20.5716 N   0  0  0  0  0  0
  -22.0417  -12.8196   22.0438 N   0  0  0  0  0  0
  -25.4075  -15.1959   20.4134 N   0  0  0  0  0  0
  -31.7205  -15.0941   20.2338 O   0  0  0  0  0  0
  -21.6637   -6.8880   21.4246 O   0  0  0  0  0  0
  -22.3456  -14.5506   20.6734 O   0  0  0  0  0  0
  -24.6477  -31.8375   23.1800 C   0  0  0  0  0  0
  -25.9226  -32.4651   23.8210 C   0  0  1  0  0  0
  -27.2172  -27.0673   20.1782 C   0  0  0  0  0  0
  -25.5958  -33.8461   24.2129 N   0  0  0  0  0  0
  -23.4530  -30.4514   21.5286 C   0  0  2  0  0  0
  -24.9016  -28.8511   20.1237 C   0  0  0  0  0  0
  -22.7574  -29.4518   22.4867 C   0  0  0  0  0  0
  -18.0304  -28.1384   22.8470 C   0  0  0  0  0  0
  -24.1500  -36.7244   23.2640 C   0  0  0  0  0  0
  -26.0111  -30.6892   21.3863 C   0  0  0  0  0  0
  -26.0805  -29.2886   20.7395 C   0  0  0  0  0  0
  -27.2407  -28.4177   20.7355 C   0  0  0  0  0  0
  -26.0083  -26.7323   19.5369 C   0  0  0  0  0  0
  -24.8806  -27.5884   19.5069 C   0  0  0  0  0  0
  -23.6824  -29.7643   20.1541 C   0  0  0  0  0  0
  -25.4137  -36.3007   24.0300 C   0  0  1  0  0  0
  -20.5916  -28.3717   23.1227 C   0  0  2  0  0  0
  -20.6791  -26.9417   22.5403 C   0  0  0  0  0  0
  -19.5769  -26.6374   21.5206 C   0  0  0  0  0  0
  -18.1949  -26.7924   22.1612 C   0  0  0  0  0  0
  -19.1558  -28.8875   23.2837 C   0  0  0  0  0  0
  -18.9473  -30.1471   23.8858 C   0  0  0  0  0  0
  -17.6466  -30.6581   24.0551 C   0  0  0  0  0  0
  -25.9091  -34.9383   23.5031 C   0  0  0  0  0  0
  -16.5360  -29.9066   23.6335 C   0  0  0  0  0  0
  -16.7289  -28.6490   23.0356 C   0  0  0  0  0  0
  -26.4531  -31.6544   25.0683 C   0  0  0  0  0  0
  -25.3693  -31.3750   26.1363 C   0  0  0  0  0  0
  -27.0400  -30.2928   24.6310 C   0  0  0  0  0  0
  -27.6042  -32.4326   25.7481 C   0  0  0  0  0  0
  -27.5579  -37.1781   24.8457 C   0  0  0  0  0  0
  -21.4265  -29.3034   22.3598 N   0  0  0  0  0  0
  -26.4289  -37.3731   23.9397 N   0  0  0  0  0  0
  -24.7244  -31.0171   22.0860 N   0  0  0  0  0  0
  -23.4190  -28.8086   23.3050 O   0  0  0  0  0  0
  -28.3181  -26.1252   20.0960 O   0  0  0  0  0  0
  -26.5682  -34.8893   22.4615 O   0  0  0  0  0  0
  -23.5587  -32.1276   23.6994 O   0  0  0  0  0  0
  -28.8852  -20.4676   20.8217 C   0  0  0  0  0  0
  -29.4693  -19.2805   20.2514 C   0  0  0  0  0  0
  -29.7156  -19.7664   18.9228 C   0  0  0  0  0  0
  -29.3315  -21.1029   18.7804 C   0  0  0  0  0  0
  -29.4317  -21.9477   17.5434 C   0  0  0  0  0  0
  -29.9162  -18.3036   15.3973 C   0  0  0  0  0  0
  -28.7019  -17.0620   17.2420 C   0  0  0  0  0  0
  -26.5799  -22.8086   20.5687 C   0  0  0  0  0  0
  -30.3442  -18.9304   17.8260 C   0  0  0  0  0  0
  -29.9769  -17.7812   20.8769 C   0  0  0  0  0  0
  -28.4730  -24.6177   20.5862 C   0  0  0  0  0  0
  -29.3087  -18.4064   16.8055 C   0  0  0  0  0  0
  -27.9813  -23.0806   20.0063 C   0  0  1  0  0  0
  -28.7523  -21.6363   19.9428 N   0  0  0  0  0  0
  -29.7015  -16.2469   20.4863 N   0  0  0  0  0  0
  -31.4695  -12.8464   19.1779 H   0  0  0  0  0  0
  -30.4644  -11.7246   20.0500 H   0  0  0  0  0  0
  -29.8594  -11.7398   17.6009 H   0  0  0  0  0  0
  -29.5896  -13.4646   17.6658 H   0  0  0  0  0  0
  -27.9754  -11.2731   19.0033 H   0  0  0  0  0  0
  -27.3932  -12.4164   17.8210 H   0  0  0  0  0  0
  -27.5646  -14.2489   19.3786 H   0  0  0  0  0  0
  -28.7817  -12.3579   21.4482 H   0  0  0  0  0  0
  -28.3444  -14.0280   21.7307 H   0  0  0  0  0  0
  -25.2778   -9.5673   22.4776 H   0  0  0  0  0  0
  -24.0021   -7.4614   22.7477 H   0  0  0  0  0  0
  -21.0859   -8.8762   19.8944 H   0  0  0  0  0  0
  -22.3713  -10.9674   19.6169 H   0  0  0  0  0  0
  -21.1978   -7.6146   23.9722 H   0  0  0  0  0  0
  -21.1501   -6.0517   25.9083 H   0  0  0  0  0  0
  -22.0588   -2.7617   23.2839 H   0  0  0  0  0  0
  -22.4038  -11.9875   22.4850 H   0  0  0  0  0  0
  -21.1031  -13.1213   22.2637 H   0  0  0  0  0  0
  -24.6331  -15.8424   20.5182 H   0  0  0  0  0  0
  -26.2375  -15.6354   20.0387 H   0  0  0  0  0  0
  -26.7279  -32.5233   23.0915 H   0  0  0  0  0  0
  -25.0063  -33.9560   25.0251 H   0  0  0  0  0  0
  -22.7574  -31.2778   21.3641 H   0  0  0  0  0  0
  -23.3768  -35.9568   23.3269 H   0  0  0  0  0  0
  -24.3584  -36.8921   22.2061 H   0  0  0  0  0  0
  -23.7250  -37.6423   23.6712 H   0  0  0  0  0  0
  -26.1702  -31.4353   20.6071 H   0  0  0  0  0  0
  -26.8802  -30.7455   22.0312 H   0  0  0  0  0  0
  -28.1527  -28.7655   21.1995 H   0  0  0  0  0  0
  -25.9321  -25.7725   19.0458 H   0  0  0  0  0  0
  -23.9828  -27.2505   19.0090 H   0  0  0  0  0  0
  -23.8206  -30.5288   19.3880 H   0  0  0  0  0  0
  -22.7951  -29.2060   19.8507 H   0  0  0  0  0  0
  -25.1334  -36.1814   25.0791 H   0  0  0  0  0  0
  -20.9998  -28.3308   24.1350 H   0  0  0  0  0  0
  -20.5683  -26.2329   23.3626 H   0  0  0  0  0  0
  -21.6663  -26.7421   22.1208 H   0  0  0  0  0  0
  -19.6938  -25.6277   21.1259 H   0  0  0  0  0  0
  -19.6712  -27.3163   20.6720 H   0  0  0  0  0  0
  -17.4225  -26.6658   21.4012 H   0  0  0  0  0  0
  -18.0348  -26.0067   22.9012 H   0  0  0  0  0  0
  -19.7952  -30.7305   24.2202 H   0  0  0  0  0  0
  -17.5018  -31.6257   24.5153 H   0  0  0  0  0  0
  -15.5358  -30.2953   23.7689 H   0  0  0  0  0  0
  -15.8691  -28.0798   22.7090 H   0  0  0  0  0  0
  -24.5878  -30.7098   25.7664 H   0  0  0  0  0  0
  -24.8879  -32.2940   26.4721 H   0  0  0  0  0  0
  -25.7961  -30.8953   27.0180 H   0  0  0  0  0  0
  -26.3020  -29.6635   24.1322 H   0  0  0  0  0  0
  -27.3979  -29.7256   25.4913 H   0  0  0  0  0  0
  -27.8943  -30.4132   23.9643 H   0  0  0  0  0  0
  -27.2613  -33.3643   26.1992 H   0  0  0  0  0  0
  -28.3893  -32.6865   25.0344 H   0  0  0  0  0  0
  -28.0661  -31.8495   26.5458 H   0  0  0  0  0  0
  -28.2578  -38.0097   24.7523 H   0  0  0  0  0  0
  -28.1102  -36.2630   24.6270 H   0  0  0  0  0  0
  -27.2295  -37.1398   25.8857 H   0  0  0  0  0  0
  -20.9492  -29.8710   21.6738 H   0  0  0  0  0  0
  -26.0151  -38.2792   24.1408 H   0  0  0  0  0  0
  -28.5200  -20.5867   21.8339 H   0  0  0  0  0  0
  -30.1127  -21.5217   16.8087 H   0  0  0  0  0  0
  -29.8028  -22.9455   17.7759 H   0  0  0  0  0  0
  -28.4588  -22.0470   17.0619 H   0  0  0  0  0  0
  -29.1857  -17.9340   14.6764 H   0  0  0  0  0  0
  -30.7749  -17.6314   15.3794 H   0  0  0  0  0  0
  -30.2504  -19.2790   15.0411 H   0  0  0  0  0  0
  -27.9787  -16.6964   16.5132 H   0  0  0  0  0  0
  -28.1799  -17.1628   18.1941 H   0  0  0  0  0  0
  -29.4680  -16.2946   17.3616 H   0  0  0  0  0  0
  -25.9331  -23.6776   20.4483 H   0  0  0  0  0  0
  -26.6245  -22.5770   21.6316 H   0  0  0  0  0  0
  -26.1021  -21.9692   20.0632 H   0  0  0  0  0  0
  -30.9116  -18.1043   18.2569 H   0  0  0  0  0  0
  -31.0889  -19.5497   17.3247 H   0  0  0  0  0  0
  -29.7046  -17.8328   21.9313 H   0  0  0  0  0  0
  -31.0647  -17.8617   20.8899 H   0  0  0  0  0  0
  -29.5578  -24.5215   20.6228 H   0  0  0  0  0  0
  -28.1963  -24.6487   21.6406 H   0  0  0  0  0  0
  -28.4995  -19.1358   16.7328 H   0  0  0  0  0  0
  -27.7883  -23.3124   18.9603 H   0  0  0  0  0  0
  -28.7165  -16.0352   20.4709 H   0  0  0  0  0  0
  1 25  1  0  0  0
  1 30  2  0  0  0
  1 85  1  0  0  0
  2  3  1  0  0  0
  2 25  1  0  0  0
  2 86  1  0  0  0
  2 87  1  0  0  0
  3  4  1  0  0  0
  3 88  1  0  0  0
  3 89  1  0  0  0
  4  5  1  0  0  0
  4 90  1  0  0  0
  4 91  1  0  0  0
  5  6  1  0  0  0
  5 26  1  0  0  0
  5 92  1  0  0  0
  6 25  1  0  0  0
  6 93  1  0  0  0
  6 94  1  0  0  0
  7  8  2  0  0  0
  7 26  1  0  0  0
  7 29  1  0  0  0
  8  9  1  0  0  0
  8 22  1  0  0  0
  9 10  1  0  0  0
  9 27  2  0  0  0
 10 11  2  0  0  0
 10 15  1  0  0  0
 11 12  1  0  0  0
 11 95  1  0  0  0
 12 13  2  0  0  0
 12 96  1  0  0  0
 13 14  1  0  0  0
 13 31  1  0  0  0
 14 15  2  0  0  0
 14 97  1  0  0  0
 15 98  1  0  0  0
 16 17  2  0  0  0
 16 21  1  0  0  0
 16 31  1  0  0  0
 17 18  1  0  0  0
 17 99  1  0  0  0
 18 19  2  0  0  0
 18100  1  0  0  0
 19 20  1  0  0  0
 19 24  1  0  0  0
 20 21  2  0  0  0
 20101  1  0  0  0
 21 23  1  0  0  0
 22 28  1  0  0  0
 22 32  2  0  0  0
 26 27  1  0  0  0
 28102  1  0  0  0
 28103  1  0  0  0
 29104  1  0  0  0
 29105  1  0  0  0
 33 34  1  0  0  0
 33 66  1  0  0  0
 33 70  2  0  0  0
 34 36  1  0  0  0
 34 59  1  0  0  0
 34106  1  0  0  0
 35 44  2  0  0  0
 35 45  1  0  0  0
 35 68  1  0  0  0
 36 56  1  0  0  0
 36107  1  0  0  0
 37 39  1  0  0  0
 37 47  1  0  0  0
 37 66  1  0  0  0
 37108  1  0  0  0
 38 43  2  0  0  0
 38 46  1  0  0  0
 38 47  1  0  0  0
 39 64  1  0  0  0
 39 67  2  0  0  0
 40 52  1  0  0  0
 40 53  2  0  0  0
 40 58  1  0  0  0
 41109  1  0  0  0
 41110  1  0  0  0
 41111  1  0  0  0
 41 48  1  0  0  0
 42 43  1  0  0  0
 42 66  1  0  0  0
 42112  1  0  0  0
 42113  1  0  0  0
 43 44  1  0  0  0
 44114  1  0  0  0
 45 46  2  0  0  0
 45115  1  0  0  0
 46116  1  0  0  0
 47117  1  0  0  0
 47118  1  0  0  0
 48 56  1  0  0  0
 48 65  1  0  0  0
 48119  1  0  0  0
 49 50  1  0  0  0
 49 53  1  0  0  0
 49 64  1  0  0  0
 49120  1  0  0  0
 50 51  1  0  0  0
 50121  1  0  0  0
 50122  1  0  0  0
 51 52  1  0  0  0
 51123  1  0  0  0
 51124  1  0  0  0
 52125  1  0  0  0
 52126  1  0  0  0
 53 54  1  0  0  0
 54 55  2  0  0  0
 54127  1  0  0  0
 55 57  1  0  0  0
 55128  1  0  0  0
 56 69  2  0  0  0
 57 58  2  0  0  0
 57129  1  0  0  0
 58130  1  0  0  0
 59 60  1  0  0  0
 59 61  1  0  0  0
 59 62  1  0  0  0
 60131  1  0  0  0
 60132  1  0  0  0
 60133  1  0  0  0
 61134  1  0  0  0
 61135  1  0  0  0
 61136  1  0  0  0
 62137  1  0  0  0
 62138  1  0  0  0
 62139  1  0  0  0
 63 65  1  0  0  0
 63140  1  0  0  0
 63141  1  0  0  0
 63142  1  0  0  0
 64143  1  0  0  0
 65144  1  0  0  0
 68 81  1  0  0  0
 71 72  2  0  0  0
 71 84  1  0  0  0
 71145  1  0  0  0
 72 73  1  0  0  0
 72 80  1  0  0  0
 73 74  2  0  0  0
 73 79  1  0  0  0
 74 75  1  0  0  0
 74 84  1  0  0  0
 75146  1  0  0  0
 75147  1  0  0  0
 75148  1  0  0  0
 76149  1  0  0  0
 76150  1  0  0  0
 76151  1  0  0  0
 76 82  1  0  0  0
 77 82  1  0  0  0
 77152  1  0  0  0
 77153  1  0  0  0
 77154  1  0  0  0
 78155  1  0  0  0
 78156  1  0  0  0
 78157  1  0  0  0
 78 83  1  0  0  0
 79 82  1  0  0  0
 79158  1  0  0  0
 79159  1  0  0  0
 80 85  1  0  0  0
 80160  1  0  0  0
 80161  1  0  0  0
 81 83  1  0  0  0
 81162  1  0  0  0
 81163  1  0  0  0
 82164  1  0  0  0
 83 84  1  0  0  0
 83165  1  0  0  0
 85166  1  0  0  0
M  ISO  4   1 100  68 101  81 101  85 100
M  END
> <chiral flag>
0

> <version>
0

> <s_m_source_file>
/data/baiqing/PycharmProjects/Reinvent-master-3.2/result/LINK_invent/BTK/process_docking_weight1_custom_sum_contain_oxygen_bond_distance_aromatic_linkinvent_7_9_3/rearranged_h_0105.sdf

> <i_m_source_file_index>
58

> <r_mmod_Potential_Energy-OPLS-2005>
725.675231933594

> <r_mmod_Stretch_Energy-OPLS-2005>
341.604095458984

> <r_mmod_Bend_Energy-OPLS-2005>
386.05419921875

> <r_mmod_Torsional_Energy-OPLS-2005>
269.129455566406

> <r_mmod_Improper_Torsional_Energy-OPLS-2005>
7.455078125

> <r_mmod_Van_der_Waal_Energy-OPLS-2005>
93.2431488037109

> <r_mmod_Electrostatic_Energy-OPLS-2005>
-415.873657226562

> <r_mmod_Solvation_Energy-OPLS-2005>
-208.358642578125

> <b_mmod_Minimization_Converged-OPLS-2005>
0

> <r_mmod_RMS_Derivative-OPLS-2005>
1.78619205951691

$$$$
58
                    3D
 Structure written by MMmdl.
161168  0  0  1  0            999 V2000
  -30.6234  -14.6851   20.4673 C   0  0  0  0  0  0
  -30.4310  -12.4217   19.4556 C   0  0  0  0  0  0
  -29.5056  -12.5052   18.2220 C   0  0  0  0  0  0
  -28.0302  -12.3377   18.6344 C   0  0  0  0  0  0
  -27.6427  -13.2225   19.8494 C   0  0  2  0  0  0
  -28.6883  -13.1293   20.9814 C   0  0  0  0  0  0
  -25.2514  -13.8160   20.5676 C   0  0  0  0  0  0
  -24.1799  -13.0420   20.9201 C   0  0  0  0  0  0
  -24.6373  -11.6896   20.8734 C   0  0  0  0  0  0
  -23.9043  -10.4277   21.0395 C   0  0  0  0  0  0
  -24.3605   -9.4200   21.9175 C   0  0  0  0  0  0
  -23.6281   -8.2242   22.0766 C   0  0  0  0  0  0
  -22.4267   -8.0270   21.3553 C   0  0  0  0  0  0
  -21.9887   -9.0231   20.4657 C   0  0  0  0  0  0
  -22.7210  -10.2111   20.3049 C   0  0  0  0  0  0
  -21.6850   -6.0715   22.5267 C   0  0  0  0  0  0
  -21.4015   -6.5626   23.8193 C   0  0  0  0  0  0
  -21.3675   -5.6788   24.9162 C   0  0  0  0  0  0
  -21.6050   -4.3048   24.7218 C   0  0  0  0  0  0
  -21.8813   -3.8126   23.4342 C   0  0  0  0  0  0
  -21.9189   -4.6940   22.3393 C   0  0  0  0  0  0
  -22.7816  -13.5218   21.1858 C   0  0  0  0  0  0
  -22.1657   -4.2119   21.0974 F   0  0  0  0  0  0
  -21.5636   -3.4541   25.7739 F   0  0  0  0  0  0
  -29.9952  -13.4679   20.4021 N   0  0  0  0  0  0
  -26.2926  -12.9349   20.3255 N   0  0  0  0  0  0
  -25.9297  -11.6498   20.5731 N   0  0  0  0  0  0
  -22.0461  -12.8210   22.0424 N   0  0  0  0  0  0
  -25.4218  -15.1883   20.4068 N   0  0  0  0  0  0
  -31.8094  -14.8028   20.1514 O   0  0  0  0  0  0
  -21.6648   -6.8859   21.4231 O   0  0  0  0  0  0
  -22.3499  -14.5513   20.6694 O   0  0  0  0  0  0
  -24.6265  -31.8580   23.2000 C   0  0  0  0  0  0
  -25.9100  -32.4776   23.8339 C   0  0  1  0  0  0
  -27.2274  -27.3095   20.1297 C   0  0  0  0  0  0
  -25.5905  -33.8576   24.2267 N   0  0  0  0  0  0
  -23.4217  -30.4786   21.5439 C   0  0  2  0  0  0
  -24.8681  -28.9203   20.1218 C   0  0  0  0  0  0
  -22.7477  -29.4617   22.4948 C   0  0  0  0  0  0
  -18.0278  -28.1393   22.8500 C   0  0  0  0  0  0
  -24.1480  -36.7290   23.2644 C   0  0  0  0  0  0
  -25.9616  -30.7867   21.3698 C   0  0  0  0  0  0
  -26.0372  -29.4086   20.7205 C   0  0  0  0  0  0
  -27.2236  -28.6161   20.7091 C   0  0  0  0  0  0
  -26.0375  -26.8630   19.5218 C   0  0  0  0  0  0
  -24.8684  -27.6520   19.5156 C   0  0  0  0  0  0
  -23.6381  -29.8059   20.1624 C   0  0  0  0  0  0
  -25.4107  -36.3080   24.0333 C   0  0  1  0  0  0
  -20.5882  -28.3691   23.1292 C   0  0  2  0  0  0
  -20.6768  -26.9414   22.5417 C   0  0  0  0  0  0
  -19.5746  -26.6392   21.5220 C   0  0  0  0  0  0
  -18.1927  -26.7938   22.1633 C   0  0  0  0  0  0
  -19.1533  -28.8864   23.2886 C   0  0  0  0  0  0
  -18.9451  -30.1470   23.8898 C   0  0  0  0  0  0
  -17.6449  -30.6594   24.0567 C   0  0  0  0  0  0
  -25.9045  -34.9451   23.5104 C   0  0  0  0  0  0
  -16.5341  -29.9089   23.6337 C   0  0  0  0  0  0
  -16.7267  -28.6507   23.0361 C   0  0  0  0  0  0
  -26.4489  -31.6591   25.0713 C   0  0  0  0  0  0
  -25.3723  -31.3724   26.1440 C   0  0  0  0  0  0
  -27.0328  -30.3020   24.6153 C   0  0  0  0  0  0
  -27.6042  -32.4336   25.7487 C   0  0  0  0  0  0
  -27.5574  -37.1799   24.8472 C   0  0  0  0  0  0
  -21.4187  -29.3036   22.3685 N   0  0  0  0  0  0
  -26.4283  -37.3776   23.9419 N   0  0  0  0  0  0
  -24.6891  -31.0586   22.0950 N   0  0  0  0  0  0
  -23.4194  -28.8163   23.3037 O   0  0  0  0  0  0
  -28.3569  -26.4836   20.0791 O   0  0  0  0  0  0
  -26.5624  -34.8922   22.4676 O   0  0  0  0  0  0
  -23.5426  -32.1369   23.7326 O   0  0  0  0  0  0
  -29.4453  -25.3180   21.8287 C   0  0  0  0  0  0
  -27.9223  -18.1465   21.2801 C   0  0  0  0  0  0
  -28.6947  -18.1699   18.8944 C   0  0  0  0  0  0
  -29.0324  -22.4717   20.6582 C   0  0  0  0  0  0
  -28.5374  -23.8173   19.9195 C   0  0  0  0  0  0
  -30.2451  -17.2618   20.6922 C   0  0  0  0  0  0
  -28.8477  -21.0285   19.9707 C   0  0  0  0  0  0
  -28.3440  -25.1710   20.7685 C   0  0  1  0  0  0
  -29.1364  -18.3879   20.3579 C   0  0  0  0  0  0
  -29.8411  -15.7963   20.6836 N   0  0  0  0  0  0
  -29.6139  -19.8378   20.5639 N   0  3  0  0  0  0
  -31.4724  -12.5426   19.1528 H   0  0  0  0  0  0
  -30.3650  -11.4388   19.9254 H   0  0  0  0  0  0
  -29.7836  -11.7427   17.4929 H   0  0  0  0  0  0
  -29.6377  -13.4673   17.7241 H   0  0  0  0  0  0
  -27.8750  -11.2858   18.8776 H   0  0  0  0  0  0
  -27.3770  -12.5516   17.7885 H   0  0  0  0  0  0
  -27.6450  -14.2501   19.4841 H   0  0  0  0  0  0
  -28.7131  -12.1246   21.4063 H   0  0  0  0  0  0
  -28.4325  -13.8020   21.8022 H   0  0  0  0  0  0
  -25.2764   -9.5671   22.4734 H   0  0  0  0  0  0
  -23.9974   -7.4644   22.7499 H   0  0  0  0  0  0
  -21.0811   -8.8725   19.8990 H   0  0  0  0  0  0
  -22.3650  -10.9626   19.6148 H   0  0  0  0  0  0
  -21.2008   -7.6136   23.9671 H   0  0  0  0  0  0
  -21.1526   -6.0539   25.9064 H   0  0  0  0  0  0
  -22.0590   -2.7584   23.2846 H   0  0  0  0  0  0
  -22.4067  -11.9893   22.4837 H   0  0  0  0  0  0
  -21.1075  -13.1222   22.2633 H   0  0  0  0  0  0
  -24.6480  -15.8356   20.5094 H   0  0  0  0  0  0
  -26.2400  -15.6117   19.9913 H   0  0  0  0  0  0
  -26.7166  -32.5441   23.1087 H   0  0  0  0  0  0
  -25.0042  -33.9719   25.0408 H   0  0  0  0  0  0
  -22.7149  -31.2977   21.3974 H   0  0  0  0  0  0
  -23.3741  -35.9623   23.3314 H   0  0  0  0  0  0
  -24.3566  -36.8901   22.2056 H   0  0  0  0  0  0
  -23.7227  -37.6492   23.6662 H   0  0  0  0  0  0
  -26.0878  -31.5452   20.5948 H   0  0  0  0  0  0
  -26.8438  -30.8417   21.9957 H   0  0  0  0  0  0
  -28.1295  -28.9940   21.1628 H   0  0  0  0  0  0
  -26.0146  -25.8922   19.0469 H   0  0  0  0  0  0
  -23.9705  -27.2714   19.0486 H   0  0  0  0  0  0
  -23.7620  -30.5790   19.4027 H   0  0  0  0  0  0
  -22.7564  -29.2373   19.8603 H   0  0  0  0  0  0
  -25.1286  -36.1934   25.0825 H   0  0  0  0  0  0
  -20.9973  -28.3262   24.1414 H   0  0  0  0  0  0
  -20.5677  -26.2298   23.3616 H   0  0  0  0  0  0
  -21.6635  -26.7445   22.1209 H   0  0  0  0  0  0
  -19.6899  -25.6302   21.1252 H   0  0  0  0  0  0
  -19.6683  -27.3203   20.6754 H   0  0  0  0  0  0
  -17.4198  -26.6695   21.4032 H   0  0  0  0  0  0
  -18.0317  -26.0072   22.9023 H   0  0  0  0  0  0
  -19.7920  -30.7295   24.2263 H   0  0  0  0  0  0
  -17.4993  -31.6277   24.5160 H   0  0  0  0  0  0
  -15.5341  -30.2984   23.7656 H   0  0  0  0  0  0
  -15.8670  -28.0818   22.7080 H   0  0  0  0  0  0
  -24.5897  -30.7077   25.7768 H   0  0  0  0  0  0
  -24.8915  -32.2886   26.4881 H   0  0  0  0  0  0
  -25.8044  -30.8890   27.0211 H   0  0  0  0  0  0
  -26.2887  -29.6778   24.1189 H   0  0  0  0  0  0
  -27.4047  -29.7273   25.4647 H   0  0  0  0  0  0
  -27.8752  -30.4323   23.9353 H   0  0  0  0  0  0
  -27.2642  -33.3640   26.2061 H   0  0  0  0  0  0
  -28.3850  -32.6900   25.0309 H   0  0  0  0  0  0
  -28.0715  -31.8466   26.5404 H   0  0  0  0  0  0
  -28.2600  -38.0088   24.7506 H   0  0  0  0  0  0
  -28.1053  -36.2615   24.6309 H   0  0  0  0  0  0
  -27.2294  -37.1471   25.8875 H   0  0  0  0  0  0
  -20.9373  -29.8738   21.6877 H   0  0  0  0  0  0
  -26.0164  -38.2851   24.1416 H   0  0  0  0  0  0
  -30.4320  -25.3999   21.3693 H   0  0  0  0  0  0
  -29.4625  -24.4733   22.5167 H   0  0  0  0  0  0
  -29.2844  -26.2114   22.4324 H   0  0  0  0  0  0
  -27.1172  -18.8538   21.0865 H   0  0  0  0  0  0
  -28.1957  -18.2413   22.3315 H   0  0  0  0  0  0
  -27.5007  -17.1500   21.1472 H   0  0  0  0  0  0
  -29.5118  -18.3539   18.1983 H   0  0  0  0  0  0
  -27.8625  -18.8132   18.6111 H   0  0  0  0  0  0
  -28.3658  -17.1435   18.7306 H   0  0  0  0  0  0
  -30.0908  -22.6060   20.8796 H   0  0  0  0  0  0
  -28.5399  -22.4245   21.6304 H   0  0  0  0  0  0
  -27.5889  -23.6105   19.4236 H   0  0  0  0  0  0
  -29.2356  -24.0208   19.1078 H   0  0  0  0  0  0
  -30.6628  -17.4630   21.6789 H   0  0  0  0  0  0
  -31.0780  -17.3850   19.9968 H   0  0  0  0  0  0
  -29.1256  -21.0977   18.9182 H   0  0  0  0  0  0
  -27.7825  -20.8006   19.9781 H   0  0  0  0  0  0
  -27.4034  -25.0743   21.3133 H   0  0  0  0  0  0
  -28.8697  -15.6062   20.8729 H   0  0  0  0  0  0
  -29.6751  -19.9858   21.5582 H   0  0  0  0  0  0
  -30.5583  -19.9061   20.2166 H   0  0  0  0  0  0
  1 25  1  0  0  0
  1 30  2  0  0  0
  1 80  1  0  0  0
  2  3  1  0  0  0
  2 25  1  0  0  0
  2 82  1  0  0  0
  2 83  1  0  0  0
  3  4  1  0  0  0
  3 84  1  0  0  0
  3 85  1  0  0  0
  4  5  1  0  0  0
  4 86  1  0  0  0
  4 87  1  0  0  0
  5  6  1  0  0  0
  5 26  1  0  0  0
  5 88  1  0  0  0
  6 25  1  0  0  0
  6 89  1  0  0  0
  6 90  1  0  0  0
  7  8  2  0  0  0
  7 26  1  0  0  0
  7 29  1  0  0  0
  8  9  1  0  0  0
  8 22  1  0  0  0
  9 10  1  0  0  0
  9 27  2  0  0  0
 10 11  2  0  0  0
 10 15  1  0  0  0
 11 12  1  0  0  0
 11 91  1  0  0  0
 12 13  2  0  0  0
 12 92  1  0  0  0
 13 14  1  0  0  0
 13 31  1  0  0  0
 14 15  2  0  0  0
 14 93  1  0  0  0
 15 94  1  0  0  0
 16 17  2  0  0  0
 16 21  1  0  0  0
 16 31  1  0  0  0
 17 18  1  0  0  0
 17 95  1  0  0  0
 18 19  2  0  0  0
 18 96  1  0  0  0
 19 20  1  0  0  0
 19 24  1  0  0  0
 20 21  2  0  0  0
 20 97  1  0  0  0
 21 23  1  0  0  0
 22 28  1  0  0  0
 22 32  2  0  0  0
 26 27  1  0  0  0
 28 98  1  0  0  0
 28 99  1  0  0  0
 29100  1  0  0  0
 29101  1  0  0  0
 33 34  1  0  0  0
 33 66  1  0  0  0
 33 70  2  0  0  0
 34 36  1  0  0  0
 34 59  1  0  0  0
 34102  1  0  0  0
 35 44  2  0  0  0
 35 45  1  0  0  0
 35 68  1  0  0  0
 36 56  1  0  0  0
 36103  1  0  0  0
 37 39  1  0  0  0
 37 47  1  0  0  0
 37 66  1  0  0  0
 37104  1  0  0  0
 38 43  2  0  0  0
 38 46  1  0  0  0
 38 47  1  0  0  0
 39 64  1  0  0  0
 39 67  2  0  0  0
 40 52  1  0  0  0
 40 53  2  0  0  0
 40 58  1  0  0  0
 41105  1  0  0  0
 41106  1  0  0  0
 41107  1  0  0  0
 41 48  1  0  0  0
 42 43  1  0  0  0
 42 66  1  0  0  0
 42108  1  0  0  0
 42109  1  0  0  0
 43 44  1  0  0  0
 44110  1  0  0  0
 45 46  2  0  0  0
 45111  1  0  0  0
 46112  1  0  0  0
 47113  1  0  0  0
 47114  1  0  0  0
 48 56  1  0  0  0
 48 65  1  0  0  0
 48115  1  0  0  0
 49 50  1  0  0  0
 49 53  1  0  0  0
 49 64  1  0  0  0
 49116  1  0  0  0
 50 51  1  0  0  0
 50117  1  0  0  0
 50118  1  0  0  0
 51 52  1  0  0  0
 51119  1  0  0  0
 51120  1  0  0  0
 52121  1  0  0  0
 52122  1  0  0  0
 53 54  1  0  0  0
 54 55  2  0  0  0
 54123  1  0  0  0
 55 57  1  0  0  0
 55124  1  0  0  0
 56 69  2  0  0  0
 57 58  2  0  0  0
 57125  1  0  0  0
 58126  1  0  0  0
 59 60  1  0  0  0
 59 61  1  0  0  0
 59 62  1  0  0  0
 60127  1  0  0  0
 60128  1  0  0  0
 60129  1  0  0  0
 61130  1  0  0  0
 61131  1  0  0  0
 61132  1  0  0  0
 62133  1  0  0  0
 62134  1  0  0  0
 62135  1  0  0  0
 63 65  1  0  0  0
 63136  1  0  0  0
 63137  1  0  0  0
 63138  1  0  0  0
 64139  1  0  0  0
 65140  1  0  0  0
 68 78  1  0  0  0
 71141  1  0  0  0
 71142  1  0  0  0
 71143  1  0  0  0
 71 78  1  0  0  0
 72144  1  0  0  0
 72145  1  0  0  0
 72146  1  0  0  0
 72 79  1  0  0  0
 73 79  1  0  0  0
 73147  1  0  0  0
 73148  1  0  0  0
 73149  1  0  0  0
 74 75  1  0  0  0
 74 77  1  0  0  0
 74150  1  0  0  0
 74151  1  0  0  0
 75 78  1  0  0  0
 75152  1  0  0  0
 75153  1  0  0  0
 76 79  1  0  0  0
 76 80  1  0  0  0
 76154  1  0  0  0
 76155  1  0  0  0
 77 81  1  0  0  0
 77156  1  0  0  0
 77157  1  0  0  0
 78158  1  0  0  0
 79 81  1  0  0  0
 80159  1  0  0  0
 81160  1  0  0  0
 81161  1  0  0  0
M  CHG  1  81   1
M  ISO  4   1 100  68 101  78 101  80 100
M  END
> <chiral flag>
0

> <version>
0

> <s_m_source_file>
/data/baiqing/PycharmProjects/Reinvent-master-3.2/result/LINK_invent/BTK/process_docking_weight1_custom_sum_contain_oxygen_bond_distance_aromatic_linkinvent_7_9_3/rearranged_h_0105.sdf

> <i_m_source_file_index>
59

> <r_mmod_Potential_Energy-OPLS-2005>
-130.396545410156

> <r_mmod_Stretch_Energy-OPLS-2005>
99.4283752441406

> <r_mmod_Bend_Energy-OPLS-2005>
149.266067504883

> <r_mmod_Torsional_Energy-OPLS-2005>
252.436447143555

> <r_mmod_Improper_Torsional_Energy-OPLS-2005>
5.02588558197021

> <r_mmod_Van_der_Waal_Energy-OPLS-2005>
112.525520324707

> <r_mmod_Electrostatic_Energy-OPLS-2005>
-336.004089355469

> <r_mmod_Solvation_Energy-OPLS-2005>
-470.692047119141

> <b_mmod_Minimization_Converged-OPLS-2005>
0

> <r_mmod_RMS_Derivative-OPLS-2005>
1.9517662525177

$$$$
59
                    3D
 Structure written by MMmdl.
143150  0  0  1  0            999 V2000
  -30.1599  -16.0065   20.3092 C   0  0  0  0  0  0
  -30.3935  -13.3731   19.5187 C   0  0  0  0  0  0
  -29.5598  -12.7500   18.3505 C   0  0  0  0  0  0
  -28.1676  -12.3099   18.8210 C   0  0  0  0  0  0
  -27.5835  -13.3433   19.8034 C   0  0  2  0  0  0
  -28.5790  -13.8376   20.8884 C   0  0  0  0  0  0
  -25.2276  -13.8328   20.5855 C   0  0  0  0  0  0
  -24.1698  -13.0433   20.9315 C   0  0  0  0  0  0
  -24.6450  -11.6959   20.8763 C   0  0  0  0  0  0
  -23.9156  -10.4293   21.0382 C   0  0  0  0  0  0
  -24.3676   -9.4205   21.9172 C   0  0  0  0  0  0
  -23.6325   -8.2252   22.0752 C   0  0  0  0  0  0
  -22.4304   -8.0294   21.3544 C   0  0  0  0  0  0
  -21.9959   -9.0272   20.4641 C   0  0  0  0  0  0
  -22.7315  -10.2137   20.3040 C   0  0  0  0  0  0
  -21.6864   -6.0746   22.5278 C   0  0  0  0  0  0
  -21.4023   -6.5646   23.8213 C   0  0  0  0  0  0
  -21.3661   -5.6796   24.9173 C   0  0  0  0  0  0
  -21.6043   -4.3059   24.7223 C   0  0  0  0  0  0
  -21.8818   -3.8152   23.4343 C   0  0  0  0  0  0
  -21.9196   -4.6971   22.3400 C   0  0  0  0  0  0
  -22.7700  -13.5135   21.1936 C   0  0  0  0  0  0
  -22.1661   -4.2155   21.0978 F   0  0  0  0  0  0
  -21.5626   -3.4540   25.7734 F   0  0  0  0  0  0
  -29.6765  -14.5824   20.1908 N   0  0  0  0  0  0
  -26.2769  -12.9729   20.3291 N   0  0  0  0  0  0
  -25.9413  -11.6759   20.5683 N   0  0  0  0  0  0
  -22.0375  -12.8102   22.0487 N   0  0  0  0  0  0
  -25.3813  -15.2077   20.4302 N   0  0  0  0  0  0
  -31.4074  -15.8745   20.2870 O   0  0  0  0  0  0
  -21.6655   -6.8897   21.4243 O   0  0  0  0  0  0
  -22.3364  -14.5430   20.6772 O   0  0  0  0  0  0
  -24.7088  -31.7706   23.1300 C   0  0  0  0  0  0
  -25.9546  -32.4324   23.7941 C   0  0  1  0  0  0
  -27.2351  -26.4397   20.2498 C   0  0  0  0  0  0
  -25.6017  -33.8161   24.1804 N   0  0  0  0  0  0
  -23.5464  -30.3611   21.4912 C   0  0  2  0  0  0
  -25.0042  -28.6432   20.1351 C   0  0  0  0  0  0
  -22.7877  -29.4165   22.4652 C   0  0  0  0  0  0
  -18.0356  -28.1437   22.8444 C   0  0  0  0  0  0
  -24.1495  -36.7090   23.2660 C   0  0  0  0  0  0
  -26.1378  -30.4180   21.4325 C   0  0  0  0  0  0
  -26.2003  -28.9512   20.7933 C   0  0  0  0  0  0
  -27.2910  -27.8892   20.8034 C   0  0  0  0  0  0
  -25.9989  -26.4062   19.5352 C   0  0  0  0  0  0
  -24.9576  -27.3983   19.4806 C   0  0  0  0  0  0
  -23.8150  -29.6324   20.1399 C   0  0  0  0  0  0
  -25.4155  -36.2810   24.0263 C   0  0  1  0  0  0
  -20.6002  -28.3808   23.1097 C   0  0  2  0  0  0
  -20.6809  -26.9445   22.5407 C   0  0  0  0  0  0
  -19.5788  -26.6365   21.5221 C   0  0  0  0  0  0
  -18.1971  -26.7960   22.1618 C   0  0  0  0  0  0
  -19.1628  -28.8953   23.2743 C   0  0  0  0  0  0
  -18.9529  -30.1529   23.8801 C   0  0  0  0  0  0
  -17.6516  -30.6613   24.0547 C   0  0  0  0  0  0
  -25.9151  -34.9209   23.4888 C   0  0  0  0  0  0
  -16.5404  -29.9089   23.6358 C   0  0  0  0  0  0
  -16.7334  -28.6513   23.0374 C   0  0  0  0  0  0
  -26.4637  -31.6464   25.0670 C   0  0  0  0  0  0
  -25.3632  -31.3855   26.1237 C   0  0  0  0  0  0
  -27.0608  -30.2776   24.6751 C   0  0  0  0  0  0
  -27.6035  -32.4384   25.7504 C   0  0  0  0  0  0
  -27.5552  -37.1703   24.8469 C   0  0  0  0  0  0
  -21.4502  -29.3008   22.3393 N   0  0  0  0  0  0
  -26.4259  -37.3599   23.9406 N   0  0  0  0  0  0
  -24.8245  -30.8895   22.0697 N   0  0  0  0  0  0
  -23.4199  -28.7806   23.3115 O   0  0  0  0  0  0
  -28.1914  -25.1207   20.2210 O   0  0  0  0  0  0
  -26.5825  -34.8839   22.4530 O   0  0  0  0  0  0
  -23.6051  -32.0900   23.6090 O   0  0  0  0  0  0
  -28.4216  -23.2845   22.0223 C   0  0  0  0  0  0
  -28.7925  -21.2930   20.0002 C   0  0  0  0  0  0
  -29.3429  -19.3540   20.6135 C   0  0  0  0  0  0
  -28.1751  -23.2455   20.5121 C   0  0  2  0  0  0
  -29.4056  -17.4715   20.2727 N   0  0  0  0  0  0
  -31.3452  -13.7045   19.1023 H   0  0  0  0  0  0
  -30.6649  -12.6111   20.2517 H   0  0  0  0  0  0
  -30.0922  -11.9093   17.9040 H   0  0  0  0  0  0
  -29.4499  -13.4960   17.5621 H   0  0  0  0  0  0
  -28.2674  -11.3482   19.3260 H   0  0  0  0  0  0
  -27.5011  -12.1497   17.9724 H   0  0  0  0  0  0
  -27.3919  -14.2096   19.1681 H   0  0  0  0  0  0
  -28.9347  -13.0228   21.5213 H   0  0  0  0  0  0
  -28.0766  -14.5368   21.5582 H   0  0  0  0  0  0
  -25.2812   -9.5676   22.4762 H   0  0  0  0  0  0
  -24.0019   -7.4647   22.7484 H   0  0  0  0  0  0
  -21.0886   -8.8807   19.8949 H   0  0  0  0  0  0
  -22.3774  -10.9680   19.6153 H   0  0  0  0  0  0
  -21.2021   -7.6154   23.9718 H   0  0  0  0  0  0
  -21.1482   -6.0525   25.9076 H   0  0  0  0  0  0
  -22.0594   -2.7614   23.2843 H   0  0  0  0  0  0
  -22.4032  -11.9782   22.4878 H   0  0  0  0  0  0
  -21.0976  -13.1082   22.2684 H   0  0  0  0  0  0
  -24.6087  -15.8546   20.5472 H   0  0  0  0  0  0
  -26.2272  -15.6549   20.1031 H   0  0  0  0  0  0
  -26.7655  -32.4735   23.0669 H   0  0  0  0  0  0
  -25.0040  -33.9150   24.9877 H   0  0  0  0  0  0
  -22.8868  -31.2048   21.2777 H   0  0  0  0  0  0
  -23.3778  -35.9396   23.3257 H   0  0  0  0  0  0
  -24.3553  -36.8832   22.2088 H   0  0  0  0  0  0
  -23.7238  -37.6235   23.6799 H   0  0  0  0  0  0
  -26.3643  -31.1220   20.6307 H   0  0  0  0  0  0
  -26.9807  -30.4993   22.1059 H   0  0  0  0  0  0
  -28.1959  -28.1515   21.3333 H   0  0  0  0  0  0
  -25.7912  -25.4857   19.0078 H   0  0  0  0  0  0
  -24.0634  -27.1476   18.9263 H   0  0  0  0  0  0
  -24.0156  -30.3794   19.3710 H   0  0  0  0  0  0
  -22.9138  -29.1139   19.8081 H   0  0  0  0  0  0
  -25.1378  -36.1535   25.0752 H   0  0  0  0  0  0
  -21.0077  -28.3451   24.1226 H   0  0  0  0  0  0
  -20.5652  -26.2441   23.3691 H   0  0  0  0  0  0
  -21.6668  -26.7350   22.1239 H   0  0  0  0  0  0
  -19.6939  -25.6249   21.1314 H   0  0  0  0  0  0
  -19.6736  -27.3123   20.6710 H   0  0  0  0  0  0
  -17.4241  -26.6707   21.4018 H   0  0  0  0  0  0
  -18.0348  -26.0126   22.9035 H   0  0  0  0  0  0
  -19.8004  -30.7370   24.2129 H   0  0  0  0  0  0
  -17.5065  -31.6283   24.5168 H   0  0  0  0  0  0
  -15.5400  -30.2961   23.7737 H   0  0  0  0  0  0
  -15.8735  -28.0798   22.7145 H   0  0  0  0  0  0
  -24.5860  -30.7164   25.7527 H   0  0  0  0  0  0
  -24.8779  -32.3100   26.4375 H   0  0  0  0  0  0
  -25.7750  -30.9204   27.0202 H   0  0  0  0  0  0
  -26.3374  -29.6311   24.1777 H   0  0  0  0  0  0
  -27.3970  -29.7326   25.5582 H   0  0  0  0  0  0
  -27.9376  -30.3845   24.0364 H   0  0  0  0  0  0
  -27.2545  -33.3786   26.1785 H   0  0  0  0  0  0
  -28.3997  -32.6783   25.0445 H   0  0  0  0  0  0
  -28.0537  -31.8717   26.5665 H   0  0  0  0  0  0
  -28.2531  -38.0031   24.7505 H   0  0  0  0  0  0
  -28.1084  -36.2550   24.6312 H   0  0  0  0  0  0
  -27.2265  -37.1355   25.8870 H   0  0  0  0  0  0
  -20.9868  -29.8624   21.6385 H   0  0  0  0  0  0
  -26.0063  -38.2635   24.1418 H   0  0  0  0  0  0
  -28.1887  -22.3246   22.4837 H   0  0  0  0  0  0
  -27.8031  -24.0409   22.5061 H   0  0  0  0  0  0
  -29.4646  -23.5151   22.2391 H   0  0  0  0  0  0
  -28.0253  -21.0494   19.2652 H   0  0  0  0  0  0
  -29.6493  -21.5319   19.3702 H   0  0  0  0  0  0
  -28.7841  -19.3052   21.5485 H   0  0  0  0  0  0
  -30.3661  -19.5183   20.9524 H   0  0  0  0  0  0
  -27.0994  -23.1024   20.4048 H   0  0  0  0  0  0
  -28.4475  -17.2145   20.0756 H   0  0  0  0  0  0
  1 25  1  0  0  0
  1 30  2  0  0  0
  1 75  1  0  0  0
  2  3  1  0  0  0
  2 25  1  0  0  0
  2 76  1  0  0  0
  2 77  1  0  0  0
  3  4  1  0  0  0
  3 78  1  0  0  0
  3 79  1  0  0  0
  4  5  1  0  0  0
  4 80  1  0  0  0
  4 81  1  0  0  0
  5  6  1  0  0  0
  5 26  1  0  0  0
  5 82  1  0  0  0
  6 25  1  0  0  0
  6 83  1  0  0  0
  6 84  1  0  0  0
  7  8  2  0  0  0
  7 26  1  0  0  0
  7 29  1  0  0  0
  8  9  1  0  0  0
  8 22  1  0  0  0
  9 10  1  0  0  0
  9 27  2  0  0  0
 10 11  2  0  0  0
 10 15  1  0  0  0
 11 12  1  0  0  0
 11 85  1  0  0  0
 12 13  2  0  0  0
 12 86  1  0  0  0
 13 14  1  0  0  0
 13 31  1  0  0  0
 14 15  2  0  0  0
 14 87  1  0  0  0
 15 88  1  0  0  0
 16 17  2  0  0  0
 16 21  1  0  0  0
 16 31  1  0  0  0
 17 18  1  0  0  0
 17 89  1  0  0  0
 18 19  2  0  0  0
 18 90  1  0  0  0
 19 20  1  0  0  0
 19 24  1  0  0  0
 20 21  2  0  0  0
 20 91  1  0  0  0
 21 23  1  0  0  0
 22 28  1  0  0  0
 22 32  2  0  0  0
 26 27  1  0  0  0
 28 92  1  0  0  0
 28 93  1  0  0  0
 29 94  1  0  0  0
 29 95  1  0  0  0
 33 34  1  0  0  0
 33 66  1  0  0  0
 33 70  2  0  0  0
 34 36  1  0  0  0
 34 59  1  0  0  0
 34 96  1  0  0  0
 35 44  2  0  0  0
 35 45  1  0  0  0
 35 68  1  0  0  0
 36 56  1  0  0  0
 36 97  1  0  0  0
 37 39  1  0  0  0
 37 47  1  0  0  0
 37 66  1  0  0  0
 37 98  1  0  0  0
 38 43  2  0  0  0
 38 46  1  0  0  0
 38 47  1  0  0  0
 39 64  1  0  0  0
 39 67  2  0  0  0
 40 52  1  0  0  0
 40 53  2  0  0  0
 40 58  1  0  0  0
 41 99  1  0  0  0
 41100  1  0  0  0
 41101  1  0  0  0
 41 48  1  0  0  0
 42 43  1  0  0  0
 42 66  1  0  0  0
 42102  1  0  0  0
 42103  1  0  0  0
 43 44  1  0  0  0
 44104  1  0  0  0
 45 46  2  0  0  0
 45105  1  0  0  0
 46106  1  0  0  0
 47107  1  0  0  0
 47108  1  0  0  0
 48 56  1  0  0  0
 48 65  1  0  0  0
 48109  1  0  0  0
 49 50  1  0  0  0
 49 53  1  0  0  0
 49 64  1  0  0  0
 49110  1  0  0  0
 50 51  1  0  0  0
 50111  1  0  0  0
 50112  1  0  0  0
 51 52  1  0  0  0
 51113  1  0  0  0
 51114  1  0  0  0
 52115  1  0  0  0
 52116  1  0  0  0
 53 54  1  0  0  0
 54 55  2  0  0  0
 54117  1  0  0  0
 55 57  1  0  0  0
 55118  1  0  0  0
 56 69  2  0  0  0
 57 58  2  0  0  0
 57119  1  0  0  0
 58120  1  0  0  0
 59 60  1  0  0  0
 59 61  1  0  0  0
 59 62  1  0  0  0
 60121  1  0  0  0
 60122  1  0  0  0
 60123  1  0  0  0
 61124  1  0  0  0
 61125  1  0  0  0
 61126  1  0  0  0
 62127  1  0  0  0
 62128  1  0  0  0
 62129  1  0  0  0
 63 65  1  0  0  0
 63130  1  0  0  0
 63131  1  0  0  0
 63132  1  0  0  0
 64133  1  0  0  0
 65134  1  0  0  0
 68 74  1  0  0  0
 71135  1  0  0  0
 71136  1  0  0  0
 71137  1  0  0  0
 71 74  1  0  0  0
 72 73  1  0  0  0
 72 74  1  0  0  0
 72138  1  0  0  0
 72139  1  0  0  0
 73 75  1  0  0  0
 73140  1  0  0  0
 73141  1  0  0  0
 74142  1  0  0  0
 75143  1  0  0  0
M  ISO  4   1 100  68 101  74 101  75 100
M  END
> <chiral flag>
0

> <version>
0

> <s_m_source_file>
/data/baiqing/PycharmProjects/Reinvent-master-3.2/result/LINK_invent/BTK/process_docking_weight1_custom_sum_contain_oxygen_bond_distance_aromatic_linkinvent_7_9_3/rearranged_h_0105.sdf

> <i_m_source_file_index>
60

> <r_mmod_Potential_Energy-OPLS-2005>
4163.64404296875

> <r_mmod_Stretch_Energy-OPLS-2005>
1928.9091796875

> <r_mmod_Bend_Energy-OPLS-2005>
898.639953613281

> <r_mmod_Torsional_Energy-OPLS-2005>
250.23063659668

> <r_mmod_Improper_Torsional_Energy-OPLS-2005>
5.06112670898438

> <r_mmod_Van_der_Waal_Energy-OPLS-2005>
111.411064147949

> <r_mmod_Electrostatic_Energy-OPLS-2005>
-349.921966552734

> <r_mmod_Solvation_Energy-OPLS-2005>
-219.875640869141

> <b_mmod_Minimization_Converged-OPLS-2005>
0

> <r_mmod_RMS_Derivative-OPLS-2005>
0.312528491020203

$$$$
60
                    3D
 Structure written by MMmdl.
166174  0  0  1  0            999 V2000
  -30.5947  -14.7251   20.4643 C   0  0  0  0  0  0
  -30.4410  -12.4429   19.4536 C   0  0  0  0  0  0
  -29.5088  -12.4941   18.2231 C   0  0  0  0  0  0
  -28.0317  -12.3312   18.6385 C   0  0  0  0  0  0
  -27.6430  -13.2255   19.8457 C   0  0  2  0  0  0
  -28.6911  -13.1348   20.9745 C   0  0  0  0  0  0
  -25.2525  -13.8187   20.5674 C   0  0  0  0  0  0
  -24.1812  -13.0429   20.9214 C   0  0  0  0  0  0
  -24.6398  -11.6910   20.8757 C   0  0  0  0  0  0
  -23.9074  -10.4282   21.0403 C   0  0  0  0  0  0
  -24.3627   -9.4197   21.9176 C   0  0  0  0  0  0
  -23.6298   -8.2236   22.0750 C   0  0  0  0  0  0
  -22.4280   -8.0275   21.3539 C   0  0  0  0  0  0
  -21.9917   -9.0250   20.4642 C   0  0  0  0  0  0
  -22.7249  -10.2125   20.3050 C   0  0  0  0  0  0
  -21.6852   -6.0732   22.5274 C   0  0  0  0  0  0
  -21.4006   -6.5630   23.8207 C   0  0  0  0  0  0
  -21.3665   -5.6784   24.9172 C   0  0  0  0  0  0
  -21.6048   -4.3047   24.7215 C   0  0  0  0  0  0
  -21.8822   -3.8142   23.4337 C   0  0  0  0  0  0
  -21.9190   -4.6962   22.3396 C   0  0  0  0  0  0
  -22.7832  -13.5214   21.1858 C   0  0  0  0  0  0
  -22.1660   -4.2145   21.0976 F   0  0  0  0  0  0
  -21.5639   -3.4537   25.7729 F   0  0  0  0  0  0
  -29.9881  -13.4941   20.3879 N   0  0  0  0  0  0
  -26.2937  -12.9376   20.3256 N   0  0  0  0  0  0
  -25.9328  -11.6524   20.5755 N   0  0  0  0  0  0
  -22.0480  -12.8215   22.0426 N   0  0  0  0  0  0
  -25.4213  -15.1910   20.4068 N   0  0  0  0  0  0
  -31.7926  -14.8518   20.2004 O   0  0  0  0  0  0
  -21.6641   -6.8881   21.4233 O   0  0  0  0  0  0
  -22.3518  -14.5513   20.6694 O   0  0  0  0  0  0
  -24.6288  -31.8547   23.1982 C   0  0  0  0  0  0
  -25.9113  -32.4755   23.8323 C   0  0  1  0  0  0
  -27.2292  -27.2729   20.1348 C   0  0  0  0  0  0
  -25.5901  -33.8564   24.2235 N   0  0  0  0  0  0
  -23.4231  -30.4732   21.5469 C   0  0  2  0  0  0
  -24.8678  -28.9052   20.1284 C   0  0  0  0  0  0
  -22.7477  -29.4592   22.4997 C   0  0  0  0  0  0
  -18.0280  -28.1381   22.8492 C   0  0  0  0  0  0
  -24.1481  -36.7280   23.2647 C   0  0  0  0  0  0
  -25.9661  -30.7695   21.3721 C   0  0  0  0  0  0
  -26.0402  -29.3880   20.7239 C   0  0  0  0  0  0
  -27.2249  -28.5878   20.7072 C   0  0  0  0  0  0
  -26.0316  -26.8357   19.5336 C   0  0  0  0  0  0
  -24.8670  -27.6342   19.5258 C   0  0  0  0  0  0
  -23.6387  -29.7955   20.1682 C   0  0  0  0  0  0
  -25.4107  -36.3073   24.0330 C   0  0  1  0  0  0
  -20.5879  -28.3677   23.1301 C   0  0  2  0  0  0
  -20.6770  -26.9403   22.5425 C   0  0  0  0  0  0
  -19.5744  -26.6380   21.5228 C   0  0  0  0  0  0
  -18.1922  -26.7923   22.1633 C   0  0  0  0  0  0
  -19.1532  -28.8852   23.2879 C   0  0  0  0  0  0
  -18.9454  -30.1463   23.8878 C   0  0  0  0  0  0
  -17.6456  -30.6584   24.0570 C   0  0  0  0  0  0
  -25.9050  -34.9443   23.5090 C   0  0  0  0  0  0
  -16.5346  -29.9077   23.6347 C   0  0  0  0  0  0
  -16.7269  -28.6502   23.0353 C   0  0  0  0  0  0
  -26.4472  -31.6586   25.0715 C   0  0  0  0  0  0
  -25.3701  -31.3739   26.1446 C   0  0  0  0  0  0
  -27.0327  -30.3010   24.6195 C   0  0  0  0  0  0
  -27.6021  -32.4339   25.7485 C   0  0  0  0  0  0
  -27.5570  -37.1788   24.8468 C   0  0  0  0  0  0
  -21.4192  -29.3016   22.3712 N   0  0  0  0  0  0
  -26.4282  -37.3773   23.9417 N   0  0  0  0  0  0
  -24.6925  -31.0506   22.0958 N   0  0  0  0  0  0
  -23.4185  -28.8157   23.3112 O   0  0  0  0  0  0
  -28.3779  -26.4674   20.0261 O   0  0  0  0  0  0
  -26.5644  -34.8926   22.4676 O   0  0  0  0  0  0
  -23.5449  -32.1375   23.7289 O   0  0  0  0  0  0
  -28.8304  -21.1208   19.9263 C   0  0  0  0  0  0
  -29.3825  -20.0448   20.6253 C   0  0  0  0  0  0
  -29.8782  -20.6788   21.8186 C   0  0  0  0  0  0
  -29.4710  -22.0122   21.8496 C   0  0  0  0  0  0
  -32.1587  -20.4810   22.9288 C   0  0  0  0  0  0
  -30.6959  -24.0183   22.9898 C   0  0  0  0  0  0
  -29.3988  -18.5044   20.1531 C   0  0  0  0  0  0
  -30.6938  -20.0168   22.9225 C   0  0  0  0  0  0
  -28.2733  -23.6792   20.0676 C   0  0  0  0  0  0
  -30.0798  -17.2846   20.9798 C   0  0  0  0  0  0
  -28.5521  -25.1428   20.7028 C   0  0  0  0  0  0
  -29.6116  -22.9239   23.0591 C   0  0  1  0  0  0
  -28.8723  -22.3590   20.6205 N   0  0  0  0  0  0
  -29.7754  -15.8243   20.6472 N   0  0  0  0  0  0
  -28.3081  -23.3661   23.5796 N   0  3  0  0  0  0
  -31.4789  -12.5834   19.1459 H   0  0  0  0  0  0
  -30.4007  -11.4639   19.9340 H   0  0  0  0  0  0
  -29.7828  -11.7142   17.5114 H   0  0  0  0  0  0
  -29.6436  -13.4456   17.7069 H   0  0  0  0  0  0
  -27.8786  -11.2826   18.8956 H   0  0  0  0  0  0
  -27.3756  -12.5334   17.7907 H   0  0  0  0  0  0
  -27.6430  -14.2497   19.4731 H   0  0  0  0  0  0
  -28.7281  -12.1257   21.3871 H   0  0  0  0  0  0
  -28.4330  -13.7958   21.8035 H   0  0  0  0  0  0
  -25.2768   -9.5666   22.4756 H   0  0  0  0  0  0
  -23.9995   -7.4628   22.7479 H   0  0  0  0  0  0
  -21.0846   -8.8773   19.8963 H   0  0  0  0  0  0
  -22.3704  -10.9664   19.6165 H   0  0  0  0  0  0
  -21.1990   -7.6136   23.9705 H   0  0  0  0  0  0
  -21.1492   -6.0517   25.9076 H   0  0  0  0  0  0
  -22.0600   -2.7604   23.2837 H   0  0  0  0  0  0
  -22.4092  -11.9873   22.4807 H   0  0  0  0  0  0
  -21.1096  -13.1239   22.2627 H   0  0  0  0  0  0
  -24.6499  -15.8422   20.5075 H   0  0  0  0  0  0
  -26.2550  -15.6258   20.0320 H   0  0  0  0  0  0
  -26.7180  -32.5392   23.1069 H   0  0  0  0  0  0
  -25.0025  -33.9709   25.0364 H   0  0  0  0  0  0
  -22.7195  -31.2954   21.3998 H   0  0  0  0  0  0
  -23.3747  -35.9609   23.3313 H   0  0  0  0  0  0
  -24.3574  -36.8899   22.2063 H   0  0  0  0  0  0
  -23.7227  -37.6477   23.6671 H   0  0  0  0  0  0
  -26.0970  -31.5251   20.5972 H   0  0  0  0  0  0
  -26.8465  -30.8234   22.0002 H   0  0  0  0  0  0
  -28.1344  -28.9742   21.1459 H   0  0  0  0  0  0
  -26.0001  -25.8688   19.0526 H   0  0  0  0  0  0
  -23.9679  -27.2574   19.0582 H   0  0  0  0  0  0
  -23.7632  -30.5673   19.4082 H   0  0  0  0  0  0
  -22.7542  -29.2305   19.8679 H   0  0  0  0  0  0
  -25.1289  -36.1922   25.0822 H   0  0  0  0  0  0
  -20.9940  -28.3241   24.1434 H   0  0  0  0  0  0
  -20.5687  -26.2282   23.3619 H   0  0  0  0  0  0
  -21.6635  -26.7447   22.1203 H   0  0  0  0  0  0
  -19.6914  -25.6294   21.1246 H   0  0  0  0  0  0
  -19.6683  -27.3206   20.6773 H   0  0  0  0  0  0
  -17.4197  -26.6683   21.4031 H   0  0  0  0  0  0
  -18.0309  -26.0063   22.9028 H   0  0  0  0  0  0
  -19.7936  -30.7294   24.2213 H   0  0  0  0  0  0
  -17.5013  -31.6266   24.5170 H   0  0  0  0  0  0
  -15.5345  -30.2975   23.7683 H   0  0  0  0  0  0
  -15.8669  -28.0827   22.7055 H   0  0  0  0  0  0
  -24.5868  -30.7091   25.7788 H   0  0  0  0  0  0
  -24.8906  -32.2919   26.4861 H   0  0  0  0  0  0
  -25.8028  -30.8932   27.0233 H   0  0  0  0  0  0
  -26.2921  -29.6763   24.1195 H   0  0  0  0  0  0
  -27.3994  -29.7264   25.4710 H   0  0  0  0  0  0
  -27.8795  -30.4292   23.9451 H   0  0  0  0  0  0
  -27.2604  -33.3646   26.2032 H   0  0  0  0  0  0
  -28.3834  -32.6891   25.0311 H   0  0  0  0  0  0
  -28.0684  -31.8489   26.5423 H   0  0  0  0  0  0
  -28.2581  -38.0089   24.7516 H   0  0  0  0  0  0
  -28.1064  -36.2619   24.6281 H   0  0  0  0  0  0
  -27.2296  -37.1424   25.8872 H   0  0  0  0  0  0
  -20.9400  -29.8705   21.6877 H   0  0  0  0  0  0
  -26.0156  -38.2847   24.1424 H   0  0  0  0  0  0
  -28.3585  -21.1032   18.9518 H   0  0  0  0  0  0
  -32.6742  -20.1755   22.0176 H   0  0  0  0  0  0
  -32.6983  -20.0460   23.7711 H   0  0  0  0  0  0
  -32.2458  -21.5634   23.0095 H   0  0  0  0  0  0
  -31.2319  -24.0765   23.9376 H   0  0  0  0  0  0
  -30.3118  -25.0197   22.8110 H   0  0  0  0  0  0
  -31.4420  -23.7798   22.2318 H   0  0  0  0  0  0
  -29.8322  -18.5004   19.1523 H   0  0  0  0  0  0
  -28.3497  -18.2509   20.0025 H   0  0  0  0  0  0
  -30.7006  -18.9403   22.8381 H   0  0  0  0  0  0
  -30.2286  -20.1975   23.8912 H   0  0  0  0  0  0
  -28.5872  -23.7304   19.0250 H   0  0  0  0  0  0
  -27.1939  -23.5357   20.0184 H   0  0  0  0  0  0
  -29.7071  -17.3494   21.9997 H   0  0  0  0  0  0
  -31.1586  -17.4332   21.0355 H   0  0  0  0  0  0
  -28.1037  -25.2167   21.6911 H   0  0  0  0  0  0
  -29.6293  -25.1469   20.8450 H   0  0  0  0  0  0
  -29.9580  -22.3026   23.8794 H   0  0  0  0  0  0
  -28.8000  -15.5791   20.7286 H   0  0  0  0  0  0
  -27.8406  -24.0054   22.9673 H   0  0  0  0  0  0
  -28.4119  -23.7971   24.4811 H   0  0  0  0  0  0
  -27.7214  -22.5579   23.6934 H   0  0  0  0  0  0
  1 25  1  0  0  0
  1 30  2  0  0  0
  1 84  1  0  0  0
  2  3  1  0  0  0
  2 25  1  0  0  0
  2 86  1  0  0  0
  2 87  1  0  0  0
  3  4  1  0  0  0
  3 88  1  0  0  0
  3 89  1  0  0  0
  4  5  1  0  0  0
  4 90  1  0  0  0
  4 91  1  0  0  0
  5  6  1  0  0  0
  5 26  1  0  0  0
  5 92  1  0  0  0
  6 25  1  0  0  0
  6 93  1  0  0  0
  6 94  1  0  0  0
  7  8  2  0  0  0
  7 26  1  0  0  0
  7 29  1  0  0  0
  8  9  1  0  0  0
  8 22  1  0  0  0
  9 10  1  0  0  0
  9 27  2  0  0  0
 10 11  2  0  0  0
 10 15  1  0  0  0
 11 12  1  0  0  0
 11 95  1  0  0  0
 12 13  2  0  0  0
 12 96  1  0  0  0
 13 14  1  0  0  0
 13 31  1  0  0  0
 14 15  2  0  0  0
 14 97  1  0  0  0
 15 98  1  0  0  0
 16 17  2  0  0  0
 16 21  1  0  0  0
 16 31  1  0  0  0
 17 18  1  0  0  0
 17 99  1  0  0  0
 18 19  2  0  0  0
 18100  1  0  0  0
 19 20  1  0  0  0
 19 24  1  0  0  0
 20 21  2  0  0  0
 20101  1  0  0  0
 21 23  1  0  0  0
 22 28  1  0  0  0
 22 32  2  0  0  0
 26 27  1  0  0  0
 28102  1  0  0  0
 28103  1  0  0  0
 29104  1  0  0  0
 29105  1  0  0  0
 33 34  1  0  0  0
 33 66  1  0  0  0
 33 70  2  0  0  0
 34 36  1  0  0  0
 34 59  1  0  0  0
 34106  1  0  0  0
 35 44  2  0  0  0
 35 45  1  0  0  0
 35 68  1  0  0  0
 36 56  1  0  0  0
 36107  1  0  0  0
 37 39  1  0  0  0
 37 47  1  0  0  0
 37 66  1  0  0  0
 37108  1  0  0  0
 38 43  2  0  0  0
 38 46  1  0  0  0
 38 47  1  0  0  0
 39 64  1  0  0  0
 39 67  2  0  0  0
 40 52  1  0  0  0
 40 53  2  0  0  0
 40 58  1  0  0  0
 41109  1  0  0  0
 41110  1  0  0  0
 41111  1  0  0  0
 41 48  1  0  0  0
 42 43  1  0  0  0
 42 66  1  0  0  0
 42112  1  0  0  0
 42113  1  0  0  0
 43 44  1  0  0  0
 44114  1  0  0  0
 45 46  2  0  0  0
 45115  1  0  0  0
 46116  1  0  0  0
 47117  1  0  0  0
 47118  1  0  0  0
 48 56  1  0  0  0
 48 65  1  0  0  0
 48119  1  0  0  0
 49 50  1  0  0  0
 49 53  1  0  0  0
 49 64  1  0  0  0
 49120  1  0  0  0
 50 51  1  0  0  0
 50121  1  0  0  0
 50122  1  0  0  0
 51 52  1  0  0  0
 51123  1  0  0  0
 51124  1  0  0  0
 52125  1  0  0  0
 52126  1  0  0  0
 53 54  1  0  0  0
 54 55  2  0  0  0
 54127  1  0  0  0
 55 57  1  0  0  0
 55128  1  0  0  0
 56 69  2  0  0  0
 57 58  2  0  0  0
 57129  1  0  0  0
 58130  1  0  0  0
 59 60  1  0  0  0
 59 61  1  0  0  0
 59 62  1  0  0  0
 60131  1  0  0  0
 60132  1  0  0  0
 60133  1  0  0  0
 61134  1  0  0  0
 61135  1  0  0  0
 61136  1  0  0  0
 62137  1  0  0  0
 62138  1  0  0  0
 62139  1  0  0  0
 63 65  1  0  0  0
 63140  1  0  0  0
 63141  1  0  0  0
 63142  1  0  0  0
 64143  1  0  0  0
 65144  1  0  0  0
 68 81  1  0  0  0
 71 72  2  0  0  0
 71 83  1  0  0  0
 71145  1  0  0  0
 72 73  1  0  0  0
 72 77  1  0  0  0
 73 74  2  0  0  0
 73 78  1  0  0  0
 74 82  1  0  0  0
 74 83  1  0  0  0
 75 78  1  0  0  0
 75146  1  0  0  0
 75147  1  0  0  0
 75148  1  0  0  0
 76149  1  0  0  0
 76150  1  0  0  0
 76151  1  0  0  0
 76 82  1  0  0  0
 77 80  1  0  0  0
 77152  1  0  0  0
 77153  1  0  0  0
 78154  1  0  0  0
 78155  1  0  0  0
 79 81  1  0  0  0
 79 83  1  0  0  0
 79156  1  0  0  0
 79157  1  0  0  0
 80 84  1  0  0  0
 80158  1  0  0  0
 80159  1  0  0  0
 81160  1  0  0  0
 81161  1  0  0  0
 82 85  1  0  0  0
 82162  1  0  0  0
 84163  1  0  0  0
 85164  1  0  0  0
 85165  1  0  0  0
 85166  1  0  0  0
M  CHG  1  85   1
M  ISO  4   1 100  68 101  81 101  84 100
M  END
> <chiral flag>
0

> <version>
0

> <s_m_source_file>
/data/baiqing/PycharmProjects/Reinvent-master-3.2/result/LINK_invent/BTK/process_docking_weight1_custom_sum_contain_oxygen_bond_distance_aromatic_linkinvent_7_9_3/rearranged_h_0105.sdf

> <i_m_source_file_index>
61

> <r_mmod_Potential_Energy-OPLS-2005>
-57.289421081543

> <r_mmod_Stretch_Energy-OPLS-2005>
123.907829284668

> <r_mmod_Bend_Energy-OPLS-2005>
229.608001708984

> <r_mmod_Torsional_Energy-OPLS-2005>
257.046325683594

> <r_mmod_Improper_Torsional_Energy-OPLS-2005>
5.43208646774292

> <r_mmod_Van_der_Waal_Energy-OPLS-2005>
114.242988586426

> <r_mmod_Electrostatic_Energy-OPLS-2005>
-370.771362304688

> <r_mmod_Solvation_Energy-OPLS-2005>
-488.737640380859

> <b_mmod_Minimization_Converged-OPLS-2005>
0

> <r_mmod_RMS_Derivative-OPLS-2005>
2.54711508750916

$$$$
61
                    3D
 Structure written by MMmdl.
161168  0  0  1  0            999 V2000
  -30.6197  -14.6797   20.4916 C   0  0  0  0  0  0
  -30.4359  -12.4219   19.4518 C   0  0  0  0  0  0
  -29.5085  -12.5098   18.2208 C   0  0  0  0  0  0
  -28.0322  -12.3424   18.6329 C   0  0  0  0  0  0
  -27.6471  -13.2228   19.8527 C   0  0  2  0  0  0
  -28.6937  -13.1106   20.9825 C   0  0  0  0  0  0
  -25.2546  -13.8178   20.5675 C   0  0  0  0  0  0
  -24.1827  -13.0436   20.9194 C   0  0  0  0  0  0
  -24.6403  -11.6908   20.8730 C   0  0  0  0  0  0
  -23.9076  -10.4287   21.0391 C   0  0  0  0  0  0
  -24.3635   -9.4213   21.9170 C   0  0  0  0  0  0
  -23.6311   -8.2248   22.0751 C   0  0  0  0  0  0
  -22.4289   -8.0278   21.3547 C   0  0  0  0  0  0
  -21.9928   -9.0244   20.4643 C   0  0  0  0  0  0
  -22.7245  -10.2129   20.3046 C   0  0  0  0  0  0
  -21.6859   -6.0739   22.5279 C   0  0  0  0  0  0
  -21.4014   -6.5643   23.8209 C   0  0  0  0  0  0
  -21.3662   -5.6798   24.9170 C   0  0  0  0  0  0
  -21.6051   -4.3060   24.7225 C   0  0  0  0  0  0
  -21.8824   -3.8153   23.4344 C   0  0  0  0  0  0
  -21.9196   -4.6968   22.3401 C   0  0  0  0  0  0
  -22.7850  -13.5223   21.1846 C   0  0  0  0  0  0
  -22.1664   -4.2152   21.0979 F   0  0  0  0  0  0
  -21.5632   -3.4548   25.7741 F   0  0  0  0  0  0
  -29.9975  -13.4607   20.4048 N   0  0  0  0  0  0
  -26.2967  -12.9370   20.3280 N   0  0  0  0  0  0
  -25.9332  -11.6519   20.5737 N   0  0  0  0  0  0
  -22.0501  -12.8205   22.0404 N   0  0  0  0  0  0
  -25.4235  -15.1900   20.4080 N   0  0  0  0  0  0
  -31.8041  -14.8113   20.1724 O   0  0  0  0  0  0
  -21.6649   -6.8882   21.4241 O   0  0  0  0  0  0
  -22.3533  -14.5524   20.6682 O   0  0  0  0  0  0
  -24.6270  -31.8588   23.1996 C   0  0  0  0  0  0
  -25.9107  -32.4776   23.8337 C   0  0  1  0  0  0
  -27.2278  -27.3113   20.1264 C   0  0  0  0  0  0
  -25.5915  -33.8576   24.2261 N   0  0  0  0  0  0
  -23.4221  -30.4799   21.5425 C   0  0  2  0  0  0
  -24.8706  -28.9291   20.1140 C   0  0  0  0  0  0
  -22.7481  -29.4618   22.4935 C   0  0  0  0  0  0
  -18.0287  -28.1387   22.8492 C   0  0  0  0  0  0
  -24.1495  -36.7292   23.2640 C   0  0  0  0  0  0
  -25.9635  -30.7881   21.3712 C   0  0  0  0  0  0
  -26.0400  -29.4134   20.7153 C   0  0  0  0  0  0
  -27.2255  -28.6188   20.7048 C   0  0  0  0  0  0
  -26.0383  -26.8757   19.5058 C   0  0  0  0  0  0
  -24.8720  -27.6661   19.4986 C   0  0  0  0  0  0
  -23.6378  -29.8091   20.1603 C   0  0  0  0  0  0
  -25.4123  -36.3084   24.0326 C   0  0  1  0  0  0
  -20.5889  -28.3687   23.1288 C   0  0  2  0  0  0
  -20.6780  -26.9408   22.5414 C   0  0  0  0  0  0
  -19.5752  -26.6383   21.5222 C   0  0  0  0  0  0
  -18.1931  -26.7930   22.1630 C   0  0  0  0  0  0
  -19.1539  -28.8852   23.2886 C   0  0  0  0  0  0
  -18.9458  -30.1460   23.8900 C   0  0  0  0  0  0
  -17.6455  -30.6588   24.0563 C   0  0  0  0  0  0
  -25.9057  -34.9452   23.5096 C   0  0  0  0  0  0
  -16.5347  -29.9083   23.6335 C   0  0  0  0  0  0
  -16.7272  -28.6501   23.0353 C   0  0  0  0  0  0
  -26.4482  -31.6596   25.0716 C   0  0  0  0  0  0
  -25.3700  -31.3732   26.1432 C   0  0  0  0  0  0
  -27.0329  -30.3021   24.6179 C   0  0  0  0  0  0
  -27.6036  -32.4337   25.7487 C   0  0  0  0  0  0
  -27.5584  -37.1807   24.8463 C   0  0  0  0  0  0
  -21.4193  -29.3037   22.3681 N   0  0  0  0  0  0
  -26.4302  -37.3779   23.9399 N   0  0  0  0  0  0
  -24.6895  -31.0593   22.0945 N   0  0  0  0  0  0
  -23.4200  -28.8163   23.3020 O   0  0  0  0  0  0
  -28.3423  -26.4603   20.1229 O   0  0  0  0  0  0
  -26.5637  -34.8921   22.4670 O   0  0  0  0  0  0
  -23.5428  -32.1387   23.7314 O   0  0  0  0  0  0
  -30.1198  -22.6717   21.9329 C   0  0  0  0  0  0
  -28.0039  -18.0972   20.0589 C   0  0  0  0  0  0
  -30.1525  -18.4267   18.8108 C   0  0  0  0  0  0
  -28.8296  -23.8007   20.0065 C   0  0  0  0  0  0
  -30.2012  -17.2177   21.0376 C   0  0  0  0  0  0
  -29.6539  -19.8731   20.8925 C   0  0  0  0  0  0
  -28.1900  -25.1007   20.7060 C   0  0  0  0  0  0
  -29.0127  -22.4493   20.8779 C   0  0  1  0  0  0
  -29.5043  -18.4137   20.2076 C   0  0  0  0  0  0
  -29.8302  -15.7709   20.7681 N   0  0  0  0  0  0
  -29.2395  -21.1322   20.1186 N   0  3  0  0  0  0
  -31.4760  -12.5542   19.1483 H   0  0  0  0  0  0
  -30.3788  -11.4346   19.9126 H   0  0  0  0  0  0
  -29.7822  -11.7524   17.4851 H   0  0  0  0  0  0
  -29.6445  -13.4748   17.7296 H   0  0  0  0  0  0
  -27.8747  -11.2894   18.8697 H   0  0  0  0  0  0
  -27.3794  -12.5644   17.7877 H   0  0  0  0  0  0
  -27.6528  -14.2531   19.4964 H   0  0  0  0  0  0
  -28.7213  -12.0969   21.3850 H   0  0  0  0  0  0
  -28.4377  -13.7616   21.8195 H   0  0  0  0  0  0
  -25.2786   -9.5702   22.4734 H   0  0  0  0  0  0
  -24.0030   -7.4658   22.7482 H   0  0  0  0  0  0
  -21.0859   -8.8752   19.8951 H   0  0  0  0  0  0
  -22.3690  -10.9665   19.6158 H   0  0  0  0  0  0
  -21.1994   -7.6152   23.9709 H   0  0  0  0  0  0
  -21.1482   -6.0529   25.9073 H   0  0  0  0  0  0
  -22.0595   -2.7613   23.2845 H   0  0  0  0  0  0
  -22.4144  -11.9877   22.4792 H   0  0  0  0  0  0
  -21.1104  -13.1194   22.2583 H   0  0  0  0  0  0
  -24.6535  -15.8411   20.5190 H   0  0  0  0  0  0
  -26.2632  -15.6297   20.0573 H   0  0  0  0  0  0
  -26.7179  -32.5445   23.1091 H   0  0  0  0  0  0
  -25.0047  -33.9724   25.0394 H   0  0  0  0  0  0
  -22.7163  -31.3002   21.3956 H   0  0  0  0  0  0
  -23.3762  -35.9620   23.3304 H   0  0  0  0  0  0
  -24.3583  -36.8915   22.2053 H   0  0  0  0  0  0
  -23.7246  -37.6491   23.6666 H   0  0  0  0  0  0
  -26.0960  -31.5503   20.6024 H   0  0  0  0  0  0
  -26.8434  -30.8382   22.0012 H   0  0  0  0  0  0
  -28.1279  -28.9894   21.1708 H   0  0  0  0  0  0
  -26.0084  -25.9057   19.0293 H   0  0  0  0  0  0
  -23.9766  -27.2907   19.0223 H   0  0  0  0  0  0
  -23.7527  -30.5818   19.3992 H   0  0  0  0  0  0
  -22.7598  -29.2340   19.8616 H   0  0  0  0  0  0
  -25.1312  -36.1938   25.0822 H   0  0  0  0  0  0
  -20.9986  -28.3259   24.1405 H   0  0  0  0  0  0
  -20.5692  -26.2291   23.3613 H   0  0  0  0  0  0
  -21.6645  -26.7440   22.1196 H   0  0  0  0  0  0
  -19.6909  -25.6293   21.1249 H   0  0  0  0  0  0
  -19.6691  -27.3200   20.6757 H   0  0  0  0  0  0
  -17.4204  -26.6686   21.4029 H   0  0  0  0  0  0
  -18.0316  -26.0069   22.9019 H   0  0  0  0  0  0
  -19.7930  -30.7280   24.2269 H   0  0  0  0  0  0
  -17.5002  -31.6271   24.5157 H   0  0  0  0  0  0
  -15.5345  -30.2979   23.7657 H   0  0  0  0  0  0
  -15.8677  -28.0820   22.7062 H   0  0  0  0  0  0
  -24.5871  -30.7101   25.7736 H   0  0  0  0  0  0
  -24.8899  -32.2899   26.4866 H   0  0  0  0  0  0
  -25.8008  -30.8883   27.0202 H   0  0  0  0  0  0
  -26.2911  -29.6774   24.1193 H   0  0  0  0  0  0
  -27.4012  -29.7281   25.4690 H   0  0  0  0  0  0
  -27.8783  -30.4307   23.9416 H   0  0  0  0  0  0
  -27.2644  -33.3636   26.2065 H   0  0  0  0  0  0
  -28.3844  -32.6906   25.0316 H   0  0  0  0  0  0
  -28.0710  -31.8467   26.5404 H   0  0  0  0  0  0
  -28.2601  -38.0105   24.7518 H   0  0  0  0  0  0
  -28.1085  -36.2636   24.6291 H   0  0  0  0  0  0
  -27.2298  -37.1456   25.8865 H   0  0  0  0  0  0
  -20.9375  -29.8747   21.6882 H   0  0  0  0  0  0
  -26.0183  -38.2856   24.1393 H   0  0  0  0  0  0
  -29.9534  -23.5823   22.5060 H   0  0  0  0  0  0
  -31.1030  -22.7555   21.4698 H   0  0  0  0  0  0
  -30.1613  -21.8641   22.6636 H   0  0  0  0  0  0
  -27.8391  -17.1616   19.5250 H   0  0  0  0  0  0
  -27.4795  -18.8723   19.4990 H   0  0  0  0  0  0
  -27.5194  -18.0124   21.0321 H   0  0  0  0  0  0
  -30.0817  -17.4489   18.3332 H   0  0  0  0  0  0
  -31.2121  -18.6806   18.8668 H   0  0  0  0  0  0
  -29.6759  -19.1439   18.1421 H   0  0  0  0  0  0
  -29.8065  -24.0776   19.6093 H   0  0  0  0  0  0
  -28.2219  -23.5769   19.1295 H   0  0  0  0  0  0
  -29.9787  -17.3762   22.0932 H   0  0  0  0  0  0
  -31.2854  -17.3208   20.9701 H   0  0  0  0  0  0
  -30.6964  -20.0066   21.1855 H   0  0  0  0  0  0
  -29.0915  -19.8589   21.8272 H   0  0  0  0  0  0
  -28.6212  -25.1929   21.7014 H   0  0  0  0  0  0
  -27.1375  -24.8869   20.8948 H   0  0  0  0  0  0
  -28.0777  -22.3025   21.4216 H   0  0  0  0  0  0
  -28.8619  -15.5446   20.9359 H   0  0  0  0  0  0
  -28.3846  -20.9248   19.6262 H   0  0  0  0  0  0
  -29.9428  -21.2914   19.4148 H   0  0  0  0  0  0
  1 25  1  0  0  0
  1 30  2  0  0  0
  1 80  1  0  0  0
  2  3  1  0  0  0
  2 25  1  0  0  0
  2 82  1  0  0  0
  2 83  1  0  0  0
  3  4  1  0  0  0
  3 84  1  0  0  0
  3 85  1  0  0  0
  4  5  1  0  0  0
  4 86  1  0  0  0
  4 87  1  0  0  0
  5  6  1  0  0  0
  5 26  1  0  0  0
  5 88  1  0  0  0
  6 25  1  0  0  0
  6 89  1  0  0  0
  6 90  1  0  0  0
  7  8  2  0  0  0
  7 26  1  0  0  0
  7 29  1  0  0  0
  8  9  1  0  0  0
  8 22  1  0  0  0
  9 10  1  0  0  0
  9 27  2  0  0  0
 10 11  2  0  0  0
 10 15  1  0  0  0
 11 12  1  0  0  0
 11 91  1  0  0  0
 12 13  2  0  0  0
 12 92  1  0  0  0
 13 14  1  0  0  0
 13 31  1  0  0  0
 14 15  2  0  0  0
 14 93  1  0  0  0
 15 94  1  0  0  0
 16 17  2  0  0  0
 16 21  1  0  0  0
 16 31  1  0  0  0
 17 18  1  0  0  0
 17 95  1  0  0  0
 18 19  2  0  0  0
 18 96  1  0  0  0
 19 20  1  0  0  0
 19 24  1  0  0  0
 20 21  2  0  0  0
 20 97  1  0  0  0
 21 23  1  0  0  0
 22 28  1  0  0  0
 22 32  2  0  0  0
 26 27  1  0  0  0
 28 98  1  0  0  0
 28 99  1  0  0  0
 29100  1  0  0  0
 29101  1  0  0  0
 33 34  1  0  0  0
 33 66  1  0  0  0
 33 70  2  0  0  0
 34 36  1  0  0  0
 34 59  1  0  0  0
 34102  1  0  0  0
 35 44  2  0  0  0
 35 45  1  0  0  0
 35 68  1  0  0  0
 36 56  1  0  0  0
 36103  1  0  0  0
 37 39  1  0  0  0
 37 47  1  0  0  0
 37 66  1  0  0  0
 37104  1  0  0  0
 38 43  2  0  0  0
 38 46  1  0  0  0
 38 47  1  0  0  0
 39 64  1  0  0  0
 39 67  2  0  0  0
 40 52  1  0  0  0
 40 53  2  0  0  0
 40 58  1  0  0  0
 41105  1  0  0  0
 41106  1  0  0  0
 41107  1  0  0  0
 41 48  1  0  0  0
 42 43  1  0  0  0
 42 66  1  0  0  0
 42108  1  0  0  0
 42109  1  0  0  0
 43 44  1  0  0  0
 44110  1  0  0  0
 45 46  2  0  0  0
 45111  1  0  0  0
 46112  1  0  0  0
 47113  1  0  0  0
 47114  1  0  0  0
 48 56  1  0  0  0
 48 65  1  0  0  0
 48115  1  0  0  0
 49 50  1  0  0  0
 49 53  1  0  0  0
 49 64  1  0  0  0
 49116  1  0  0  0
 50 51  1  0  0  0
 50117  1  0  0  0
 50118  1  0  0  0
 51 52  1  0  0  0
 51119  1  0  0  0
 51120  1  0  0  0
 52121  1  0  0  0
 52122  1  0  0  0
 53 54  1  0  0  0
 54 55  2  0  0  0
 54123  1  0  0  0
 55 57  1  0  0  0
 55124  1  0  0  0
 56 69  2  0  0  0
 57 58  2  0  0  0
 57125  1  0  0  0
 58126  1  0  0  0
 59 60  1  0  0  0
 59 61  1  0  0  0
 59 62  1  0  0  0
 60127  1  0  0  0
 60128  1  0  0  0
 60129  1  0  0  0
 61130  1  0  0  0
 61131  1  0  0  0
 61132  1  0  0  0
 62133  1  0  0  0
 62134  1  0  0  0
 62135  1  0  0  0
 63 65  1  0  0  0
 63136  1  0  0  0
 63137  1  0  0  0
 63138  1  0  0  0
 64139  1  0  0  0
 65140  1  0  0  0
 68 77  1  0  0  0
 71141  1  0  0  0
 71142  1  0  0  0
 71143  1  0  0  0
 71 78  1  0  0  0
 72144  1  0  0  0
 72145  1  0  0  0
 72146  1  0  0  0
 72 79  1  0  0  0
 73 79  1  0  0  0
 73147  1  0  0  0
 73148  1  0  0  0
 73149  1  0  0  0
 74 77  1  0  0  0
 74 78  1  0  0  0
 74150  1  0  0  0
 74151  1  0  0  0
 75 79  1  0  0  0
 75 80  1  0  0  0
 75152  1  0  0  0
 75153  1  0  0  0
 76 79  1  0  0  0
 76 81  1  0  0  0
 76154  1  0  0  0
 76155  1  0  0  0
 77156  1  0  0  0
 77157  1  0  0  0
 78 81  1  0  0  0
 78158  1  0  0  0
 80159  1  0  0  0
 81160  1  0  0  0
 81161  1  0  0  0
M  CHG  1  81   1
M  ISO  4   1 100  68 101  77 101  80 100
M  END
> <chiral flag>
0

> <version>
0

> <s_m_source_file>
/data/baiqing/PycharmProjects/Reinvent-master-3.2/result/LINK_invent/BTK/process_docking_weight1_custom_sum_contain_oxygen_bond_distance_aromatic_linkinvent_7_9_3/rearranged_h_0105.sdf

> <i_m_source_file_index>
62

> <r_mmod_Potential_Energy-OPLS-2005>
-69.9482727050781

> <r_mmod_Stretch_Energy-OPLS-2005>
101.925491333008

> <r_mmod_Bend_Energy-OPLS-2005>
152.088104248047

> <r_mmod_Torsional_Energy-OPLS-2005>
259.251617431641

> <r_mmod_Improper_Torsional_Energy-OPLS-2005>
4.03683662414551

> <r_mmod_Van_der_Waal_Energy-OPLS-2005>
117.168586730957

> <r_mmod_Electrostatic_Energy-OPLS-2005>
-295.827392578125

> <r_mmod_Solvation_Energy-OPLS-2005>
-466.082550048828

> <b_mmod_Minimization_Converged-OPLS-2005>
0

> <r_mmod_RMS_Derivative-OPLS-2005>
1.19124615192413

$$$$
62
                    3D
 Structure written by MMmdl.
150157  0  0  1  0            999 V2000
  -30.5019  -14.9883   20.4089 C   0  0  0  0  0  0
  -30.4442  -12.6189   19.4839 C   0  0  0  0  0  0
  -29.5226  -12.5415   18.2454 C   0  0  0  0  0  0
  -28.0554  -12.3173   18.6650 C   0  0  0  0  0  0
  -27.6254  -13.2466   19.8296 C   0  0  2  0  0  0
  -28.6708  -13.2824   20.9628 C   0  0  0  0  0  0
  -25.2451  -13.8210   20.5679 C   0  0  0  0  0  0
  -24.1779  -13.0432   20.9235 C   0  0  0  0  0  0
  -24.6398  -11.6917   20.8759 C   0  0  0  0  0  0
  -23.9091  -10.4282   21.0414 C   0  0  0  0  0  0
  -24.3640   -9.4201   21.9190 C   0  0  0  0  0  0
  -23.6306   -8.2247   22.0760 C   0  0  0  0  0  0
  -22.4283   -8.0292   21.3559 C   0  0  0  0  0  0
  -21.9933   -9.0261   20.4658 C   0  0  0  0  0  0
  -22.7263  -10.2130   20.3065 C   0  0  0  0  0  0
  -21.6861   -6.0743   22.5284 C   0  0  0  0  0  0
  -21.4008   -6.5640   23.8215 C   0  0  0  0  0  0
  -21.3665   -5.6795   24.9176 C   0  0  0  0  0  0
  -21.6056   -4.3058   24.7223 C   0  0  0  0  0  0
  -21.8826   -3.8156   23.4340 C   0  0  0  0  0  0
  -21.9188   -4.6969   22.3393 C   0  0  0  0  0  0
  -22.7803  -13.5204   21.1879 C   0  0  0  0  0  0
  -22.1654   -4.2157   21.0972 F   0  0  0  0  0  0
  -21.5637   -3.4541   25.7737 F   0  0  0  0  0  0
  -29.9327  -13.7159   20.3504 N   0  0  0  0  0  0
  -26.2863  -12.9431   20.3191 N   0  0  0  0  0  0
  -25.9332  -11.6568   20.5730 N   0  0  0  0  0  0
  -22.0440  -12.8199   22.0424 N   0  0  0  0  0  0
  -25.4128  -15.1946   20.4048 N   0  0  0  0  0  0
  -31.7216  -15.0668   20.2239 O   0  0  0  0  0  0
  -21.6659   -6.8889   21.4253 O   0  0  0  0  0  0
  -22.3481  -14.5502   20.6704 O   0  0  0  0  0  0
  -24.6462  -31.8396   23.1847 C   0  0  0  0  0  0
  -25.9224  -32.4665   23.8245 C   0  0  1  0  0  0
  -27.2212  -27.1033   20.1690 C   0  0  0  0  0  0
  -25.5959  -33.8478   24.2165 N   0  0  0  0  0  0
  -23.4516  -30.4558   21.5326 C   0  0  2  0  0  0
  -24.9008  -28.8661   20.1222 C   0  0  0  0  0  0
  -22.7579  -29.4518   22.4870 C   0  0  0  0  0  0
  -18.0296  -28.1377   22.8466 C   0  0  0  0  0  0
  -24.1499  -36.7242   23.2647 C   0  0  0  0  0  0
  -26.0093  -30.7034   21.3868 C   0  0  0  0  0  0
  -26.0802  -29.3083   20.7350 C   0  0  0  0  0  0
  -27.2434  -28.4462   20.7317 C   0  0  0  0  0  0
  -26.0118  -26.7565   19.5336 C   0  0  0  0  0  0
  -24.8799  -27.6040   19.5062 C   0  0  0  0  0  0
  -23.6806  -29.7765   20.1560 C   0  0  0  0  0  0
  -25.4137  -36.3019   24.0312 C   0  0  1  0  0  0
  -20.5907  -28.3708   23.1232 C   0  0  2  0  0  0
  -20.6783  -26.9406   22.5409 C   0  0  0  0  0  0
  -19.5763  -26.6367   21.5208 C   0  0  0  0  0  0
  -18.1938  -26.7918   22.1613 C   0  0  0  0  0  0
  -19.1549  -28.8867   23.2835 C   0  0  0  0  0  0
  -18.9467  -30.1465   23.8854 C   0  0  0  0  0  0
  -17.6464  -30.6583   24.0553 C   0  0  0  0  0  0
  -25.9087  -34.9391   23.5055 C   0  0  0  0  0  0
  -16.5357  -29.9067   23.6342 C   0  0  0  0  0  0
  -16.7278  -28.6489   23.0351 C   0  0  0  0  0  0
  -26.4533  -31.6541   25.0702 C   0  0  0  0  0  0
  -25.3720  -31.3721   26.1398 C   0  0  0  0  0  0
  -27.0414  -30.2936   24.6309 C   0  0  0  0  0  0
  -27.6062  -32.4306   25.7496 C   0  0  0  0  0  0
  -27.5579  -37.1781   24.8464 C   0  0  0  0  0  0
  -21.4268  -29.3031   22.3612 N   0  0  0  0  0  0
  -26.4290  -37.3743   23.9405 N   0  0  0  0  0  0
  -24.7226  -31.0217   22.0900 N   0  0  0  0  0  0
  -23.4203  -28.8077   23.3051 O   0  0  0  0  0  0
  -28.3028  -26.1448   20.1314 O   0  0  0  0  0  0
  -26.5675  -34.8893   22.4634 O   0  0  0  0  0  0
  -23.5577  -32.1292   23.7038 O   0  0  0  0  0  0
  -29.2315  -21.8032   20.1739 C   0  0  0  0  0  0
  -29.4475  -19.0314   19.8246 C   0  0  0  0  0  0
  -29.8307  -17.7025   20.8094 C   0  0  0  0  0  0
  -28.2535  -24.6558   20.6437 C   0  0  0  0  0  0
  -28.3381  -23.1758   19.8057 C   0  0  1  0  0  0
  -28.7868  -20.4456   20.1903 N   0  0  0  0  0  0
  -29.6714  -16.1497   20.4722 N   0  0  0  0  0  0
  -28.7570  -23.5281   18.4369 N   0  3  0  0  0  0
  -30.4427  -21.9870   20.2988 O   0  0  0  0  0  0
  -31.4733  -12.7991   19.1699 H   0  0  0  0  0  0
  -30.4541  -11.6712   20.0245 H   0  0  0  0  0  0
  -29.8494  -11.7486   17.5730 H   0  0  0  0  0  0
  -29.5998  -13.4726   17.6817 H   0  0  0  0  0  0
  -27.9572  -11.2755   18.9698 H   0  0  0  0  0  0
  -27.3937  -12.4509   17.8081 H   0  0  0  0  0  0
  -27.5809  -14.2465   19.3995 H   0  0  0  0  0  0
  -28.7770  -12.3082   21.4413 H   0  0  0  0  0  0
  -28.3660  -13.9814   21.7442 H   0  0  0  0  0  0
  -25.2780   -9.5679   22.4769 H   0  0  0  0  0  0
  -24.0020   -7.4655   22.7485 H   0  0  0  0  0  0
  -21.0871   -8.8786   19.8947 H   0  0  0  0  0  0
  -22.3742  -10.9680   19.6184 H   0  0  0  0  0  0
  -21.1995   -7.6148   23.9715 H   0  0  0  0  0  0
  -21.1485   -6.0520   25.9076 H   0  0  0  0  0  0
  -22.0594   -2.7620   23.2838 H   0  0  0  0  0  0
  -22.4035  -11.9860   22.4825 H   0  0  0  0  0  0
  -21.1065  -13.1244   22.2615 H   0  0  0  0  0  0
  -24.6431  -15.8472   20.5131 H   0  0  0  0  0  0
  -26.2442  -15.6293   20.0266 H   0  0  0  0  0  0
  -26.7293  -32.5249   23.0970 H   0  0  0  0  0  0
  -25.0091  -33.9598   25.0300 H   0  0  0  0  0  0
  -22.7567  -31.2826   21.3716 H   0  0  0  0  0  0
  -23.3771  -35.9563   23.3286 H   0  0  0  0  0  0
  -24.3594  -36.8904   22.2069 H   0  0  0  0  0  0
  -23.7241  -37.6424   23.6702 H   0  0  0  0  0  0
  -26.1672  -31.4517   20.6086 H   0  0  0  0  0  0
  -26.8784  -30.7560   22.0320 H   0  0  0  0  0  0
  -28.1501  -28.7884   21.2094 H   0  0  0  0  0  0
  -25.9286  -25.7904   19.0570 H   0  0  0  0  0  0
  -23.9804  -27.2581   19.0155 H   0  0  0  0  0  0
  -23.8244  -30.5458   19.3962 H   0  0  0  0  0  0
  -22.7941  -29.2211   19.8442 H   0  0  0  0  0  0
  -25.1331  -36.1851   25.0806 H   0  0  0  0  0  0
  -20.9977  -28.3287   24.1360 H   0  0  0  0  0  0
  -20.5671  -26.2318   23.3628 H   0  0  0  0  0  0
  -21.6649  -26.7420   22.1206 H   0  0  0  0  0  0
  -19.6932  -25.6273   21.1251 H   0  0  0  0  0  0
  -19.6702  -27.3173   20.6732 H   0  0  0  0  0  0
  -17.4216  -26.6649   21.4007 H   0  0  0  0  0  0
  -18.0329  -26.0059   22.9008 H   0  0  0  0  0  0
  -19.7947  -30.7286   24.2192 H   0  0  0  0  0  0
  -17.5023  -31.6263   24.5150 H   0  0  0  0  0  0
  -15.5355  -30.2957   23.7705 H   0  0  0  0  0  0
  -15.8670  -28.0812   22.7079 H   0  0  0  0  0  0
  -24.5903  -30.7074   25.7701 H   0  0  0  0  0  0
  -24.8911  -32.2896   26.4799 H   0  0  0  0  0  0
  -25.8006  -30.8901   27.0196 H   0  0  0  0  0  0
  -26.3043  -29.6630   24.1328 H   0  0  0  0  0  0
  -27.4027  -29.7269   25.4900 H   0  0  0  0  0  0
  -27.8945  -30.4164   23.9637 H   0  0  0  0  0  0
  -27.2662  -33.3625   26.2025 H   0  0  0  0  0  0
  -28.3904  -32.6830   25.0346 H   0  0  0  0  0  0
  -28.0695  -31.8460   26.5456 H   0  0  0  0  0  0
  -28.2577  -38.0096   24.7528 H   0  0  0  0  0  0
  -28.1088  -36.2620   24.6269 H   0  0  0  0  0  0
  -27.2289  -37.1408   25.8865 H   0  0  0  0  0  0
  -20.9481  -29.8737   21.6778 H   0  0  0  0  0  0
  -26.0145  -38.2807   24.1410 H   0  0  0  0  0  0
  -28.7514  -18.6288   19.0881 H   0  0  0  0  0  0
  -30.3382  -19.2546   19.2361 H   0  0  0  0  0  0
  -29.2366  -17.8278   21.7138 H   0  0  0  0  0  0
  -30.8579  -17.8389   21.1486 H   0  0  0  0  0  0
  -29.0850  -24.6157   21.3489 H   0  0  0  0  0  0
  -27.3775  -24.5948   21.2898 H   0  0  0  0  0  0
  -27.3067  -22.8313   19.7161 H   0  0  0  0  0  0
  -27.7751  -20.3856   20.1851 H   0  0  0  0  0  0
  -28.7002  -15.8779   20.4587 H   0  0  0  0  0  0
  -29.7184  -23.8246   18.4474 H   0  0  0  0  0  0
  -28.1953  -24.2718   18.0615 H   0  0  0  0  0  0
  -28.6884  -22.7248   17.8372 H   0  0  0  0  0  0
  1 25  1  0  0  0
  1 30  2  0  0  0
  1 77  1  0  0  0
  2  3  1  0  0  0
  2 25  1  0  0  0
  2 80  1  0  0  0
  2 81  1  0  0  0
  3  4  1  0  0  0
  3 82  1  0  0  0
  3 83  1  0  0  0
  4  5  1  0  0  0
  4 84  1  0  0  0
  4 85  1  0  0  0
  5  6  1  0  0  0
  5 26  1  0  0  0
  5 86  1  0  0  0
  6 25  1  0  0  0
  6 87  1  0  0  0
  6 88  1  0  0  0
  7  8  2  0  0  0
  7 26  1  0  0  0
  7 29  1  0  0  0
  8  9  1  0  0  0
  8 22  1  0  0  0
  9 10  1  0  0  0
  9 27  2  0  0  0
 10 11  2  0  0  0
 10 15  1  0  0  0
 11 12  1  0  0  0
 11 89  1  0  0  0
 12 13  2  0  0  0
 12 90  1  0  0  0
 13 14  1  0  0  0
 13 31  1  0  0  0
 14 15  2  0  0  0
 14 91  1  0  0  0
 15 92  1  0  0  0
 16 17  2  0  0  0
 16 21  1  0  0  0
 16 31  1  0  0  0
 17 18  1  0  0  0
 17 93  1  0  0  0
 18 19  2  0  0  0
 18 94  1  0  0  0
 19 20  1  0  0  0
 19 24  1  0  0  0
 20 21  2  0  0  0
 20 95  1  0  0  0
 21 23  1  0  0  0
 22 28  1  0  0  0
 22 32  2  0  0  0
 26 27  1  0  0  0
 28 96  1  0  0  0
 28 97  1  0  0  0
 29 98  1  0  0  0
 29 99  1  0  0  0
 33 34  1  0  0  0
 33 66  1  0  0  0
 33 70  2  0  0  0
 34 36  1  0  0  0
 34 59  1  0  0  0
 34100  1  0  0  0
 35 44  2  0  0  0
 35 45  1  0  0  0
 35 68  1  0  0  0
 36 56  1  0  0  0
 36101  1  0  0  0
 37 39  1  0  0  0
 37 47  1  0  0  0
 37 66  1  0  0  0
 37102  1  0  0  0
 38 43  2  0  0  0
 38 46  1  0  0  0
 38 47  1  0  0  0
 39 64  1  0  0  0
 39 67  2  0  0  0
 40 52  1  0  0  0
 40 53  2  0  0  0
 40 58  1  0  0  0
 41103  1  0  0  0
 41104  1  0  0  0
 41105  1  0  0  0
 41 48  1  0  0  0
 42 43  1  0  0  0
 42 66  1  0  0  0
 42106  1  0  0  0
 42107  1  0  0  0
 43 44  1  0  0  0
 44108  1  0  0  0
 45 46  2  0  0  0
 45109  1  0  0  0
 46110  1  0  0  0
 47111  1  0  0  0
 47112  1  0  0  0
 48 56  1  0  0  0
 48 65  1  0  0  0
 48113  1  0  0  0
 49 50  1  0  0  0
 49 53  1  0  0  0
 49 64  1  0  0  0
 49114  1  0  0  0
 50 51  1  0  0  0
 50115  1  0  0  0
 50116  1  0  0  0
 51 52  1  0  0  0
 51117  1  0  0  0
 51118  1  0  0  0
 52119  1  0  0  0
 52120  1  0  0  0
 53 54  1  0  0  0
 54 55  2  0  0  0
 54121  1  0  0  0
 55 57  1  0  0  0
 55122  1  0  0  0
 56 69  2  0  0  0
 57 58  2  0  0  0
 57123  1  0  0  0
 58124  1  0  0  0
 59 60  1  0  0  0
 59 61  1  0  0  0
 59 62  1  0  0  0
 60125  1  0  0  0
 60126  1  0  0  0
 60127  1  0  0  0
 61128  1  0  0  0
 61129  1  0  0  0
 61130  1  0  0  0
 62131  1  0  0  0
 62132  1  0  0  0
 62133  1  0  0  0
 63 65  1  0  0  0
 63134  1  0  0  0
 63135  1  0  0  0
 63136  1  0  0  0
 64137  1  0  0  0
 65138  1  0  0  0
 68 74  1  0  0  0
 71 75  1  0  0  0
 71 76  1  0  0  0
 71 79  2  0  0  0
 72 73  1  0  0  0
 72 76  1  0  0  0
 72139  1  0  0  0
 72140  1  0  0  0
 73 77  1  0  0  0
 73141  1  0  0  0
 73142  1  0  0  0
 74 75  1  0  0  0
 74143  1  0  0  0
 74144  1  0  0  0
 75 78  1  0  0  0
 75145  1  0  0  0
 76146  1  0  0  0
 77147  1  0  0  0
 78148  1  0  0  0
 78149  1  0  0  0
 78150  1  0  0  0
M  CHG  1  78   1
M  ISO  4   1 100  68 101  74 101  77 100
M  END
> <chiral flag>
0

> <version>
0

> <s_m_source_file>
/data/baiqing/PycharmProjects/Reinvent-master-3.2/result/LINK_invent/BTK/process_docking_weight1_custom_sum_contain_oxygen_bond_distance_aromatic_linkinvent_7_9_3/rearranged_h_0105.sdf

> <i_m_source_file_index>
63

> <r_mmod_Potential_Energy-OPLS-2005>
230.647674560547

> <r_mmod_Stretch_Energy-OPLS-2005>
299.822845458984

> <r_mmod_Bend_Energy-OPLS-2005>
331.078674316406

> <r_mmod_Torsional_Energy-OPLS-2005>
271.106109619141

> <r_mmod_Improper_Torsional_Energy-OPLS-2005>
7.82634925842285

> <r_mmod_Van_der_Waal_Energy-OPLS-2005>
106.4814453125

> <r_mmod_Electrostatic_Energy-OPLS-2005>
-477.926361083984

> <r_mmod_Solvation_Energy-OPLS-2005>
-525.470520019531

> <b_mmod_Minimization_Converged-OPLS-2005>
0

> <r_mmod_RMS_Derivative-OPLS-2005>
2.35028171539307

$$$$
63
                    3D
 Structure written by MMmdl.
153161  0  0  1  0            999 V2000
  -30.3039  -15.5917   20.3210 C   0  0  0  0  0  0
  -30.4227  -13.0454   19.5421 C   0  0  0  0  0  0
  -29.5448  -12.6406   18.3233 C   0  0  0  0  0  0
  -28.1149  -12.2941   18.7648 C   0  0  0  0  0  0
  -27.5948  -13.3017   19.8158 C   0  0  2  0  0  0
  -28.6122  -13.6104   20.9384 C   0  0  0  0  0  0
  -25.2313  -13.8271   20.5795 C   0  0  0  0  0  0
  -24.1693  -13.0426   20.9279 C   0  0  0  0  0  0
  -24.6389  -11.6936   20.8764 C   0  0  0  0  0  0
  -23.9102  -10.4280   21.0395 C   0  0  0  0  0  0
  -24.3644   -9.4199   21.9178 C   0  0  0  0  0  0
  -23.6304   -8.2242   22.0753 C   0  0  0  0  0  0
  -22.4290   -8.0279   21.3545 C   0  0  0  0  0  0
  -21.9929   -9.0252   20.4645 C   0  0  0  0  0  0
  -22.7271  -10.2123   20.3050 C   0  0  0  0  0  0
  -21.6854   -6.0734   22.5281 C   0  0  0  0  0  0
  -21.4021   -6.5637   23.8212 C   0  0  0  0  0  0
  -21.3662   -5.6795   24.9172 C   0  0  0  0  0  0
  -21.6041   -4.3053   24.7219 C   0  0  0  0  0  0
  -21.8818   -3.8148   23.4348 C   0  0  0  0  0  0
  -21.9191   -4.6962   22.3401 C   0  0  0  0  0  0
  -22.7711  -13.5161   21.1923 C   0  0  0  0  0  0
  -22.1659   -4.2149   21.0982 F   0  0  0  0  0  0
  -21.5623   -3.4542   25.7734 F   0  0  0  0  0  0
  -29.7920  -14.2245   20.2885 N   0  0  0  0  0  0
  -26.2754  -12.9593   20.3239 N   0  0  0  0  0  0
  -25.9336  -11.6671   20.5708 N   0  0  0  0  0  0
  -22.0393  -12.8130   22.0475 N   0  0  0  0  0  0
  -25.3903  -15.2011   20.4256 N   0  0  0  0  0  0
  -31.5335  -15.5454   20.1240 O   0  0  0  0  0  0
  -21.6646   -6.8881   21.4247 O   0  0  0  0  0  0
  -22.3387  -14.5461   20.6759 O   0  0  0  0  0  0
  -24.6821  -31.8031   23.1499 C   0  0  0  0  0  0
  -25.9400  -32.4496   23.8053 C   0  0  1  0  0  0
  -27.2257  -26.7120   20.2074 C   0  0  0  0  0  0
  -25.5983  -33.8320   24.1957 N   0  0  0  0  0  0
  -23.5079  -30.4036   21.5037 C   0  0  2  0  0  0
  -24.9671  -28.7466   20.1114 C   0  0  0  0  0  0
  -22.7761  -29.4318   22.4690 C   0  0  0  0  0  0
  -18.0342  -28.1449   22.8451 C   0  0  0  0  0  0
  -24.1471  -36.7180   23.2651 C   0  0  0  0  0  0
  -26.0864  -30.5362   21.4139 C   0  0  0  0  0  0
  -26.1533  -29.1009   20.7653 C   0  0  0  0  0  0
  -27.2652  -28.1097   20.7857 C   0  0  0  0  0  0
  -26.0124  -26.5690   19.4872 C   0  0  0  0  0  0
  -24.9353  -27.5054   19.4509 C   0  0  0  0  0  0
  -23.7627  -29.7014   20.1375 C   0  0  0  0  0  0
  -25.4121  -36.2922   24.0280 C   0  0  1  0  0  0
  -20.5978  -28.3805   23.1152 C   0  0  2  0  0  0
  -20.6809  -26.9466   22.5411 C   0  0  0  0  0  0
  -19.5780  -26.6380   21.5232 C   0  0  0  0  0  0
  -18.1957  -26.7977   22.1620 C   0  0  0  0  0  0
  -19.1611  -28.8942   23.2782 C   0  0  0  0  0  0
  -18.9524  -30.1526   23.8827 C   0  0  0  0  0  0
  -17.6521  -30.6628   24.0559 C   0  0  0  0  0  0
  -25.9112  -34.9309   23.4957 C   0  0  0  0  0  0
  -16.5404  -29.9115   23.6365 C   0  0  0  0  0  0
  -16.7323  -28.6545   23.0364 C   0  0  0  0  0  0
  -26.4565  -31.6531   25.0684 C   0  0  0  0  0  0
  -25.3601  -31.3881   26.1286 C   0  0  0  0  0  0
  -27.0501  -30.2869   24.6570 C   0  0  0  0  0  0
  -27.6020  -32.4387   25.7501 C   0  0  0  0  0  0
  -27.5552  -37.1737   24.8461 C   0  0  0  0  0  0
  -21.4409  -29.3059   22.3473 N   0  0  0  0  0  0
  -26.4256  -37.3678   23.9419 N   0  0  0  0  0  0
  -24.7818  -30.9468   22.0756 N   0  0  0  0  0  0
  -23.4211  -28.7903   23.3012 O   0  0  0  0  0  0
  -28.1877  -25.4989   20.3153 O   0  0  0  0  0  0
  -26.5752  -34.8886   22.4575 O   0  0  0  0  0  0
  -23.5840  -32.1111   23.6444 O   0  0  0  0  0  0
  -30.9792  -19.3725   20.5791 C   0  0  0  0  0  0
  -30.9305  -20.8385   21.1970 C   0  0  0  0  0  0
  -28.5052  -20.2037   20.1599 C   0  0  2  0  0  0
  -29.6356  -18.7042   20.1568 C   0  0  2  0  0  0
  -28.8257  -22.0295   20.4678 C   0  0  2  0  0  0
  -27.2796  -19.8168   20.9929 C   0  0  0  0  0  0
  -28.0687  -23.7676   20.0100 C   0  0  0  0  0  0
  -29.5295  -16.9414   20.3867 N   0  0  0  0  0  0
  -30.3138  -21.9703   20.3941 N   0  3  0  0  0  0
  -31.4172  -13.3036   19.1778 H   0  0  0  0  0  0
  -30.5768  -12.1951   20.2078 H   0  0  0  0  0  0
  -29.9898  -11.7972   17.7930 H   0  0  0  0  0  0
  -29.5117  -13.4681   17.6132 H   0  0  0  0  0  0
  -28.1341  -11.2938   19.1998 H   0  0  0  0  0  0
  -27.4441  -12.2441   17.9063 H   0  0  0  0  0  0
  -27.4644  -14.2285   19.2557 H   0  0  0  0  0  0
  -28.8619  -12.7159   21.5116 H   0  0  0  0  0  0
  -28.1875  -14.3215   21.6491 H   0  0  0  0  0  0
  -25.2786   -9.5667   22.4753 H   0  0  0  0  0  0
  -24.0002   -7.4637   22.7485 H   0  0  0  0  0  0
  -21.0852   -8.8781   19.8957 H   0  0  0  0  0  0
  -22.3731  -10.9661   19.6155 H   0  0  0  0  0  0
  -21.2026   -7.6148   23.9715 H   0  0  0  0  0  0
  -21.1482   -6.0522   25.9071 H   0  0  0  0  0  0
  -22.0593   -2.7609   23.2846 H   0  0  0  0  0  0
  -22.4047  -11.9799   22.4847 H   0  0  0  0  0  0
  -21.1012  -13.1123   22.2714 H   0  0  0  0  0  0
  -24.6170  -15.8466   20.5437 H   0  0  0  0  0  0
  -26.2265  -15.6472   20.0741 H   0  0  0  0  0  0
  -26.7490  -32.4975   23.0777 H   0  0  0  0  0  0
  -25.0070  -33.9369   25.0068 H   0  0  0  0  0  0
  -22.8332  -31.2410   21.3127 H   0  0  0  0  0  0
  -23.3754  -35.9491   23.3274 H   0  0  0  0  0  0
  -24.3535  -36.8890   22.2076 H   0  0  0  0  0  0
  -23.7221  -37.6339   23.6762 H   0  0  0  0  0  0
  -26.2817  -31.2589   20.6204 H   0  0  0  0  0  0
  -26.9410  -30.6089   22.0733 H   0  0  0  0  0  0
  -28.1516  -28.3796   21.3438 H   0  0  0  0  0  0
  -25.8511  -25.6313   18.9734 H   0  0  0  0  0  0
  -24.0423  -27.2278   18.9077 H   0  0  0  0  0  0
  -23.9393  -30.4648   19.3801 H   0  0  0  0  0  0
  -22.8664  -29.1720   19.8079 H   0  0  0  0  0  0
  -25.1318  -36.1682   25.0768 H   0  0  0  0  0  0
  -21.0059  -28.3439   24.1280 H   0  0  0  0  0  0
  -20.5713  -26.2426   23.3674 H   0  0  0  0  0  0
  -21.6665  -26.7440   22.1198 H   0  0  0  0  0  0
  -19.6950  -25.6269   21.1318 H   0  0  0  0  0  0
  -19.6725  -27.3135   20.6723 H   0  0  0  0  0  0
  -17.4235  -26.6749   21.4010 H   0  0  0  0  0  0
  -18.0321  -26.0132   22.9029 H   0  0  0  0  0  0
  -19.7999  -30.7358   24.2151 H   0  0  0  0  0  0
  -17.5079  -31.6296   24.5190 H   0  0  0  0  0  0
  -15.5407  -30.3004   23.7725 H   0  0  0  0  0  0
  -15.8724  -28.0849   22.7113 H   0  0  0  0  0  0
  -24.5811  -30.7214   25.7589 H   0  0  0  0  0  0
  -24.8751  -32.3114   26.4459 H   0  0  0  0  0  0
  -25.7724  -30.9211   27.0238 H   0  0  0  0  0  0
  -26.3216  -29.6470   24.1587 H   0  0  0  0  0  0
  -27.3979  -29.7336   25.5305 H   0  0  0  0  0  0
  -27.9163  -30.4023   24.0059 H   0  0  0  0  0  0
  -27.2593  -33.3795   26.1819 H   0  0  0  0  0  0
  -28.3950  -32.6771   25.0408 H   0  0  0  0  0  0
  -28.0538  -31.8680   26.5624 H   0  0  0  0  0  0
  -28.2518  -38.0075   24.7515 H   0  0  0  0  0  0
  -28.1088  -36.2596   24.6259 H   0  0  0  0  0  0
  -27.2272  -37.1347   25.8863 H   0  0  0  0  0  0
  -20.9714  -29.8789   21.6597 H   0  0  0  0  0  0
  -26.0080  -38.2722   24.1459 H   0  0  0  0  0  0
  -31.4638  -18.7222   21.3082 H   0  0  0  0  0  0
  -31.6549  -19.3805   19.7229 H   0  0  0  0  0  0
  -31.9579  -21.1325   21.4072 H   0  0  0  0  0  0
  -30.4468  -20.7946   22.1734 H   0  0  0  0  0  0
  -28.1405  -20.2112   19.1315 H   0  0  0  0  0  0
  -29.7585  -18.6258   19.0745 H   0  0  0  0  0  0
  -28.6467  -22.0823   21.5422 H   0  0  0  0  0  0
  -27.5153  -19.8209   22.0575 H   0  0  0  0  0  0
  -26.9215  -18.8196   20.7355 H   0  0  0  0  0  0
  -26.4586  -20.5167   20.8317 H   0  0  0  0  0  0
  -27.0045  -23.6103   20.1888 H   0  0  0  0  0  0
  -28.1440  -23.7621   18.9233 H   0  0  0  0  0  0
  -28.5636  -16.7059   20.5666 H   0  0  0  0  0  0
  -30.6183  -21.9164   19.4349 H   0  0  0  0  0  0
  -30.6772  -22.8361   20.7631 H   0  0  0  0  0  0
  1 25  1  0  0  0
  1 30  2  0  0  0
  1 78  1  0  0  0
  2  3  1  0  0  0
  2 25  1  0  0  0
  2 80  1  0  0  0
  2 81  1  0  0  0
  3  4  1  0  0  0
  3 82  1  0  0  0
  3 83  1  0  0  0
  4  5  1  0  0  0
  4 84  1  0  0  0
  4 85  1  0  0  0
  5  6  1  0  0  0
  5 26  1  0  0  0
  5 86  1  0  0  0
  6 25  1  0  0  0
  6 87  1  0  0  0
  6 88  1  0  0  0
  7  8  2  0  0  0
  7 26  1  0  0  0
  7 29  1  0  0  0
  8  9  1  0  0  0
  8 22  1  0  0  0
  9 10  1  0  0  0
  9 27  2  0  0  0
 10 11  2  0  0  0
 10 15  1  0  0  0
 11 12  1  0  0  0
 11 89  1  0  0  0
 12 13  2  0  0  0
 12 90  1  0  0  0
 13 14  1  0  0  0
 13 31  1  0  0  0
 14 15  2  0  0  0
 14 91  1  0  0  0
 15 92  1  0  0  0
 16 17  2  0  0  0
 16 21  1  0  0  0
 16 31  1  0  0  0
 17 18  1  0  0  0
 17 93  1  0  0  0
 18 19  2  0  0  0
 18 94  1  0  0  0
 19 20  1  0  0  0
 19 24  1  0  0  0
 20 21  2  0  0  0
 20 95  1  0  0  0
 21 23  1  0  0  0
 22 28  1  0  0  0
 22 32  2  0  0  0
 26 27  1  0  0  0
 28 96  1  0  0  0
 28 97  1  0  0  0
 29 98  1  0  0  0
 29 99  1  0  0  0
 33 34  1  0  0  0
 33 66  1  0  0  0
 33 70  2  0  0  0
 34 36  1  0  0  0
 34 59  1  0  0  0
 34100  1  0  0  0
 35 44  2  0  0  0
 35 45  1  0  0  0
 35 68  1  0  0  0
 36 56  1  0  0  0
 36101  1  0  0  0
 37 39  1  0  0  0
 37 47  1  0  0  0
 37 66  1  0  0  0
 37102  1  0  0  0
 38 43  2  0  0  0
 38 46  1  0  0  0
 38 47  1  0  0  0
 39 64  1  0  0  0
 39 67  2  0  0  0
 40 52  1  0  0  0
 40 53  2  0  0  0
 40 58  1  0  0  0
 41103  1  0  0  0
 41104  1  0  0  0
 41105  1  0  0  0
 41 48  1  0  0  0
 42 43  1  0  0  0
 42 66  1  0  0  0
 42106  1  0  0  0
 42107  1  0  0  0
 43 44  1  0  0  0
 44108  1  0  0  0
 45 46  2  0  0  0
 45109  1  0  0  0
 46110  1  0  0  0
 47111  1  0  0  0
 47112  1  0  0  0
 48 56  1  0  0  0
 48 65  1  0  0  0
 48113  1  0  0  0
 49 50  1  0  0  0
 49 53  1  0  0  0
 49 64  1  0  0  0
 49114  1  0  0  0
 50 51  1  0  0  0
 50115  1  0  0  0
 50116  1  0  0  0
 51 52  1  0  0  0
 51117  1  0  0  0
 51118  1  0  0  0
 52119  1  0  0  0
 52120  1  0  0  0
 53 54  1  0  0  0
 54 55  2  0  0  0
 54121  1  0  0  0
 55 57  1  0  0  0
 55122  1  0  0  0
 56 69  2  0  0  0
 57 58  2  0  0  0
 57123  1  0  0  0
 58124  1  0  0  0
 59 60  1  0  0  0
 59 61  1  0  0  0
 59 62  1  0  0  0
 60125  1  0  0  0
 60126  1  0  0  0
 60127  1  0  0  0
 61128  1  0  0  0
 61129  1  0  0  0
 61130  1  0  0  0
 62131  1  0  0  0
 62132  1  0  0  0
 62133  1  0  0  0
 63 65  1  0  0  0
 63134  1  0  0  0
 63135  1  0  0  0
 63136  1  0  0  0
 64137  1  0  0  0
 65138  1  0  0  0
 68 77  1  0  0  0
 71 72  1  0  0  0
 71 74  1  0  0  0
 71139  1  0  0  0
 71140  1  0  0  0
 72 79  1  0  0  0
 72141  1  0  0  0
 72142  1  0  0  0
 73 74  1  0  0  0
 73 75  1  0  0  0
 73 76  1  0  0  0
 73143  1  0  0  0
 74 78  1  0  0  0
 74144  1  0  0  0
 75 77  1  0  0  0
 75 79  1  0  0  0
 75145  1  0  0  0
 76146  1  0  0  0
 76147  1  0  0  0
 76148  1  0  0  0
 77149  1  0  0  0
 77150  1  0  0  0
 78151  1  0  0  0
 79152  1  0  0  0
 79153  1  0  0  0
M  CHG  1  79   1
M  ISO  4   1 100  68 101  77 101  78 100
M  END
> <chiral flag>
0

> <version>
0

> <s_m_source_file>
/data/baiqing/PycharmProjects/Reinvent-master-3.2/result/LINK_invent/BTK/process_docking_weight1_custom_sum_contain_oxygen_bond_distance_aromatic_linkinvent_7_9_3/rearranged_h_0105.sdf

> <i_m_source_file_index>
64

> <r_mmod_Potential_Energy-OPLS-2005>
2287.24267578125

> <r_mmod_Stretch_Energy-OPLS-2005>
1100.24816894531

> <r_mmod_Bend_Energy-OPLS-2005>
657.684631347656

> <r_mmod_Torsional_Energy-OPLS-2005>
278.056579589844

> <r_mmod_Improper_Torsional_Energy-OPLS-2005>
3.70362043380737

> <r_mmod_Van_der_Waal_Energy-OPLS-2005>
113.964263916016

> <r_mmod_Electrostatic_Energy-OPLS-2005>
-255.997940063477

> <r_mmod_Solvation_Energy-OPLS-2005>
-468.957366943359

> <b_mmod_Minimization_Converged-OPLS-2005>
0

> <r_mmod_RMS_Derivative-OPLS-2005>
2.17525410652161

$$$$
64
                    3D
 Structure written by MMmdl.
169177  0  0  1  0            999 V2000
  -30.5915  -14.7727   20.4463 C   0  0  0  0  0  0
  -30.4383  -12.4632   19.4993 C   0  0  0  0  0  0
  -29.5250  -12.5079   18.2532 C   0  0  0  0  0  0
  -28.0484  -12.3300   18.6575 C   0  0  0  0  0  0
  -27.6441  -13.2331   19.8528 C   0  0  2  0  0  0
  -28.6821  -13.1775   20.9962 C   0  0  0  0  0  0
  -25.2518  -13.8199   20.5691 C   0  0  0  0  0  0
  -24.1798  -13.0444   20.9195 C   0  0  0  0  0  0
  -24.6383  -11.6926   20.8746 C   0  0  0  0  0  0
  -23.9053  -10.4289   21.0405 C   0  0  0  0  0  0
  -24.3606   -9.4205   21.9179 C   0  0  0  0  0  0
  -23.6285   -8.2240   22.0754 C   0  0  0  0  0  0
  -22.4272   -8.0272   21.3536 C   0  0  0  0  0  0
  -21.9892   -9.0240   20.4638 C   0  0  0  0  0  0
  -22.7224  -10.2123   20.3046 C   0  0  0  0  0  0
  -21.6854   -6.0723   22.5277 C   0  0  0  0  0  0
  -21.4015   -6.5632   23.8211 C   0  0  0  0  0  0
  -21.3665   -5.6790   24.9175 C   0  0  0  0  0  0
  -21.6049   -4.3045   24.7235 C   0  0  0  0  0  0
  -21.8822   -3.8135   23.4355 C   0  0  0  0  0  0
  -21.9197   -4.6949   22.3411 C   0  0  0  0  0  0
  -22.7815  -13.5227   21.1867 C   0  0  0  0  0  0
  -22.1666   -4.2129   21.0987 F   0  0  0  0  0  0
  -21.5641   -3.4538   25.7752 F   0  0  0  0  0  0
  -29.9873  -13.5318   20.4252 N   0  0  0  0  0  0
  -26.2940  -12.9407   20.3256 N   0  0  0  0  0  0
  -25.9312  -11.6547   20.5723 N   0  0  0  0  0  0
  -22.0465  -12.8194   22.0419 N   0  0  0  0  0  0
  -25.4193  -15.1918   20.4145 N   0  0  0  0  0  0
  -31.7676  -14.8773   20.0873 O   0  0  0  0  0  0
  -21.6644   -6.8860   21.4236 O   0  0  0  0  0  0
  -22.3489  -14.5530   20.6720 O   0  0  0  0  0  0
  -24.6314  -31.8533   23.1956 C   0  0  0  0  0  0
  -25.9116  -32.4754   23.8332 C   0  0  1  0  0  0
  -27.2243  -27.2509   20.1461 C   0  0  0  0  0  0
  -25.5900  -33.8562   24.2247 N   0  0  0  0  0  0
  -23.4321  -30.4718   21.5395 C   0  0  2  0  0  0
  -24.8792  -28.9105   20.1168 C   0  0  0  0  0  0
  -22.7527  -29.4584   22.4917 C   0  0  0  0  0  0
  -18.0302  -28.1388   22.8474 C   0  0  0  0  0  0
  -24.1484  -36.7281   23.2649 C   0  0  0  0  0  0
  -25.9770  -30.7610   21.3778 C   0  0  0  0  0  0
  -26.0502  -29.3804   20.7275 C   0  0  0  0  0  0
  -27.2263  -28.5635   20.7281 C   0  0  0  0  0  0
  -26.0370  -26.8499   19.5018 C   0  0  0  0  0  0
  -24.8772  -27.6517   19.4938 C   0  0  0  0  0  0
  -23.6523  -29.7998   20.1590 C   0  0  0  0  0  0
  -25.4116  -36.3079   24.0337 C   0  0  1  0  0  0
  -20.5916  -28.3694   23.1250 C   0  0  2  0  0  0
  -20.6791  -26.9411   22.5398 C   0  0  0  0  0  0
  -19.5774  -26.6379   21.5204 C   0  0  0  0  0  0
  -18.1951  -26.7931   22.1612 C   0  0  0  0  0  0
  -19.1554  -28.8864   23.2860 C   0  0  0  0  0  0
  -18.9478  -30.1465   23.8863 C   0  0  0  0  0  0
  -17.6475  -30.6581   24.0562 C   0  0  0  0  0  0
  -25.9051  -34.9453   23.5111 C   0  0  0  0  0  0
  -16.5363  -29.9079   23.6355 C   0  0  0  0  0  0
  -16.7289  -28.6510   23.0351 C   0  0  0  0  0  0
  -26.4488  -31.6591   25.0726 C   0  0  0  0  0  0
  -25.3696  -31.3732   26.1436 C   0  0  0  0  0  0
  -27.0367  -30.3029   24.6205 C   0  0  0  0  0  0
  -27.6058  -32.4333   25.7470 C   0  0  0  0  0  0
  -27.5583  -37.1801   24.8480 C   0  0  0  0  0  0
  -21.4235  -29.3038   22.3640 N   0  0  0  0  0  0
  -26.4285  -37.3784   23.9428 N   0  0  0  0  0  0
  -24.6993  -31.0497   22.0931 N   0  0  0  0  0  0
  -23.4207  -28.8136   23.3044 O   0  0  0  0  0  0
  -28.3181  -26.3515   20.1480 O   0  0  0  0  0  0
  -26.5648  -34.8930   22.4688 O   0  0  0  0  0  0
  -23.5462  -32.1341   23.7245 O   0  0  0  0  0  0
  -30.3243  -18.9541   21.9901 C   0  0  0  0  0  0
  -29.2705  -19.9453   20.3354 C   0  0  0  0  0  0
  -29.7898  -18.6888   20.7112 C   0  0  0  0  0  0
  -30.1760  -20.2735   22.3559 C   0  0  0  0  0  0
  -33.3583  -18.1803   24.9527 C   0  0  0  0  0  0
  -30.6775  -22.2869   24.0405 C   0  0  0  0  0  0
  -27.1014  -24.9982   21.8958 C   0  0  0  0  0  0
  -29.9176  -17.2826   19.9597 C   0  0  0  0  0  0
  -32.0462  -18.9745   24.9881 C   0  0  0  0  0  0
  -32.0712  -20.1999   24.0539 C   0  0  0  0  0  0
  -28.6305  -23.5532   20.3217 C   0  0  0  0  0  0
  -29.0347  -22.4374   21.4321 C   0  0  0  0  0  0
  -30.6654  -20.7787   23.7219 C   0  0  2  0  0  0
  -28.3040  -25.0512   20.9289 C   0  0  1  0  0  0
  -29.4890  -20.9612   21.3184 N   0  0  0  0  0  0
  -29.8032  -15.9053   20.6338 N   0  0  0  0  0  0
  -31.4821  -12.5844   19.2060 H   0  0  0  0  0  0
  -30.3820  -11.4884   19.9853 H   0  0  0  0  0  0
  -29.8152  -11.7317   17.5437 H   0  0  0  0  0  0
  -29.6532  -13.4610   17.7369 H   0  0  0  0  0  0
  -27.9050  -11.2824   18.9267 H   0  0  0  0  0  0
  -27.3967  -12.5171   17.8043 H   0  0  0  0  0  0
  -27.6357  -14.2517   19.4643 H   0  0  0  0  0  0
  -28.7141  -12.1837   21.4452 H   0  0  0  0  0  0
  -28.4089  -13.8681   21.7955 H   0  0  0  0  0  0
  -25.2762   -9.5700   22.4729 H   0  0  0  0  0  0
  -24.0017   -7.4638   22.7476 H   0  0  0  0  0  0
  -21.0823   -8.8740   19.8936 H   0  0  0  0  0  0
  -22.3680  -10.9647   19.6138 H   0  0  0  0  0  0
  -21.1990   -7.6137   23.9701 H   0  0  0  0  0  0
  -21.1490   -6.0522   25.9074 H   0  0  0  0  0  0
  -22.0589   -2.7592   23.2868 H   0  0  0  0  0  0
  -22.4113  -11.9881   22.4826 H   0  0  0  0  0  0
  -21.1064  -13.1167   22.2623 H   0  0  0  0  0  0
  -24.6497  -15.8423   20.5306 H   0  0  0  0  0  0
  -26.2619  -15.6312   20.0678 H   0  0  0  0  0  0
  -26.7185  -32.5398   23.1080 H   0  0  0  0  0  0
  -25.0064  -33.9715   25.0400 H   0  0  0  0  0  0
  -22.7312  -31.2941   21.3876 H   0  0  0  0  0  0
  -23.3764  -35.9600   23.3303 H   0  0  0  0  0  0
  -24.3598  -36.8901   22.2069 H   0  0  0  0  0  0
  -23.7205  -37.6464   23.6672 H   0  0  0  0  0  0
  -26.1174  -31.5121   20.5994 H   0  0  0  0  0  0
  -26.8543  -30.8143   22.0116 H   0  0  0  0  0  0
  -28.1243  -28.9197   21.2149 H   0  0  0  0  0  0
  -26.0016  -25.8837   19.0204 H   0  0  0  0  0  0
  -23.9820  -27.2845   19.0112 H   0  0  0  0  0  0
  -23.7864  -30.5701   19.3997 H   0  0  0  0  0  0
  -22.7698  -29.2344   19.8538 H   0  0  0  0  0  0
  -25.1294  -36.1946   25.0832 H   0  0  0  0  0  0
  -21.0008  -28.3263   24.1372 H   0  0  0  0  0  0
  -20.5718  -26.2308   23.3605 H   0  0  0  0  0  0
  -21.6659  -26.7453   22.1180 H   0  0  0  0  0  0
  -19.6955  -25.6292   21.1250 H   0  0  0  0  0  0
  -19.6710  -27.3180   20.6721 H   0  0  0  0  0  0
  -17.4237  -26.6684   21.4004 H   0  0  0  0  0  0
  -18.0330  -26.0061   22.8990 H   0  0  0  0  0  0
  -19.7957  -30.7306   24.2191 H   0  0  0  0  0  0
  -17.5033  -31.6263   24.5168 H   0  0  0  0  0  0
  -15.5368  -30.2971   23.7699 H   0  0  0  0  0  0
  -15.8690  -28.0835   22.7050 H   0  0  0  0  0  0
  -24.5878  -30.7084   25.7741 H   0  0  0  0  0  0
  -24.8873  -32.2887   26.4861 H   0  0  0  0  0  0
  -25.7980  -30.8903   27.0224 H   0  0  0  0  0  0
  -26.2968  -29.6752   24.1226 H   0  0  0  0  0  0
  -27.4072  -29.7309   25.4720 H   0  0  0  0  0  0
  -27.8818  -30.4356   23.9450 H   0  0  0  0  0  0
  -27.2701  -33.3661   26.2021 H   0  0  0  0  0  0
  -28.3846  -32.6845   25.0254 H   0  0  0  0  0  0
  -28.0746  -31.8479   26.5384 H   0  0  0  0  0  0
  -28.2600  -38.0098   24.7541 H   0  0  0  0  0  0
  -28.1072  -36.2634   24.6275 H   0  0  0  0  0  0
  -27.2328  -37.1415   25.8889 H   0  0  0  0  0  0
  -20.9440  -29.8724   21.6795 H   0  0  0  0  0  0
  -26.0171  -38.2867   24.1419 H   0  0  0  0  0  0
  -30.8182  -18.2062   22.5911 H   0  0  0  0  0  0
  -28.7515  -20.2200   19.4267 H   0  0  0  0  0  0
  -33.3149  -17.3283   25.6313 H   0  0  0  0  0  0
  -34.2102  -18.7939   25.2456 H   0  0  0  0  0  0
  -33.5557  -17.7926   23.9520 H   0  0  0  0  0  0
  -29.6802  -22.7263   24.0149 H   0  0  0  0  0  0
  -31.3483  -22.8355   23.3784 H   0  0  0  0  0  0
  -31.0390  -22.4650   25.0541 H   0  0  0  0  0  0
  -27.2239  -24.2423   22.6703 H   0  0  0  0  0  0
  -26.1758  -24.7806   21.3628 H   0  0  0  0  0  0
  -26.9697  -25.9428   22.4261 H   0  0  0  0  0  0
  -30.8779  -17.3150   19.4415 H   0  0  0  0  0  0
  -29.1756  -17.2945   19.1613 H   0  0  0  0  0  0
  -31.8379  -19.3025   26.0079 H   0  0  0  0  0  0
  -31.2297  -18.3017   24.7266 H   0  0  0  0  0  0
  -32.6109  -19.9777   23.1316 H   0  0  0  0  0  0
  -32.6911  -20.9526   24.5432 H   0  0  0  0  0  0
  -27.7786  -23.2001   19.7405 H   0  0  0  0  0  0
  -29.4592  -23.6393   19.6188 H   0  0  0  0  0  0
  -28.2599  -22.4252   22.1949 H   0  0  0  0  0  0
  -29.8852  -22.9524   21.8507 H   0  0  0  0  0  0
  -29.9700  -20.3659   24.4568 H   0  0  0  0  0  0
  -29.1593  -25.2305   21.5805 H   0  0  0  0  0  0
  -28.8843  -15.7089   21.0006 H   0  0  0  0  0  0
  1 25  1  0  0  0
  1 30  2  0  0  0
  1 86  1  0  0  0
  2  3  1  0  0  0
  2 25  1  0  0  0
  2 87  1  0  0  0
  2 88  1  0  0  0
  3  4  1  0  0  0
  3 89  1  0  0  0
  3 90  1  0  0  0
  4  5  1  0  0  0
  4 91  1  0  0  0
  4 92  1  0  0  0
  5  6  1  0  0  0
  5 26  1  0  0  0
  5 93  1  0  0  0
  6 25  1  0  0  0
  6 94  1  0  0  0
  6 95  1  0  0  0
  7  8  2  0  0  0
  7 26  1  0  0  0
  7 29  1  0  0  0
  8  9  1  0  0  0
  8 22  1  0  0  0
  9 10  1  0  0  0
  9 27  2  0  0  0
 10 11  2  0  0  0
 10 15  1  0  0  0
 11 12  1  0  0  0
 11 96  1  0  0  0
 12 13  2  0  0  0
 12 97  1  0  0  0
 13 14  1  0  0  0
 13 31  1  0  0  0
 14 15  2  0  0  0
 14 98  1  0  0  0
 15 99  1  0  0  0
 16 17  2  0  0  0
 16 21  1  0  0  0
 16 31  1  0  0  0
 17 18  1  0  0  0
 17100  1  0  0  0
 18 19  2  0  0  0
 18101  1  0  0  0
 19 20  1  0  0  0
 19 24  1  0  0  0
 20 21  2  0  0  0
 20102  1  0  0  0
 21 23  1  0  0  0
 22 28  1  0  0  0
 22 32  2  0  0  0
 26 27  1  0  0  0
 28103  1  0  0  0
 28104  1  0  0  0
 29105  1  0  0  0
 29106  1  0  0  0
 33 34  1  0  0  0
 33 66  1  0  0  0
 33 70  2  0  0  0
 34 36  1  0  0  0
 34 59  1  0  0  0
 34107  1  0  0  0
 35 44  2  0  0  0
 35 45  1  0  0  0
 35 68  1  0  0  0
 36 56  1  0  0  0
 36108  1  0  0  0
 37 39  1  0  0  0
 37 47  1  0  0  0
 37 66  1  0  0  0
 37109  1  0  0  0
 38 43  2  0  0  0
 38 46  1  0  0  0
 38 47  1  0  0  0
 39 64  1  0  0  0
 39 67  2  0  0  0
 40 52  1  0  0  0
 40 53  2  0  0  0
 40 58  1  0  0  0
 41110  1  0  0  0
 41111  1  0  0  0
 41112  1  0  0  0
 41 48  1  0  0  0
 42 43  1  0  0  0
 42 66  1  0  0  0
 42113  1  0  0  0
 42114  1  0  0  0
 43 44  1  0  0  0
 44115  1  0  0  0
 45 46  2  0  0  0
 45116  1  0  0  0
 46117  1  0  0  0
 47118  1  0  0  0
 47119  1  0  0  0
 48 56  1  0  0  0
 48 65  1  0  0  0
 48120  1  0  0  0
 49 50  1  0  0  0
 49 53  1  0  0  0
 49 64  1  0  0  0
 49121  1  0  0  0
 50 51  1  0  0  0
 50122  1  0  0  0
 50123  1  0  0  0
 51 52  1  0  0  0
 51124  1  0  0  0
 51125  1  0  0  0
 52126  1  0  0  0
 52127  1  0  0  0
 53 54  1  0  0  0
 54 55  2  0  0  0
 54128  1  0  0  0
 55 57  1  0  0  0
 55129  1  0  0  0
 56 69  2  0  0  0
 57 58  2  0  0  0
 57130  1  0  0  0
 58131  1  0  0  0
 59 60  1  0  0  0
 59 61  1  0  0  0
 59 62  1  0  0  0
 60132  1  0  0  0
 60133  1  0  0  0
 60134  1  0  0  0
 61135  1  0  0  0
 61136  1  0  0  0
 61137  1  0  0  0
 62138  1  0  0  0
 62139  1  0  0  0
 62140  1  0  0  0
 63 65  1  0  0  0
 63141  1  0  0  0
 63142  1  0  0  0
 63143  1  0  0  0
 64144  1  0  0  0
 65145  1  0  0  0
 68 84  1  0  0  0
 71 73  1  0  0  0
 71 74  2  0  0  0
 71146  1  0  0  0
 72 73  2  0  0  0
 72 85  1  0  0  0
 72147  1  0  0  0
 73 78  1  0  0  0
 74 83  1  0  0  0
 74 85  1  0  0  0
 75 79  1  0  0  0
 75148  1  0  0  0
 75149  1  0  0  0
 75150  1  0  0  0
 76151  1  0  0  0
 76152  1  0  0  0
 76153  1  0  0  0
 76 83  1  0  0  0
 77154  1  0  0  0
 77155  1  0  0  0
 77156  1  0  0  0
 77 84  1  0  0  0
 78 86  1  0  0  0
 78157  1  0  0  0
 78158  1  0  0  0
 79 80  1  0  0  0
 79159  1  0  0  0
 79160  1  0  0  0
 80 83  1  0  0  0
 80161  1  0  0  0
 80162  1  0  0  0
 81 82  1  0  0  0
 81 84  1  0  0  0
 81163  1  0  0  0
 81164  1  0  0  0
 82 85  1  0  0  0
 82165  1  0  0  0
 82166  1  0  0  0
 83167  1  0  0  0
 84168  1  0  0  0
 86169  1  0  0  0
M  ISO  4   1 100  68 101  84 101  86 100
M  END
> <chiral flag>
0

> <version>
0

> <s_m_source_file>
/data/baiqing/PycharmProjects/Reinvent-master-3.2/result/LINK_invent/BTK/process_docking_weight1_custom_sum_contain_oxygen_bond_distance_aromatic_linkinvent_7_9_3/rearranged_h_0105.sdf

> <i_m_source_file_index>
65

> <r_mmod_Potential_Energy-OPLS-2005>
274.008758544922

> <r_mmod_Stretch_Energy-OPLS-2005>
146.515701293945

> <r_mmod_Bend_Energy-OPLS-2005>
259.359954833984

> <r_mmod_Torsional_Energy-OPLS-2005>
274.921569824219

> <r_mmod_Improper_Torsional_Energy-OPLS-2005>
7.62637329101562

> <r_mmod_Van_der_Waal_Energy-OPLS-2005>
129.180908203125

> <r_mmod_Electrostatic_Energy-OPLS-2005>
-431.990356445312

> <r_mmod_Solvation_Energy-OPLS-2005>
-205.586212158203

> <b_mmod_Minimization_Converged-OPLS-2005>
0

> <r_mmod_RMS_Derivative-OPLS-2005>
2.57236814498901

$$$$
65
                    3D
 Structure written by MMmdl.
162169  0  0  1  0            999 V2000
  -30.6401  -14.6772   20.4624 C   0  0  0  0  0  0
  -30.4281  -12.4136   19.4490 C   0  0  0  0  0  0
  -29.4968  -12.4835   18.2172 C   0  0  0  0  0  0
  -28.0192  -12.3357   18.6324 C   0  0  0  0  0  0
  -27.6414  -13.2265   19.8454 C   0  0  2  0  0  0
  -28.6934  -13.1298   20.9727 C   0  0  0  0  0  0
  -25.2498  -13.8169   20.5630 C   0  0  0  0  0  0
  -24.1785  -13.0430   20.9194 C   0  0  0  0  0  0
  -24.6375  -11.6914   20.8779 C   0  0  0  0  0  0
  -23.9047  -10.4287   21.0426 C   0  0  0  0  0  0
  -24.3603   -9.4197   21.9195 C   0  0  0  0  0  0
  -23.6285   -8.2227   22.0749 C   0  0  0  0  0  0
  -22.4265   -8.0262   21.3543 C   0  0  0  0  0  0
  -21.9907   -9.0232   20.4640 C   0  0  0  0  0  0
  -22.7226  -10.2123   20.3056 C   0  0  0  0  0  0
  -21.6861   -6.0722   22.5278 C   0  0  0  0  0  0
  -21.4014   -6.5627   23.8206 C   0  0  0  0  0  0
  -21.3666   -5.6791   24.9182 C   0  0  0  0  0  0
  -21.6049   -4.3046   24.7244 C   0  0  0  0  0  0
  -21.8813   -3.8127   23.4364 C   0  0  0  0  0  0
  -21.9178   -4.6944   22.3414 C   0  0  0  0  0  0
  -22.7808  -13.5239   21.1877 C   0  0  0  0  0  0
  -22.1645   -4.2125   21.0994 F   0  0  0  0  0  0
  -21.5654   -3.4529   25.7757 F   0  0  0  0  0  0
  -29.9975  -13.4670   20.3879 N   0  0  0  0  0  0
  -26.2936  -12.9386   20.3263 N   0  0  0  0  0  0
  -25.9312  -11.6538   20.5789 N   0  0  0  0  0  0
  -22.0443  -12.8213   22.0425 N   0  0  0  0  0  0
  -25.4161  -15.1884   20.3946 N   0  0  0  0  0  0
  -31.8312  -14.7799   20.1573 O   0  0  0  0  0  0
  -21.6639   -6.8859   21.4231 O   0  0  0  0  0  0
  -22.3489  -14.5543   20.6724 O   0  0  0  0  0  0
  -24.6281  -31.8563   23.1959 C   0  0  0  0  0  0
  -25.9112  -32.4767   23.8320 C   0  0  1  0  0  0
  -27.2381  -27.3001   20.1230 C   0  0  0  0  0  0
  -25.5900  -33.8560   24.2253 N   0  0  0  0  0  0
  -23.4240  -30.4758   21.5401 C   0  0  2  0  0  0
  -24.8749  -28.9156   20.1199 C   0  0  0  0  0  0
  -22.7477  -29.4628   22.4941 C   0  0  0  0  0  0
  -18.0302  -28.1361   22.8511 C   0  0  0  0  0  0
  -24.1488  -36.7293   23.2638 C   0  0  0  0  0  0
  -25.9673  -30.7824   21.3670 C   0  0  0  0  0  0
  -26.0445  -29.4034   20.7168 C   0  0  0  0  0  0
  -27.2320  -28.6094   20.7000 C   0  0  0  0  0  0
  -26.0457  -26.8575   19.5162 C   0  0  0  0  0  0
  -24.8774  -27.6475   19.5105 C   0  0  0  0  0  0
  -23.6432  -29.7996   20.1604 C   0  0  0  0  0  0
  -25.4112  -36.3066   24.0327 C   0  0  1  0  0  0
  -20.5899  -28.3714   23.1343 C   0  0  2  0  0  0
  -20.6791  -26.9441   22.5462 C   0  0  0  0  0  0
  -19.5785  -26.6420   21.5234 C   0  0  0  0  0  0
  -18.1974  -26.7902   22.1660 C   0  0  0  0  0  0
  -19.1539  -28.8854   23.2913 C   0  0  0  0  0  0
  -18.9439  -30.1478   23.8879 C   0  0  0  0  0  0
  -17.6424  -30.6600   24.0482 C   0  0  0  0  0  0
  -25.9061  -34.9439   23.5095 C   0  0  0  0  0  0
  -16.5341  -29.9086   23.6201 C   0  0  0  0  0  0
  -16.7290  -28.6493   23.0283 C   0  0  0  0  0  0
  -26.4484  -31.6581   25.0702 C   0  0  0  0  0  0
  -25.3725  -31.3710   26.1431 C   0  0  0  0  0  0
  -27.0325  -30.3007   24.6158 C   0  0  0  0  0  0
  -27.6045  -32.4317   25.7479 C   0  0  0  0  0  0
  -27.5572  -37.1798   24.8463 C   0  0  0  0  0  0
  -21.4183  -29.3051   22.3714 N   0  0  0  0  0  0
  -26.4286  -37.3765   23.9407 N   0  0  0  0  0  0
  -24.6932  -31.0558   22.0925 N   0  0  0  0  0  0
  -23.4199  -28.8173   23.3028 O   0  0  0  0  0  0
  -28.3682  -26.4662   20.0818 O   0  0  0  0  0  0
  -26.5640  -34.8912   22.4673 O   0  0  0  0  0  0
  -23.5435  -32.1362   23.7278 O   0  0  0  0  0  0
  -29.7411  -19.9451   20.6683 C   0  0  0  0  0  0
  -28.1883  -18.3288   22.8018 C   0  0  0  0  0  0
  -26.6728  -18.9382   20.8908 C   0  0  0  0  0  0
  -28.9056  -18.2914   18.9036 C   0  0  0  0  0  0
  -28.6918  -23.7560   19.9158 C   0  0  0  0  0  0
  -29.0972  -22.4707   20.8018 C   0  0  0  0  0  0
  -30.3087  -17.2589   20.7231 C   0  0  0  0  0  0
  -28.3139  -25.1119   20.7003 C   0  0  0  0  0  0
  -27.9492  -18.1588   21.2831 C   0  0  0  0  0  0
  -29.2291  -18.4353   20.4087 C   0  0  1  0  0  0
  -29.0352  -21.0558   20.2413 N   0  0  0  0  0  0
  -29.8753  -15.7970   20.6825 N   0  0  0  0  0  0
  -30.7758  -20.1023   21.3175 O   0  0  0  0  0  0
  -31.4671  -12.5387   19.1391 H   0  0  0  0  0  0
  -30.3733  -11.4349   19.9275 H   0  0  0  0  0  0
  -29.7569  -11.6958   17.5078 H   0  0  0  0  0  0
  -29.6410  -13.4306   17.6940 H   0  0  0  0  0  0
  -27.8504  -11.2870   18.8785 H   0  0  0  0  0  0
  -27.3679  -12.5592   17.7863 H   0  0  0  0  0  0
  -27.6419  -14.2519   19.4751 H   0  0  0  0  0  0
  -28.7180  -12.1232   21.3909 H   0  0  0  0  0  0
  -28.4447  -13.8029   21.7946 H   0  0  0  0  0  0
  -25.2745   -9.5674   22.4786 H   0  0  0  0  0  0
  -24.0000   -7.4618   22.7462 H   0  0  0  0  0  0
  -21.0846   -8.8734   19.8943 H   0  0  0  0  0  0
  -22.3660  -10.9663   19.6169 H   0  0  0  0  0  0
  -21.1987   -7.6129   23.9713 H   0  0  0  0  0  0
  -21.1523   -6.0523   25.9096 H   0  0  0  0  0  0
  -22.0586   -2.7581   23.2872 H   0  0  0  0  0  0
  -22.4085  -11.9880   22.4810 H   0  0  0  0  0  0
  -21.1052  -13.1223   22.2670 H   0  0  0  0  0  0
  -24.6308  -15.8264   20.4575 H   0  0  0  0  0  0
  -26.2416  -15.6137   19.9965 H   0  0  0  0  0  0
  -26.7195  -32.5442   23.1080 H   0  0  0  0  0  0
  -24.9999  -33.9699   25.0363 H   0  0  0  0  0  0
  -22.7201  -31.2965   21.3883 H   0  0  0  0  0  0
  -23.3737  -35.9636   23.3306 H   0  0  0  0  0  0
  -24.3577  -36.8917   22.2050 H   0  0  0  0  0  0
  -23.7263  -37.6504   23.6674 H   0  0  0  0  0  0
  -26.0950  -31.5413   20.5925 H   0  0  0  0  0  0
  -26.8481  -30.8396   21.9954 H   0  0  0  0  0  0
  -28.1374  -28.9885   21.1518 H   0  0  0  0  0  0
  -26.0189  -25.8859   19.0435 H   0  0  0  0  0  0
  -23.9803  -27.2696   19.0379 H   0  0  0  0  0  0
  -23.7619  -30.5699   19.3975 H   0  0  0  0  0  0
  -22.7652  -29.2260   19.8605 H   0  0  0  0  0  0
  -25.1295  -36.1910   25.0822 H   0  0  0  0  0  0
  -21.0013  -28.3286   24.1464 H   0  0  0  0  0  0
  -20.5682  -26.2349   23.3666 H   0  0  0  0  0  0
  -21.6668  -26.7472   22.1263 H   0  0  0  0  0  0
  -19.7037  -25.6348   21.1220 H   0  0  0  0  0  0
  -19.6680  -27.3283   20.6804 H   0  0  0  0  0  0
  -17.4230  -26.6588   21.4099 H   0  0  0  0  0  0
  -18.0444  -26.0034   22.9051 H   0  0  0  0  0  0
  -19.7908  -30.7302   24.2257 H   0  0  0  0  0  0
  -17.4925  -31.6303   24.4994 H   0  0  0  0  0  0
  -15.5332  -30.2991   23.7399 H   0  0  0  0  0  0
  -15.8706  -28.0812   22.6968 H   0  0  0  0  0  0
  -24.5906  -30.7053   25.7756 H   0  0  0  0  0  0
  -24.8898  -32.2865   26.4865 H   0  0  0  0  0  0
  -25.8044  -30.8881   27.0209 H   0  0  0  0  0  0
  -26.2891  -29.6771   24.1181 H   0  0  0  0  0  0
  -27.4026  -29.7244   25.4649 H   0  0  0  0  0  0
  -27.8758  -30.4289   23.9370 H   0  0  0  0  0  0
  -27.2658  -33.3622   26.2046 H   0  0  0  0  0  0
  -28.3854  -32.6877   25.0308 H   0  0  0  0  0  0
  -28.0719  -31.8456   26.5402 H   0  0  0  0  0  0
  -28.2587  -38.0096   24.7496 H   0  0  0  0  0  0
  -28.1069  -36.2624   24.6303 H   0  0  0  0  0  0
  -27.2292  -37.1464   25.8867 H   0  0  0  0  0  0
  -20.9356  -29.8712   21.6881 H   0  0  0  0  0  0
  -26.0161  -38.2839   24.1406 H   0  0  0  0  0  0
  -27.3294  -17.9807   23.3758 H   0  0  0  0  0  0
  -28.3500  -19.3738   23.0710 H   0  0  0  0  0  0
  -29.0496  -17.7597   23.1495 H   0  0  0  0  0  0
  -25.8218  -18.5943   21.4798 H   0  0  0  0  0  0
  -26.3969  -18.7861   19.8482 H   0  0  0  0  0  0
  -26.7594  -20.0082   21.0684 H   0  0  0  0  0  0
  -29.8102  -18.3807   18.3003 H   0  0  0  0  0  0
  -28.2156  -19.0541   18.5447 H   0  0  0  0  0  0
  -28.4624  -17.3213   18.6790 H   0  0  0  0  0  0
  -27.8558  -23.4923   19.2686 H   0  0  0  0  0  0
  -29.5209  -23.9713   19.2417 H   0  0  0  0  0  0
  -28.4450  -22.4648   21.6762 H   0  0  0  0  0  0
  -30.0974  -22.6434   21.2026 H   0  0  0  0  0  0
  -30.7499  -17.4291   21.7053 H   0  0  0  0  0  0
  -31.1462  -17.3678   20.0310 H   0  0  0  0  0  0
  -29.0078  -25.1800   21.5369 H   0  0  0  0  0  0
  -27.3410  -24.9665   21.1702 H   0  0  0  0  0  0
  -27.6809  -17.1127   21.1381 H   0  0  0  0  0  0
  -28.2297  -20.8479   19.6639 H   0  0  0  0  0  0
  -28.8947  -15.6224   20.8332 H   0  0  0  0  0  0
  1 25  1  0  0  0
  1 30  2  0  0  0
  1 82  1  0  0  0
  2  3  1  0  0  0
  2 25  1  0  0  0
  2 84  1  0  0  0
  2 85  1  0  0  0
  3  4  1  0  0  0
  3 86  1  0  0  0
  3 87  1  0  0  0
  4  5  1  0  0  0
  4 88  1  0  0  0
  4 89  1  0  0  0
  5  6  1  0  0  0
  5 26  1  0  0  0
  5 90  1  0  0  0
  6 25  1  0  0  0
  6 91  1  0  0  0
  6 92  1  0  0  0
  7  8  2  0  0  0
  7 26  1  0  0  0
  7 29  1  0  0  0
  8  9  1  0  0  0
  8 22  1  0  0  0
  9 10  1  0  0  0
  9 27  2  0  0  0
 10 11  2  0  0  0
 10 15  1  0  0  0
 11 12  1  0  0  0
 11 93  1  0  0  0
 12 13  2  0  0  0
 12 94  1  0  0  0
 13 14  1  0  0  0
 13 31  1  0  0  0
 14 15  2  0  0  0
 14 95  1  0  0  0
 15 96  1  0  0  0
 16 17  2  0  0  0
 16 21  1  0  0  0
 16 31  1  0  0  0
 17 18  1  0  0  0
 17 97  1  0  0  0
 18 19  2  0  0  0
 18 98  1  0  0  0
 19 20  1  0  0  0
 19 24  1  0  0  0
 20 21  2  0  0  0
 20 99  1  0  0  0
 21 23  1  0  0  0
 22 28  1  0  0  0
 22 32  2  0  0  0
 26 27  1  0  0  0
 28100  1  0  0  0
 28101  1  0  0  0
 29102  1  0  0  0
 29103  1  0  0  0
 33 34  1  0  0  0
 33 66  1  0  0  0
 33 70  2  0  0  0
 34 36  1  0  0  0
 34 59  1  0  0  0
 34104  1  0  0  0
 35 44  2  0  0  0
 35 45  1  0  0  0
 35 68  1  0  0  0
 36 56  1  0  0  0
 36105  1  0  0  0
 37 39  1  0  0  0
 37 47  1  0  0  0
 37 66  1  0  0  0
 37106  1  0  0  0
 38 43  2  0  0  0
 38 46  1  0  0  0
 38 47  1  0  0  0
 39 64  1  0  0  0
 39 67  2  0  0  0
 40 52  1  0  0  0
 40 53  2  0  0  0
 40 58  1  0  0  0
 41107  1  0  0  0
 41108  1  0  0  0
 41109  1  0  0  0
 41 48  1  0  0  0
 42 43  1  0  0  0
 42 66  1  0  0  0
 42110  1  0  0  0
 42111  1  0  0  0
 43 44  1  0  0  0
 44112  1  0  0  0
 45 46  2  0  0  0
 45113  1  0  0  0
 46114  1  0  0  0
 47115  1  0  0  0
 47116  1  0  0  0
 48 56  1  0  0  0
 48 65  1  0  0  0
 48117  1  0  0  0
 49 50  1  0  0  0
 49 53  1  0  0  0
 49 64  1  0  0  0
 49118  1  0  0  0
 50 51  1  0  0  0
 50119  1  0  0  0
 50120  1  0  0  0
 51 52  1  0  0  0
 51121  1  0  0  0
 51122  1  0  0  0
 52123  1  0  0  0
 52124  1  0  0  0
 53 54  1  0  0  0
 54 55  2  0  0  0
 54125  1  0  0  0
 55 57  1  0  0  0
 55126  1  0  0  0
 56 69  2  0  0  0
 57 58  2  0  0  0
 57127  1  0  0  0
 58128  1  0  0  0
 59 60  1  0  0  0
 59 61  1  0  0  0
 59 62  1  0  0  0
 60129  1  0  0  0
 60130  1  0  0  0
 60131  1  0  0  0
 61132  1  0  0  0
 61133  1  0  0  0
 61134  1  0  0  0
 62135  1  0  0  0
 62136  1  0  0  0
 62137  1  0  0  0
 63 65  1  0  0  0
 63138  1  0  0  0
 63139  1  0  0  0
 63140  1  0  0  0
 64141  1  0  0  0
 65142  1  0  0  0
 68 78  1  0  0  0
 71 81  1  0  0  0
 71 83  2  0  0  0
 71 80  1  0  0  0
 72143  1  0  0  0
 72144  1  0  0  0
 72145  1  0  0  0
 72 79  1  0  0  0
 73 79  1  0  0  0
 73146  1  0  0  0
 73147  1  0  0  0
 73148  1  0  0  0
 74149  1  0  0  0
 74150  1  0  0  0
 74151  1  0  0  0
 74 80  1  0  0  0
 75 76  1  0  0  0
 75 78  1  0  0  0
 75152  1  0  0  0
 75153  1  0  0  0
 76 81  1  0  0  0
 76154  1  0  0  0
 76155  1  0  0  0
 77 80  1  0  0  0
 77 82  1  0  0  0
 77156  1  0  0  0
 77157  1  0  0  0
 78158  1  0  0  0
 78159  1  0  0  0
 79 80  1  0  0  0
 79160  1  0  0  0
 81161  1  0  0  0
 82162  1  0  0  0
M  ISO  4   1 100  68 101  78 101  82 100
M  END
> <chiral flag>
0

> <version>
0

> <s_m_source_file>
/data/baiqing/PycharmProjects/Reinvent-master-3.2/result/LINK_invent/BTK/process_docking_weight1_custom_sum_contain_oxygen_bond_distance_aromatic_linkinvent_7_9_3/rearranged_h_0105.sdf

> <i_m_source_file_index>
66

> <r_mmod_Potential_Energy-OPLS-2005>
105.001625061035

> <r_mmod_Stretch_Energy-OPLS-2005>
112.3310546875

> <r_mmod_Bend_Energy-OPLS-2005>
160.682250976562

> <r_mmod_Torsional_Energy-OPLS-2005>
254.946746826172

> <r_mmod_Improper_Torsional_Energy-OPLS-2005>
5.69798231124878

> <r_mmod_Van_der_Waal_Energy-OPLS-2005>
118.808731079102

> <r_mmod_Electrostatic_Energy-OPLS-2005>
-381.060455322266

> <r_mmod_Solvation_Energy-OPLS-2005>
-225.151641845703

> <b_mmod_Minimization_Converged-OPLS-2005>
0

> <r_mmod_RMS_Derivative-OPLS-2005>
3.78974914550781

$$$$
66
                    3D
 Structure written by MMmdl.
164171  0  0  1  0            999 V2000
  -30.5314  -14.9366   20.4173 C   0  0  0  0  0  0
  -30.4470  -12.5830   19.4907 C   0  0  0  0  0  0
  -29.5250  -12.5273   18.2520 C   0  0  0  0  0  0
  -28.0543  -12.3226   18.6677 C   0  0  0  0  0  0
  -27.6301  -13.2454   19.8414 C   0  0  2  0  0  0
  -28.6762  -13.2521   20.9747 C   0  0  0  0  0  0
  -25.2461  -13.8208   20.5728 C   0  0  0  0  0  0
  -24.1774  -13.0435   20.9235 C   0  0  0  0  0  0
  -24.6367  -11.6910   20.8737 C   0  0  0  0  0  0
  -23.9035  -10.4292   21.0398 C   0  0  0  0  0  0
  -24.3590   -9.4219   21.9176 C   0  0  0  0  0  0
  -23.6270   -8.2255   22.0747 C   0  0  0  0  0  0
  -22.4262   -8.0277   21.3537 C   0  0  0  0  0  0
  -21.9882   -9.0245   20.4648 C   0  0  0  0  0  0
  -22.7204  -10.2125   20.3055 C   0  0  0  0  0  0
  -21.6859   -6.0727   22.5269 C   0  0  0  0  0  0
  -21.4018   -6.5621   23.8209 C   0  0  0  0  0  0
  -21.3664   -5.6769   24.9169 C   0  0  0  0  0  0
  -21.6047   -4.3034   24.7220 C   0  0  0  0  0  0
  -21.8819   -3.8128   23.4340 C   0  0  0  0  0  0
  -21.9198   -4.6948   22.3398 C   0  0  0  0  0  0
  -22.7795  -13.5225   21.1884 C   0  0  0  0  0  0
  -22.1662   -4.2132   21.0977 F   0  0  0  0  0  0
  -21.5636   -3.4519   25.7733 F   0  0  0  0  0  0
  -29.9469  -13.6729   20.3731 N   0  0  0  0  0  0
  -26.2883  -12.9425   20.3254 N   0  0  0  0  0  0
  -25.9297  -11.6557   20.5715 N   0  0  0  0  0  0
  -22.0395  -12.8258   22.0447 N   0  0  0  0  0  0
  -25.4089  -15.1948   20.4160 N   0  0  0  0  0  0
  -31.7375  -15.0136   20.1660 O   0  0  0  0  0  0
  -21.6635   -6.8870   21.4236 O   0  0  0  0  0  0
  -22.3503  -14.5534   20.6701 O   0  0  0  0  0  0
  -24.6453  -31.8418   23.1849 C   0  0  0  0  0  0
  -25.9222  -32.4677   23.8239 C   0  0  1  0  0  0
  -27.2123  -27.1326   20.1301 C   0  0  0  0  0  0
  -25.5956  -33.8480   24.2154 N   0  0  0  0  0  0
  -23.4476  -30.4657   21.5284 C   0  0  2  0  0  0
  -24.8936  -28.8916   20.0987 C   0  0  0  0  0  0
  -22.7581  -29.4563   22.4812 C   0  0  0  0  0  0
  -18.0349  -28.1366   22.8485 C   0  0  0  0  0  0
  -24.1499  -36.7240   23.2635 C   0  0  0  0  0  0
  -26.0040  -30.7119   21.3864 C   0  0  0  0  0  0
  -26.0693  -29.3247   20.7235 C   0  0  0  0  0  0
  -27.2237  -28.4566   20.7289 C   0  0  0  0  0  0
  -26.0175  -26.8098   19.4516 C   0  0  0  0  0  0
  -24.8813  -27.6481   19.4491 C   0  0  0  0  0  0
  -23.6726  -29.7967   20.1461 C   0  0  0  0  0  0
  -25.4138  -36.3004   24.0300 C   0  0  1  0  0  0
  -20.5949  -28.3749   23.1233 C   0  0  2  0  0  0
  -20.6831  -26.9435   22.5445 C   0  0  0  0  0  0
  -19.5842  -26.6364   21.5226 C   0  0  0  0  0  0
  -18.2028  -26.7895   22.1648 C   0  0  0  0  0  0
  -19.1586  -28.8877   23.2848 C   0  0  0  0  0  0
  -18.9480  -30.1487   23.8837 C   0  0  0  0  0  0
  -17.6470  -30.6588   24.0506 C   0  0  0  0  0  0
  -25.9078  -34.9393   23.5034 C   0  0  0  0  0  0
  -16.5383  -29.9055   23.6297 C   0  0  0  0  0  0
  -16.7316  -28.6468   23.0342 C   0  0  0  0  0  0
  -26.4537  -31.6560   25.0691 C   0  0  0  0  0  0
  -25.3726  -31.3706   26.1380 C   0  0  0  0  0  0
  -27.0390  -30.2962   24.6282 C   0  0  0  0  0  0
  -27.6091  -32.4317   25.7458 C   0  0  0  0  0  0
  -27.5584  -37.1784   24.8468 C   0  0  0  0  0  0
  -21.4268  -29.3085   22.3591 N   0  0  0  0  0  0
  -26.4298  -37.3729   23.9398 N   0  0  0  0  0  0
  -24.7185  -31.0290   22.0870 N   0  0  0  0  0  0
  -23.4251  -28.8096   23.2926 O   0  0  0  0  0  0
  -28.2723  -26.1592   20.2438 O   0  0  0  0  0  0
  -26.5669  -34.8893   22.4613 O   0  0  0  0  0  0
  -23.5570  -32.1289   23.7065 O   0  0  0  0  0  0
  -26.6630  -24.2008   22.3408 C   0  0  0  0  0  0
  -26.8026  -21.7535   22.1868 C   0  0  0  0  0  0
  -25.7122  -23.0153   20.3598 C   0  0  0  0  0  0
  -30.0973  -20.7349   21.7748 C   0  0  0  0  0  0
  -30.1020  -17.6531   20.5457 C   0  0  0  0  0  0
  -29.0430  -18.9540   20.2956 C   0  0  0  0  0  0
  -28.7028  -21.7272   19.8424 C   0  0  0  0  0  0
  -28.2801  -24.6732   19.7479 C   0  0  0  0  0  0
  -28.2923  -23.2022   20.6048 C   0  0  1  0  0  0
  -26.9013  -23.0442   21.3475 C   0  0  0  0  0  0
  -29.7386  -16.1102   20.5333 N   0  0  0  0  0  0
  -29.4898  -20.4751   20.4531 N   0  3  1  0  0  0
  -31.4779  -12.7575   19.1768 H   0  0  0  0  0  0
  -30.4517  -11.6281   20.0198 H   0  0  0  0  0  0
  -29.8425  -11.7256   17.5845 H   0  0  0  0  0  0
  -29.6202  -13.4546   17.6834 H   0  0  0  0  0  0
  -27.9446  -11.2785   18.9648 H   0  0  0  0  0  0
  -27.3947  -12.4679   17.8113 H   0  0  0  0  0  0
  -27.6003  -14.2542   19.4283 H   0  0  0  0  0  0
  -28.7690  -12.2636   21.4276 H   0  0  0  0  0  0
  -28.3832  -13.9320   21.7758 H   0  0  0  0  0  0
  -25.2721   -9.5721   22.4773 H   0  0  0  0  0  0
  -23.9985   -7.4655   22.7464 H   0  0  0  0  0  0
  -21.0813   -8.8741   19.8960 H   0  0  0  0  0  0
  -22.3630  -10.9655   19.6178 H   0  0  0  0  0  0
  -21.1997   -7.6123   23.9713 H   0  0  0  0  0  0
  -21.1501   -6.0495   25.9080 H   0  0  0  0  0  0
  -22.0595   -2.7589   23.2832 H   0  0  0  0  0  0
  -22.3939  -11.9933   22.4910 H   0  0  0  0  0  0
  -21.1006  -13.1317   22.2579 H   0  0  0  0  0  0
  -24.6234  -15.8296   20.5175 H   0  0  0  0  0  0
  -26.2335  -15.6414   20.0341 H   0  0  0  0  0  0
  -26.7300  -32.5290   23.0977 H   0  0  0  0  0  0
  -25.0088  -33.9586   25.0300 H   0  0  0  0  0  0
  -22.7499  -31.2912   21.3737 H   0  0  0  0  0  0
  -23.3760  -35.9569   23.3286 H   0  0  0  0  0  0
  -24.3575  -36.8888   22.2043 H   0  0  0  0  0  0
  -23.7254  -37.6433   23.6691 H   0  0  0  0  0  0
  -26.1669  -31.4709   20.6190 H   0  0  0  0  0  0
  -26.8709  -30.7549   22.0329 H   0  0  0  0  0  0
  -28.1159  -28.7763   21.2489 H   0  0  0  0  0  0
  -25.9240  -25.8751   18.9272 H   0  0  0  0  0  0
  -23.9875  -27.3171   18.9368 H   0  0  0  0  0  0
  -23.8026  -30.5704   19.3874 H   0  0  0  0  0  0
  -22.7858  -29.2381   19.8415 H   0  0  0  0  0  0
  -25.1336  -36.1812   25.0793 H   0  0  0  0  0  0
  -21.0073  -28.3341   24.1342 H   0  0  0  0  0  0
  -20.5652  -26.2385   23.3689 H   0  0  0  0  0  0
  -21.6730  -26.7394   22.1327 H   0  0  0  0  0  0
  -19.7021  -25.6253   21.1299 H   0  0  0  0  0  0
  -19.6770  -27.3158   20.6734 H   0  0  0  0  0  0
  -17.4281  -26.6579   21.4076 H   0  0  0  0  0  0
  -18.0481  -26.0044   22.9057 H   0  0  0  0  0  0
  -19.7959  -30.7339   24.2151 H   0  0  0  0  0  0
  -17.5022  -31.6294   24.5067 H   0  0  0  0  0  0
  -15.5374  -30.2943   23.7602 H   0  0  0  0  0  0
  -15.8737  -28.0765   22.7036 H   0  0  0  0  0  0
  -24.5956  -30.7004   25.7683 H   0  0  0  0  0  0
  -24.8849  -32.2850   26.4774 H   0  0  0  0  0  0
  -25.8031  -30.8902   27.0181 H   0  0  0  0  0  0
  -26.2982  -29.6685   24.1312 H   0  0  0  0  0  0
  -27.4012  -29.7276   25.4858 H   0  0  0  0  0  0
  -27.8897  -30.4186   23.9573 H   0  0  0  0  0  0
  -27.2731  -33.3659   26.1976 H   0  0  0  0  0  0
  -28.3927  -32.6818   25.0290 H   0  0  0  0  0  0
  -28.0741  -31.8470   26.5408 H   0  0  0  0  0  0
  -28.2594  -38.0088   24.7520 H   0  0  0  0  0  0
  -28.1094  -36.2622   24.6311 H   0  0  0  0  0  0
  -27.2293  -37.1434   25.8866 H   0  0  0  0  0  0
  -20.9422  -29.8895   21.6901 H   0  0  0  0  0  0
  -26.0150  -38.2786   24.1434 H   0  0  0  0  0  0
  -25.7387  -24.0504   22.9003 H   0  0  0  0  0  0
  -26.5595  -25.1634   21.8464 H   0  0  0  0  0  0
  -27.4691  -24.2846   23.0687 H   0  0  0  0  0  0
  -25.8534  -21.7063   22.7250 H   0  0  0  0  0  0
  -27.5759  -21.7104   22.9488 H   0  0  0  0  0  0
  -26.8466  -20.8497   21.5788 H   0  0  0  0  0  0
  -24.7622  -22.8852   20.8830 H   0  0  0  0  0  0
  -25.7851  -22.2029   19.6392 H   0  0  0  0  0  0
  -25.6156  -23.9392   19.7989 H   0  0  0  0  0  0
  -30.9078  -20.0335   21.9707 H   0  0  0  0  0  0
  -29.3744  -20.6194   22.5762 H   0  0  0  0  0  0
  -30.5330  -21.7310   21.8309 H   0  0  0  0  0  0
  -30.5554  -17.8043   21.5227 H   0  0  0  0  0  0
  -30.9226  -17.7749   19.8386 H   0  0  0  0  0  0
  -28.1919  -18.8203   20.9627 H   0  0  0  0  0  0
  -28.6355  -18.8537   19.2881 H   0  0  0  0  0  0
  -29.3478  -22.0240   19.0150 H   0  0  0  0  0  0
  -27.8239  -21.3336   19.3339 H   0  0  0  0  0  0
  -27.5752  -24.5695   18.9277 H   0  0  0  0  0  0
  -29.2349  -24.6431   19.2215 H   0  0  0  0  0  0
  -29.0615  -23.3571   21.3612 H   0  0  0  0  0  0
  -28.7614  -15.9149   20.6843 H   0  0  0  0  0  0
  -30.3022  -20.4909   19.8521 H   0  0  0  0  0  0
  1 25  1  0  0  0
  1 30  2  0  0  0
  1 81  1  0  0  0
  2  3  1  0  0  0
  2 25  1  0  0  0
  2 83  1  0  0  0
  2 84  1  0  0  0
  3  4  1  0  0  0
  3 85  1  0  0  0
  3 86  1  0  0  0
  4  5  1  0  0  0
  4 87  1  0  0  0
  4 88  1  0  0  0
  5  6  1  0  0  0
  5 26  1  0  0  0
  5 89  1  0  0  0
  6 25  1  0  0  0
  6 90  1  0  0  0
  6 91  1  0  0  0
  7  8  2  0  0  0
  7 26  1  0  0  0
  7 29  1  0  0  0
  8  9  1  0  0  0
  8 22  1  0  0  0
  9 10  1  0  0  0
  9 27  2  0  0  0
 10 11  2  0  0  0
 10 15  1  0  0  0
 11 12  1  0  0  0
 11 92  1  0  0  0
 12 13  2  0  0  0
 12 93  1  0  0  0
 13 14  1  0  0  0
 13 31  1  0  0  0
 14 15  2  0  0  0
 14 94  1  0  0  0
 15 95  1  0  0  0
 16 17  2  0  0  0
 16 21  1  0  0  0
 16 31  1  0  0  0
 17 18  1  0  0  0
 17 96  1  0  0  0
 18 19  2  0  0  0
 18 97  1  0  0  0
 19 20  1  0  0  0
 19 24  1  0  0  0
 20 21  2  0  0  0
 20 98  1  0  0  0
 21 23  1  0  0  0
 22 28  1  0  0  0
 22 32  2  0  0  0
 26 27  1  0  0  0
 28 99  1  0  0  0
 28100  1  0  0  0
 29101  1  0  0  0
 29102  1  0  0  0
 33 34  1  0  0  0
 33 66  1  0  0  0
 33 70  2  0  0  0
 34 36  1  0  0  0
 34 59  1  0  0  0
 34103  1  0  0  0
 35 44  2  0  0  0
 35 45  1  0  0  0
 35 68  1  0  0  0
 36 56  1  0  0  0
 36104  1  0  0  0
 37 39  1  0  0  0
 37 47  1  0  0  0
 37 66  1  0  0  0
 37105  1  0  0  0
 38 43  2  0  0  0
 38 46  1  0  0  0
 38 47  1  0  0  0
 39 64  1  0  0  0
 39 67  2  0  0  0
 40 52  1  0  0  0
 40 53  2  0  0  0
 40 58  1  0  0  0
 41106  1  0  0  0
 41107  1  0  0  0
 41108  1  0  0  0
 41 48  1  0  0  0
 42 43  1  0  0  0
 42 66  1  0  0  0
 42109  1  0  0  0
 42110  1  0  0  0
 43 44  1  0  0  0
 44111  1  0  0  0
 45 46  2  0  0  0
 45112  1  0  0  0
 46113  1  0  0  0
 47114  1  0  0  0
 47115  1  0  0  0
 48 56  1  0  0  0
 48 65  1  0  0  0
 48116  1  0  0  0
 49 50  1  0  0  0
 49 53  1  0  0  0
 49 64  1  0  0  0
 49117  1  0  0  0
 50 51  1  0  0  0
 50118  1  0  0  0
 50119  1  0  0  0
 51 52  1  0  0  0
 51120  1  0  0  0
 51121  1  0  0  0
 52122  1  0  0  0
 52123  1  0  0  0
 53 54  1  0  0  0
 54 55  2  0  0  0
 54124  1  0  0  0
 55 57  1  0  0  0
 55125  1  0  0  0
 56 69  2  0  0  0
 57 58  2  0  0  0
 57126  1  0  0  0
 58127  1  0  0  0
 59 60  1  0  0  0
 59 61  1  0  0  0
 59 62  1  0  0  0
 60128  1  0  0  0
 60129  1  0  0  0
 60130  1  0  0  0
 61131  1  0  0  0
 61132  1  0  0  0
 61133  1  0  0  0
 62134  1  0  0  0
 62135  1  0  0  0
 62136  1  0  0  0
 63 65  1  0  0  0
 63137  1  0  0  0
 63138  1  0  0  0
 63139  1  0  0  0
 64140  1  0  0  0
 65141  1  0  0  0
 68 78  1  0  0  0
 71142  1  0  0  0
 71143  1  0  0  0
 71144  1  0  0  0
 71 80  1  0  0  0
 72 80  1  0  0  0
 72145  1  0  0  0
 72146  1  0  0  0
 72147  1  0  0  0
 73 80  1  0  0  0
 73148  1  0  0  0
 73149  1  0  0  0
 73150  1  0  0  0
 74151  1  0  0  0
 74152  1  0  0  0
 74153  1  0  0  0
 74 82  1  0  0  0
 75 76  1  0  0  0
 75 81  1  0  0  0
 75154  1  0  0  0
 75155  1  0  0  0
 76 82  1  0  0  0
 76156  1  0  0  0
 76157  1  0  0  0
 77 82  1  0  0  0
 77158  1  0  0  0
 77159  1  0  0  0
 77 79  1  0  0  0
 78 79  1  0  0  0
 78160  1  0  0  0
 78161  1  0  0  0
 79 80  1  0  0  0
 79162  1  0  0  0
 81163  1  0  0  0
 82164  1  0  0  0
M  CHG  1  82   1
M  ISO  4   1 100  68 101  78 101  81 100
M  END
> <chiral flag>
0

> <version>
0

> <s_m_source_file>
/data/baiqing/PycharmProjects/Reinvent-master-3.2/result/LINK_invent/BTK/process_docking_weight1_custom_sum_contain_oxygen_bond_distance_aromatic_linkinvent_7_9_3/rearranged_h_0105.sdf

> <i_m_source_file_index>
67

> <r_mmod_Potential_Energy-OPLS-2005>
444.6533203125

> <r_mmod_Stretch_Energy-OPLS-2005>
289.629760742188

> <r_mmod_Bend_Energy-OPLS-2005>
307.859100341797

> <r_mmod_Torsional_Energy-OPLS-2005>
241.747436523438

> <r_mmod_Improper_Torsional_Energy-OPLS-2005>
4.6696720123291

> <r_mmod_Van_der_Waal_Energy-OPLS-2005>
116.158622741699

> <r_mmod_Electrostatic_Energy-OPLS-2005>
-244.601898193359

> <r_mmod_Solvation_Energy-OPLS-2005>
-461.179565429688

> <b_mmod_Minimization_Converged-OPLS-2005>
0

> <r_mmod_RMS_Derivative-OPLS-2005>
3.04792141914368

$$$$
67
                    3D
 Structure written by MMmdl.
180189  0  0  1  0            999 V2000
  -30.6444  -14.5825   20.5368 C   0  0  0  0  0  0
  -30.4193  -12.3680   19.4468 C   0  0  0  0  0  0
  -29.4825  -12.5271   18.2277 C   0  0  0  0  0  0
  -28.0050  -12.3916   18.6285 C   0  0  0  0  0  0
  -27.6539  -13.2245   19.8838 C   0  0  2  0  0  0
  -28.7016  -13.0317   21.0071 C   0  0  0  0  0  0
  -25.2563  -13.8175   20.5768 C   0  0  0  0  0  0
  -24.1890  -13.0444   20.9198 C   0  0  0  0  0  0
  -24.6463  -11.6892   20.8773 C   0  0  0  0  0  0
  -23.9157  -10.4279   21.0440 C   0  0  0  0  0  0
  -24.3665   -9.4183   21.9221 C   0  0  0  0  0  0
  -23.6324   -8.2217   22.0742 C   0  0  0  0  0  0
  -22.4304   -8.0269   21.3501 C   0  0  0  0  0  0
  -21.9960   -9.0306   20.4634 C   0  0  0  0  0  0
  -22.7326  -10.2156   20.3077 C   0  0  0  0  0  0
  -21.6856   -6.0744   22.5291 C   0  0  0  0  0  0
  -21.4028   -6.5652   23.8219 C   0  0  0  0  0  0
  -21.3646   -5.6799   24.9177 C   0  0  0  0  0  0
  -21.6051   -4.3055   24.7229 C   0  0  0  0  0  0
  -21.8823   -3.8152   23.4342 C   0  0  0  0  0  0
  -21.9200   -4.6993   22.3383 C   0  0  0  0  0  0
  -22.7918  -13.5216   21.1843 C   0  0  0  0  0  0
  -22.1682   -4.2187   21.0968 F   0  0  0  0  0  0
  -21.5627   -3.4535   25.7723 F   0  0  0  0  0  0
  -30.0346  -13.3598   20.4665 N   0  0  0  0  0  0
  -26.3027  -12.9384   20.3458 N   0  0  0  0  0  0
  -25.9381  -11.6532   20.5866 N   0  0  0  0  0  0
  -22.0623  -12.8101   22.0304 N   0  0  0  0  0  0
  -25.4344  -15.1905   20.4161 N   0  0  0  0  0  0
  -31.7116  -14.8126   19.9698 O   0  0  0  0  0  0
  -21.6626   -6.8897   21.4224 O   0  0  0  0  0  0
  -22.3599  -14.5571   20.6749 O   0  0  0  0  0  0
  -24.6343  -31.8637   23.1896 C   0  0  0  0  0  0
  -25.9277  -32.4754   23.8113 C   0  0  1  0  0  0
  -27.2284  -27.3414   20.1534 C   0  0  0  0  0  0
  -25.6075  -33.8537   24.2045 N   0  0  0  0  0  0
  -23.4070  -30.4847   21.5486 C   0  0  2  0  0  0
  -24.8510  -28.9291   20.1090 C   0  0  0  0  0  0
  -22.7470  -29.4651   22.5077 C   0  0  0  0  0  0
  -18.0256  -28.1514   22.8498 C   0  0  0  0  0  0
  -24.1514  -36.7297   23.2591 C   0  0  0  0  0  0
  -25.9402  -30.8003   21.3386 C   0  0  0  0  0  0
  -26.0123  -29.4215   20.7169 C   0  0  0  0  0  0
  -27.2030  -28.6471   20.7181 C   0  0  0  0  0  0
  -26.0370  -26.8537   19.5744 C   0  0  0  0  0  0
  -24.8702  -27.6545   19.5162 C   0  0  0  0  0  0
  -23.6064  -29.8023   20.1658 C   0  0  0  0  0  0
  -25.4155  -36.3028   24.0228 C   0  0  1  0  0  0
  -20.5856  -28.3730   23.1427 C   0  0  2  0  0  0
  -20.6831  -26.9504   22.5509 C   0  0  0  0  0  0
  -19.5788  -26.6486   21.5334 C   0  0  0  0  0  0
  -18.1917  -26.8063   22.1654 C   0  0  0  0  0  0
  -19.1521  -28.8951   23.2927 C   0  0  0  0  0  0
  -18.9452  -30.1564   23.8938 C   0  0  0  0  0  0
  -17.6471  -30.6718   24.0623 C   0  0  0  0  0  0
  -25.9139  -34.9450   23.4936 C   0  0  0  0  0  0
  -16.5346  -29.9247   23.6381 C   0  0  0  0  0  0
  -16.7253  -28.6675   23.0361 C   0  0  0  0  0  0
  -26.4607  -31.6589   25.0520 C   0  0  0  0  0  0
  -25.3693  -31.3877   26.1121 C   0  0  0  0  0  0
  -27.0448  -30.2996   24.5986 C   0  0  0  0  0  0
  -27.6131  -32.4278   25.7420 C   0  0  0  0  0  0
  -27.5563  -37.1800   24.8431 C   0  0  0  0  0  0
  -21.4188  -29.3085   22.3859 N   0  0  0  0  0  0
  -26.4277  -37.3788   23.9392 N   0  0  0  0  0  0
  -24.6815  -31.0649   22.0844 N   0  0  0  0  0  0
  -23.4273  -28.8158   23.3071 O   0  0  0  0  0  0
  -28.4320  -26.6564   19.9902 O   0  0  0  0  0  0
  -26.5719  -34.9002   22.4503 O   0  0  0  0  0  0
  -23.5574  -32.1436   23.7371 O   0  0  0  0  0  0
  -31.3460  -18.4252   20.4103 C   0  0  0  0  0  0
  -29.4026  -19.3964   20.7675 C   0  0  0  0  0  0
  -29.9833  -18.1451   20.6496 C   0  0  0  0  0  0
  -31.5690  -19.7746   20.5408 C   0  0  0  0  0  0
  -33.4092  -21.3755   19.6121 C   0  0  0  0  0  0
  -33.3466  -20.8036   22.0079 C   0  0  0  0  0  0
  -34.9528  -21.3626   19.6180 C   0  0  0  0  0  0
  -34.8735  -20.7577   22.0803 C   0  0  0  0  0  0
  -32.9502  -20.3290   20.6193 C   0  0  1  0  0  0
  -28.1091  -16.9234   21.7544 C   0  0  0  0  0  0
  -30.0025  -22.3807   18.4958 C   0  0  0  0  0  0
  -36.9885  -21.2175   21.0008 C   0  0  0  0  0  0
  -29.9975  -21.8691   21.0601 C   0  0  0  0  0  0
  -28.7985  -25.4440   20.7207 C   0  0  0  0  0  0
  -29.2763  -16.7684   20.7672 C   0  0  2  0  0  0
  -29.8776  -22.9816   19.9134 C   0  0  2  0  0  0
  -28.6847  -24.0729   19.9323 C   0  0  1  0  0  0
  -30.3411  -20.4327   20.7344 N   0  0  0  0  0  0
  -29.9917  -15.5420   21.2376 N   0  0  0  0  0  0
  -35.5420  -21.5268   20.9889 N   0  3  1  0  0  0
  -27.4516  -23.4731   20.3055 O   0  0  0  0  0  0
  -31.4574  -12.4770   19.1336 H   0  0  0  0  0  0
  -30.3459  -11.3669   19.8675 H   0  0  0  0  0  0
  -29.7187  -11.7892   17.4600 H   0  0  0  0  0  0
  -29.6386  -13.5025   17.7668 H   0  0  0  0  0  0
  -27.8024  -11.3381   18.8039 H   0  0  0  0  0  0
  -27.3534  -12.6827   17.8031 H   0  0  0  0  0  0
  -27.6824  -14.2656   19.5715 H   0  0  0  0  0  0
  -28.7033  -11.9981   21.3507 H   0  0  0  0  0  0
  -28.4322  -13.6308   21.8774 H   0  0  0  0  0  0
  -25.2843   -9.5578   22.4750 H   0  0  0  0  0  0
  -24.0054   -7.4552   22.7358 H   0  0  0  0  0  0
  -21.0936   -8.8813   19.8876 H   0  0  0  0  0  0
  -22.3896  -10.9689   19.6121 H   0  0  0  0  0  0
  -21.2025   -7.6162   23.9749 H   0  0  0  0  0  0
  -21.1467   -6.0511   25.9077 H   0  0  0  0  0  0
  -22.0606   -2.7637   23.2832 H   0  0  0  0  0  0
  -22.4389  -11.9878   22.4745 H   0  0  0  0  0  0
  -21.1250  -13.1060   22.2619 H   0  0  0  0  0  0
  -24.7042  -15.8777   20.5633 H   0  0  0  0  0  0
  -26.3166  -15.5950   20.1344 H   0  0  0  0  0  0
  -26.7317  -32.5401   23.0831 H   0  0  0  0  0  0
  -25.0202  -33.9594   25.0171 H   0  0  0  0  0  0
  -22.6917  -31.3038   21.4222 H   0  0  0  0  0  0
  -23.3758  -35.9659   23.3272 H   0  0  0  0  0  0
  -24.3498  -36.8977   22.1994 H   0  0  0  0  0  0
  -23.7376  -37.6525   23.6662 H   0  0  0  0  0  0
  -26.0349  -31.5240   20.5266 H   0  0  0  0  0  0
  -26.8439  -30.8801   21.9310 H   0  0  0  0  0  0
  -28.1032  -29.0549   21.1502 H   0  0  0  0  0  0
  -26.0067  -25.8515   19.1641 H   0  0  0  0  0  0
  -23.9785  -27.2862   19.0247 H   0  0  0  0  0  0
  -23.6890  -30.5704   19.3978 H   0  0  0  0  0  0
  -22.7220  -29.2219   19.8831 H   0  0  0  0  0  0
  -25.1391  -36.1753   25.0724 H   0  0  0  0  0  0
  -20.9850  -28.3351   24.1588 H   0  0  0  0  0  0
  -20.5982  -26.2319   23.3698 H   0  0  0  0  0  0
  -21.6673  -26.7796   22.1141 H   0  0  0  0  0  0
  -19.6981  -25.6413   21.1364 H   0  0  0  0  0  0
  -19.6763  -27.3329   20.6905 H   0  0  0  0  0  0
  -17.4262  -26.6869   21.3993 H   0  0  0  0  0  0
  -18.0198  -26.0271   22.9076 H   0  0  0  0  0  0
  -19.7936  -30.7377   24.2329 H   0  0  0  0  0  0
  -17.5053  -31.6387   24.5260 H   0  0  0  0  0  0
  -15.5374  -30.3201   23.7742 H   0  0  0  0  0  0
  -15.8612  -28.1072   22.7052 H   0  0  0  0  0  0
  -24.5828  -30.7344   25.7311 H   0  0  0  0  0  0
  -24.8960  -32.3181   26.4270 H   0  0  0  0  0  0
  -25.7803  -30.9099   27.0012 H   0  0  0  0  0  0
  -26.3024  -29.6728   24.1036 H   0  0  0  0  0  0
  -27.4212  -29.7247   25.4457 H   0  0  0  0  0  0
  -27.8842  -30.4274   23.9147 H   0  0  0  0  0  0
  -27.2680  -33.3525   26.2052 H   0  0  0  0  0  0
  -28.4034  -32.6913   25.0369 H   0  0  0  0  0  0
  -28.0702  -31.8325   26.5335 H   0  0  0  0  0  0
  -28.2611  -38.0073   24.7518 H   0  0  0  0  0  0
  -28.1030  -36.2623   24.6240 H   0  0  0  0  0  0
  -27.2214  -37.1432   25.8805 H   0  0  0  0  0  0
  -20.9451  -29.8658   21.6902 H   0  0  0  0  0  0
  -26.0097  -38.2826   24.1467 H   0  0  0  0  0  0
  -32.1206  -17.6767   20.2725 H   0  0  0  0  0  0
  -28.3744  -19.6484   20.9775 H   0  0  0  0  0  0
  -33.0563  -21.1277   18.6108 H   0  0  0  0  0  0
  -33.0188  -22.3605   19.8740 H   0  0  0  0  0  0
  -32.9671  -21.8034   22.2096 H   0  0  0  0  0  0
  -32.9224  -20.1510   22.7737 H   0  0  0  0  0  0
  -35.3368  -22.1405   18.9543 H   0  0  0  0  0  0
  -35.2849  -20.4147   19.1893 H   0  0  0  0  0  0
  -35.1823  -19.7135   22.0220 H   0  0  0  0  0  0
  -35.2116  -21.1235   23.0517 H   0  0  0  0  0  0
  -33.5742  -19.4548   20.4069 H   0  0  0  0  0  0
  -27.3867  -17.6689   21.4258 H   0  0  0  0  0  0
  -28.4729  -17.2348   22.7368 H   0  0  0  0  0  0
  -27.5674  -15.9878   21.9038 H   0  0  0  0  0  0
  -30.1464  -23.1585   17.7357 H   0  0  0  0  0  0
  -29.1377  -21.7672   18.2211 H   0  0  0  0  0  0
  -30.8835  -21.7454   18.4449 H   0  0  0  0  0  0
  -37.5473  -21.8459   20.3098 H   0  0  0  0  0  0
  -37.1458  -20.1725   20.7191 H   0  0  0  0  0  0
  -37.3987  -21.3490   22.0033 H   0  0  0  0  0  0
  -29.0409  -21.8490   21.5815 H   0  0  0  0  0  0
  -30.7082  -22.1935   21.8268 H   0  0  0  0  0  0
  -29.8586  -25.6140   20.9278 H   0  0  0  0  0  0
  -28.3046  -25.3992   21.6939 H   0  0  0  0  0  0
  -28.8591  -16.5502   19.7819 H   0  0  0  0  0  0
  -30.7977  -23.5517   20.0131 H   0  0  0  0  0  0
  -28.5769  -24.4115   18.8976 H   0  0  0  0  0  0
  -29.4532  -15.1052   21.9679 H   0  0  0  0  0  0
  -35.4399  -22.5046   21.2236 H   0  0  0  0  0  0
  -27.0917  -23.0068   19.5595 H   0  0  0  0  0  0
  1 25  1  0  0  0
  1 30  2  0  0  0
  1 89  1  0  0  0
  2  3  1  0  0  0
  2 25  1  0  0  0
  2 92  1  0  0  0
  2 93  1  0  0  0
  3  4  1  0  0  0
  3 94  1  0  0  0
  3 95  1  0  0  0
  4  5  1  0  0  0
  4 96  1  0  0  0
  4 97  1  0  0  0
  5  6  1  0  0  0
  5 26  1  0  0  0
  5 98  1  0  0  0
  6 25  1  0  0  0
  6 99  1  0  0  0
  6100  1  0  0  0
  7  8  2  0  0  0
  7 26  1  0  0  0
  7 29  1  0  0  0
  8  9  1  0  0  0
  8 22  1  0  0  0
  9 10  1  0  0  0
  9 27  2  0  0  0
 10 11  2  0  0  0
 10 15  1  0  0  0
 11 12  1  0  0  0
 11101  1  0  0  0
 12 13  2  0  0  0
 12102  1  0  0  0
 13 14  1  0  0  0
 13 31  1  0  0  0
 14 15  2  0  0  0
 14103  1  0  0  0
 15104  1  0  0  0
 16 17  2  0  0  0
 16 21  1  0  0  0
 16 31  1  0  0  0
 17 18  1  0  0  0
 17105  1  0  0  0
 18 19  2  0  0  0
 18106  1  0  0  0
 19 20  1  0  0  0
 19 24  1  0  0  0
 20 21  2  0  0  0
 20107  1  0  0  0
 21 23  1  0  0  0
 22 28  1  0  0  0
 22 32  2  0  0  0
 26 27  1  0  0  0
 28108  1  0  0  0
 28109  1  0  0  0
 29110  1  0  0  0
 29111  1  0  0  0
 33 34  1  0  0  0
 33 66  1  0  0  0
 33 70  2  0  0  0
 34 36  1  0  0  0
 34 59  1  0  0  0
 34112  1  0  0  0
 35 44  2  0  0  0
 35 45  1  0  0  0
 35 68  1  0  0  0
 36 56  1  0  0  0
 36113  1  0  0  0
 37 39  1  0  0  0
 37 47  1  0  0  0
 37 66  1  0  0  0
 37114  1  0  0  0
 38 43  2  0  0  0
 38 46  1  0  0  0
 38 47  1  0  0  0
 39 64  1  0  0  0
 39 67  2  0  0  0
 40 52  1  0  0  0
 40 53  2  0  0  0
 40 58  1  0  0  0
 41115  1  0  0  0
 41116  1  0  0  0
 41117  1  0  0  0
 41 48  1  0  0  0
 42 43  1  0  0  0
 42 66  1  0  0  0
 42118  1  0  0  0
 42119  1  0  0  0
 43 44  1  0  0  0
 44120  1  0  0  0
 45 46  2  0  0  0
 45121  1  0  0  0
 46122  1  0  0  0
 47123  1  0  0  0
 47124  1  0  0  0
 48 56  1  0  0  0
 48 65  1  0  0  0
 48125  1  0  0  0
 49 50  1  0  0  0
 49 53  1  0  0  0
 49 64  1  0  0  0
 49126  1  0  0  0
 50 51  1  0  0  0
 50127  1  0  0  0
 50128  1  0  0  0
 51 52  1  0  0  0
 51129  1  0  0  0
 51130  1  0  0  0
 52131  1  0  0  0
 52132  1  0  0  0
 53 54  1  0  0  0
 54 55  2  0  0  0
 54133  1  0  0  0
 55 57  1  0  0  0
 55134  1  0  0  0
 56 69  2  0  0  0
 57 58  2  0  0  0
 57135  1  0  0  0
 58136  1  0  0  0
 59 60  1  0  0  0
 59 61  1  0  0  0
 59 62  1  0  0  0
 60137  1  0  0  0
 60138  1  0  0  0
 60139  1  0  0  0
 61140  1  0  0  0
 61141  1  0  0  0
 61142  1  0  0  0
 62143  1  0  0  0
 62144  1  0  0  0
 62145  1  0  0  0
 63 65  1  0  0  0
 63146  1  0  0  0
 63147  1  0  0  0
 63148  1  0  0  0
 64149  1  0  0  0
 65150  1  0  0  0
 68 84  1  0  0  0
 71 73  1  0  0  0
 71 74  2  0  0  0
 71151  1  0  0  0
 72 73  2  0  0  0
 72 88  1  0  0  0
 72152  1  0  0  0
 73 85  1  0  0  0
 74 88  1  0  0  0
 74 79  1  0  0  0
 75 77  1  0  0  0
 75 79  1  0  0  0
 75153  1  0  0  0
 75154  1  0  0  0
 76 78  1  0  0  0
 76 79  1  0  0  0
 76155  1  0  0  0
 76156  1  0  0  0
 77 90  1  0  0  0
 77157  1  0  0  0
 77158  1  0  0  0
 78 90  1  0  0  0
 78159  1  0  0  0
 78160  1  0  0  0
 79161  1  0  0  0
 80162  1  0  0  0
 80163  1  0  0  0
 80164  1  0  0  0
 80 85  1  0  0  0
 81165  1  0  0  0
 81166  1  0  0  0
 81167  1  0  0  0
 81 86  1  0  0  0
 82168  1  0  0  0
 82169  1  0  0  0
 82170  1  0  0  0
 82 90  1  0  0  0
 83 86  1  0  0  0
 83 88  1  0  0  0
 83171  1  0  0  0
 83172  1  0  0  0
 84 87  1  0  0  0
 84173  1  0  0  0
 84174  1  0  0  0
 85 89  1  0  0  0
 85175  1  0  0  0
 86 87  1  0  0  0
 86176  1  0  0  0
 87 91  1  0  0  0
 87177  1  0  0  0
 89178  1  0  0  0
 90179  1  0  0  0
 91180  1  0  0  0
M  CHG  1  90   1
M  ISO  4   1 100  68 101  84 101  89 100
M  END
> <chiral flag>
0

> <version>
0

> <s_m_source_file>
/data/baiqing/PycharmProjects/Reinvent-master-3.2/result/LINK_invent/BTK/process_docking_weight1_custom_sum_contain_oxygen_bond_distance_aromatic_linkinvent_7_9_3/rearranged_h_0105.sdf

> <i_m_source_file_index>
68

> <r_mmod_Potential_Energy-OPLS-2005>
17.2050952911377

> <r_mmod_Stretch_Energy-OPLS-2005>
76.4181823730469

> <r_mmod_Bend_Energy-OPLS-2005>
218.247100830078

> <r_mmod_Torsional_Energy-OPLS-2005>
350.090087890625

> <r_mmod_Improper_Torsional_Energy-OPLS-2005>
9.21495819091797

> <r_mmod_Van_der_Waal_Energy-OPLS-2005>
119.459884643555

> <r_mmod_Electrostatic_Energy-OPLS-2005>
-321.913940429688

> <r_mmod_Solvation_Energy-OPLS-2005>
-466.002502441406

> <b_mmod_Minimization_Converged-OPLS-2005>
0

> <r_mmod_RMS_Derivative-OPLS-2005>
10.9816226959229

$$$$
68
                    3D
 Structure written by MMmdl.
164171  0  0  1  0            999 V2000
  -30.5879  -14.7286   20.5029 C   0  0  0  0  0  0
  -30.4426  -12.4529   19.4779 C   0  0  0  0  0  0
  -29.5156  -12.4955   18.2430 C   0  0  0  0  0  0
  -28.0405  -12.3101   18.6479 C   0  0  0  0  0  0
  -27.6369  -13.2176   19.8407 C   0  0  2  0  0  0
  -28.6717  -13.1321   20.9809 C   0  0  0  0  0  0
  -25.2491  -13.8170   20.5618 C   0  0  0  0  0  0
  -24.1794  -13.0456   20.9207 C   0  0  0  0  0  0
  -24.6359  -11.6905   20.8741 C   0  0  0  0  0  0
  -23.9029  -10.4286   21.0371 C   0  0  0  0  0  0
  -24.3598   -9.4218   21.9166 C   0  0  0  0  0  0
  -23.6314   -8.2228   22.0733 C   0  0  0  0  0  0
  -22.4273   -8.0273   21.3535 C   0  0  0  0  0  0
  -21.9880   -9.0218   20.4615 C   0  0  0  0  0  0
  -22.7181  -10.2127   20.3027 C   0  0  0  0  0  0
  -21.6872   -6.0727   22.5278 C   0  0  0  0  0  0
  -21.4017   -6.5631   23.8210 C   0  0  0  0  0  0
  -21.3685   -5.6793   24.9170 C   0  0  0  0  0  0
  -21.6040   -4.3048   24.7222 C   0  0  0  0  0  0
  -21.8833   -3.8140   23.4345 C   0  0  0  0  0  0
  -21.9215   -4.6948   22.3407 C   0  0  0  0  0  0
  -22.7801  -13.5217   21.1925 C   0  0  0  0  0  0
  -22.1668   -4.2147   21.0972 F   0  0  0  0  0  0
  -21.5647   -3.4531   25.7729 F   0  0  0  0  0  0
  -29.9796  -13.4967   20.4145 N   0  0  0  0  0  0
  -26.2868  -12.9347   20.3149 N   0  0  0  0  0  0
  -25.9266  -11.6510   20.5662 N   0  0  0  0  0  0
  -22.0468  -12.8200   22.0473 N   0  0  0  0  0  0
  -25.4245  -15.1892   20.3980 N   0  0  0  0  0  0
  -31.7743  -14.8692   20.1958 O   0  0  0  0  0  0
  -21.6671   -6.8848   21.4225 O   0  0  0  0  0  0
  -22.3471  -14.5524   20.6766 O   0  0  0  0  0  0
  -24.6244  -31.8673   23.2027 C   0  0  0  0  0  0
  -25.9083  -32.4841   23.8384 C   0  0  1  0  0  0
  -27.2243  -27.3246   20.1507 C   0  0  0  0  0  0
  -25.5926  -33.8630   24.2311 N   0  0  0  0  0  0
  -23.4260  -30.4863   21.5423 C   0  0  2  0  0  0
  -24.8775  -28.9422   20.1083 C   0  0  0  0  0  0
  -22.7511  -29.4658   22.4908 C   0  0  0  0  0  0
  -18.0312  -28.1410   22.8533 C   0  0  0  0  0  0
  -24.1435  -36.7221   23.2628 C   0  0  0  0  0  0
  -25.9642  -30.7994   21.3777 C   0  0  0  0  0  0
  -26.0390  -29.4245   20.7237 C   0  0  0  0  0  0
  -27.2193  -28.6268   20.7370 C   0  0  0  0  0  0
  -26.0573  -26.9070   19.4801 C   0  0  0  0  0  0
  -24.8863  -27.6893   19.4761 C   0  0  0  0  0  0
  -23.6458  -29.8207   20.1564 C   0  0  0  0  0  0
  -25.4077  -36.3110   24.0347 C   0  0  1  0  0  0
  -20.5935  -28.3715   23.1276 C   0  0  2  0  0  0
  -20.6800  -26.9436   22.5416 C   0  0  0  0  0  0
  -19.5739  -26.6399   21.5264 C   0  0  0  0  0  0
  -18.1933  -26.7967   22.1671 C   0  0  0  0  0  0
  -19.1574  -28.8882   23.2909 C   0  0  0  0  0  0
  -18.9483  -30.1501   23.8905 C   0  0  0  0  0  0
  -17.6477  -30.6610   24.0599 C   0  0  0  0  0  0
  -25.9041  -34.9491   23.5127 C   0  0  0  0  0  0
  -16.5375  -29.9120   23.6328 C   0  0  0  0  0  0
  -16.7302  -28.6536   23.0349 C   0  0  0  0  0  0
  -26.4461  -31.6632   25.0719 C   0  0  0  0  0  0
  -25.3688  -31.3776   26.1429 C   0  0  0  0  0  0
  -27.0312  -30.3078   24.6148 C   0  0  0  0  0  0
  -27.6067  -32.4363   25.7441 C   0  0  0  0  0  0
  -27.5545  -37.1768   24.8502 C   0  0  0  0  0  0
  -21.4215  -29.3080   22.3669 N   0  0  0  0  0  0
  -26.4253  -37.3820   23.9460 N   0  0  0  0  0  0
  -24.6891  -31.0713   22.0977 N   0  0  0  0  0  0
  -23.4252  -28.8195   23.2972 O   0  0  0  0  0  0
  -28.3151  -26.4457   20.2132 O   0  0  0  0  0  0
  -26.5589  -34.8987   22.4677 O   0  0  0  0  0  0
  -23.5387  -32.1430   23.7325 O   0  0  0  0  0  0
  -26.8565  -24.9046   21.6533 C   0  0  0  0  0  0
  -30.5553  -18.4586   18.9901 C   0  0  0  0  0  0
  -28.1868  -18.3339   19.8192 C   0  0  0  0  0  0
  -30.7984  -21.7130   19.4946 C   0  0  0  0  0  0
  -28.6892  -23.8181   20.1829 C   0  0  0  0  0  0
  -30.0907  -17.2554   21.1740 C   0  0  0  0  0  0
  -28.9824  -22.4543   20.9981 C   0  0  0  0  0  0
  -29.8051  -19.9556   20.9942 C   0  0  0  0  0  0
  -28.2129  -25.1429   20.9489 C   0  0  1  0  0  0
  -29.6596  -18.5145   20.2480 C   0  0  0  0  0  0
  -29.7759  -15.8101   20.7888 N   0  0  0  0  0  0
  -29.5734  -21.2698   20.2185 N   0  3  1  0  0  0
  -31.4779  -12.6050   19.1704 H   0  0  0  0  0  0
  -30.4218  -11.4733   19.9554 H   0  0  0  0  0  0
  -29.8113  -11.7227   17.5309 H   0  0  0  0  0  0
  -29.6343  -13.4506   17.7342 H   0  0  0  0  0  0
  -27.9051  -11.2613   18.9191 H   0  0  0  0  0  0
  -27.3904  -12.4839   17.7892 H   0  0  0  0  0  0
  -27.6345  -14.2367   19.4552 H   0  0  0  0  0  0
  -28.7021  -12.1220   21.3932 H   0  0  0  0  0  0
  -28.3883  -13.7908   21.8053 H   0  0  0  0  0  0
  -25.2731   -9.5750   22.4743 H   0  0  0  0  0  0
  -24.0080   -7.4589   22.7417 H   0  0  0  0  0  0
  -21.0849   -8.8670   19.8884 H   0  0  0  0  0  0
  -22.3590  -10.9657   19.6141 H   0  0  0  0  0  0
  -21.1966   -7.6124   23.9717 H   0  0  0  0  0  0
  -21.1508   -6.0505   25.9099 H   0  0  0  0  0  0
  -22.0585   -2.7598   23.2843 H   0  0  0  0  0  0
  -22.4162  -11.9909   22.4879 H   0  0  0  0  0  0
  -21.1033  -13.1131   22.2627 H   0  0  0  0  0  0
  -24.6532  -15.8412   20.4908 H   0  0  0  0  0  0
  -26.2639  -15.6144   20.0276 H   0  0  0  0  0  0
  -26.7151  -32.5525   23.1149 H   0  0  0  0  0  0
  -25.0251  -33.9820   25.0573 H   0  0  0  0  0  0
  -22.7217  -31.3075   21.3977 H   0  0  0  0  0  0
  -23.3782  -35.9474   23.3328 H   0  0  0  0  0  0
  -24.3519  -36.8780   22.2035 H   0  0  0  0  0  0
  -23.7102  -37.6399   23.6601 H   0  0  0  0  0  0
  -26.1004  -31.5583   20.6056 H   0  0  0  0  0  0
  -26.8413  -30.8492   22.0117 H   0  0  0  0  0  0
  -28.1038  -28.9913   21.2407 H   0  0  0  0  0  0
  -26.0468  -25.9430   18.9968 H   0  0  0  0  0  0
  -23.9951  -27.3204   18.9903 H   0  0  0  0  0  0
  -23.7821  -30.5986   19.4060 H   0  0  0  0  0  0
  -22.7704  -29.2530   19.8360 H   0  0  0  0  0  0
  -25.1253  -36.1964   25.0843 H   0  0  0  0  0  0
  -21.0062  -28.3289   24.1389 H   0  0  0  0  0  0
  -20.5770  -26.2343   23.3635 H   0  0  0  0  0  0
  -21.6651  -26.7507   22.1175 H   0  0  0  0  0  0
  -19.6896  -25.6314   21.1279 H   0  0  0  0  0  0
  -19.6639  -27.3234   20.6815 H   0  0  0  0  0  0
  -17.4233  -26.6794   21.4048 H   0  0  0  0  0  0
  -18.0270  -26.0103   22.9028 H   0  0  0  0  0  0
  -19.7953  -30.7340   24.2265 H   0  0  0  0  0  0
  -17.5019  -31.6286   24.5203 H   0  0  0  0  0  0
  -15.5361  -30.3011   23.7650 H   0  0  0  0  0  0
  -15.8716  -28.0856   22.7019 H   0  0  0  0  0  0
  -24.5868  -30.7150   25.7700 H   0  0  0  0  0  0
  -24.8860  -32.2943   26.4829 H   0  0  0  0  0  0
  -25.7954  -30.8935   27.0222 H   0  0  0  0  0  0
  -26.2867  -29.6842   24.1186 H   0  0  0  0  0  0
  -27.4076  -29.7335   25.4622 H   0  0  0  0  0  0
  -27.8714  -30.4430   23.9337 H   0  0  0  0  0  0
  -27.2729  -33.3692   26.2011 H   0  0  0  0  0  0
  -28.3812  -32.6895   25.0178 H   0  0  0  0  0  0
  -28.0807  -31.8504   26.5331 H   0  0  0  0  0  0
  -28.2642  -37.9992   24.7563 H   0  0  0  0  0  0
  -28.0964  -36.2559   24.6317 H   0  0  0  0  0  0
  -27.2286  -37.1410   25.8911 H   0  0  0  0  0  0
  -20.9417  -29.8786   21.6845 H   0  0  0  0  0  0
  -26.0133  -38.2892   24.1517 H   0  0  0  0  0  0
  -26.5289  -25.7803   22.2154 H   0  0  0  0  0  0
  -26.9137  -24.0772   22.3603 H   0  0  0  0  0  0
  -26.0731  -24.6533   20.9385 H   0  0  0  0  0  0
  -30.2645  -19.1956   18.2413 H   0  0  0  0  0  0
  -30.5022  -17.4864   18.4970 H   0  0  0  0  0  0
  -31.6007  -18.6338   19.2407 H   0  0  0  0  0  0
  -27.8760  -19.0993   19.1063 H   0  0  0  0  0  0
  -27.5039  -18.3971   20.6665 H   0  0  0  0  0  0
  -28.0256  -17.3655   19.3417 H   0  0  0  0  0  0
  -31.3549  -22.4732   20.0494 H   0  0  0  0  0  0
  -30.5312  -22.1303   18.5205 H   0  0  0  0  0  0
  -31.5038  -20.9078   19.3111 H   0  0  0  0  0  0
  -27.9554  -23.5910   19.4125 H   0  0  0  0  0  0
  -29.5944  -24.0940   19.6473 H   0  0  0  0  0  0
  -29.5789  -17.3951   22.1283 H   0  0  0  0  0  0
  -31.1500  -17.3430   21.4205 H   0  0  0  0  0  0
  -28.0629  -22.1112   21.4772 H   0  0  0  0  0  0
  -29.6579  -22.6988   21.8194 H   0  0  0  0  0  0
  -30.7962  -20.0216   21.4504 H   0  0  0  0  0  0
  -29.1162  -19.9392   21.8406 H   0  0  0  0  0  0
  -28.9278  -25.2811   21.7614 H   0  0  0  0  0  0
  -28.8152  -15.5436   20.9429 H   0  0  0  0  0  0
  -28.8884  -21.0444   19.5115 H   0  0  0  0  0  0
  1 25  1  0  0  0
  1 30  2  0  0  0
  1 81  1  0  0  0
  2  3  1  0  0  0
  2 25  1  0  0  0
  2 83  1  0  0  0
  2 84  1  0  0  0
  3  4  1  0  0  0
  3 85  1  0  0  0
  3 86  1  0  0  0
  4  5  1  0  0  0
  4 87  1  0  0  0
  4 88  1  0  0  0
  5  6  1  0  0  0
  5 26  1  0  0  0
  5 89  1  0  0  0
  6 25  1  0  0  0
  6 90  1  0  0  0
  6 91  1  0  0  0
  7  8  2  0  0  0
  7 26  1  0  0  0
  7 29  1  0  0  0
  8  9  1  0  0  0
  8 22  1  0  0  0
  9 10  1  0  0  0
  9 27  2  0  0  0
 10 11  2  0  0  0
 10 15  1  0  0  0
 11 12  1  0  0  0
 11 92  1  0  0  0
 12 13  2  0  0  0
 12 93  1  0  0  0
 13 14  1  0  0  0
 13 31  1  0  0  0
 14 15  2  0  0  0
 14 94  1  0  0  0
 15 95  1  0  0  0
 16 17  2  0  0  0
 16 21  1  0  0  0
 16 31  1  0  0  0
 17 18  1  0  0  0
 17 96  1  0  0  0
 18 19  2  0  0  0
 18 97  1  0  0  0
 19 20  1  0  0  0
 19 24  1  0  0  0
 20 21  2  0  0  0
 20 98  1  0  0  0
 21 23  1  0  0  0
 22 28  1  0  0  0
 22 32  2  0  0  0
 26 27  1  0  0  0
 28 99  1  0  0  0
 28100  1  0  0  0
 29101  1  0  0  0
 29102  1  0  0  0
 33 34  1  0  0  0
 33 66  1  0  0  0
 33 70  2  0  0  0
 34 36  1  0  0  0
 34 59  1  0  0  0
 34103  1  0  0  0
 35 44  2  0  0  0
 35 45  1  0  0  0
 35 68  1  0  0  0
 36 56  1  0  0  0
 36104  1  0  0  0
 37 39  1  0  0  0
 37 47  1  0  0  0
 37 66  1  0  0  0
 37105  1  0  0  0
 38 43  2  0  0  0
 38 46  1  0  0  0
 38 47  1  0  0  0
 39 64  1  0  0  0
 39 67  2  0  0  0
 40 52  1  0  0  0
 40 53  2  0  0  0
 40 58  1  0  0  0
 41106  1  0  0  0
 41107  1  0  0  0
 41108  1  0  0  0
 41 48  1  0  0  0
 42 43  1  0  0  0
 42 66  1  0  0  0
 42109  1  0  0  0
 42110  1  0  0  0
 43 44  1  0  0  0
 44111  1  0  0  0
 45 46  2  0  0  0
 45112  1  0  0  0
 46113  1  0  0  0
 47114  1  0  0  0
 47115  1  0  0  0
 48 56  1  0  0  0
 48 65  1  0  0  0
 48116  1  0  0  0
 49 50  1  0  0  0
 49 53  1  0  0  0
 49 64  1  0  0  0
 49117  1  0  0  0
 50 51  1  0  0  0
 50118  1  0  0  0
 50119  1  0  0  0
 51 52  1  0  0  0
 51120  1  0  0  0
 51121  1  0  0  0
 52122  1  0  0  0
 52123  1  0  0  0
 53 54  1  0  0  0
 54 55  2  0  0  0
 54124  1  0  0  0
 55 57  1  0  0  0
 55125  1  0  0  0
 56 69  2  0  0  0
 57 58  2  0  0  0
 57126  1  0  0  0
 58127  1  0  0  0
 59 60  1  0  0  0
 59 61  1  0  0  0
 59 62  1  0  0  0
 60128  1  0  0  0
 60129  1  0  0  0
 60130  1  0  0  0
 61131  1  0  0  0
 61132  1  0  0  0
 61133  1  0  0  0
 62134  1  0  0  0
 62135  1  0  0  0
 62136  1  0  0  0
 63 65  1  0  0  0
 63137  1  0  0  0
 63138  1  0  0  0
 63139  1  0  0  0
 64140  1  0  0  0
 65141  1  0  0  0
 68 79  1  0  0  0
 71142  1  0  0  0
 71143  1  0  0  0
 71144  1  0  0  0
 71 79  1  0  0  0
 72145  1  0  0  0
 72146  1  0  0  0
 72147  1  0  0  0
 72 80  1  0  0  0
 73 80  1  0  0  0
 73148  1  0  0  0
 73149  1  0  0  0
 73150  1  0  0  0
 74151  1  0  0  0
 74152  1  0  0  0
 74153  1  0  0  0
 74 82  1  0  0  0
 75 77  1  0  0  0
 75 79  1  0  0  0
 75154  1  0  0  0
 75155  1  0  0  0
 76 80  1  0  0  0
 76 81  1  0  0  0
 76156  1  0  0  0
 76157  1  0  0  0
 77 82  1  0  0  0
 77158  1  0  0  0
 77159  1  0  0  0
 78 80  1  0  0  0
 78 82  1  0  0  0
 78160  1  0  0  0
 78161  1  0  0  0
 79162  1  0  0  0
 81163  1  0  0  0
 82164  1  0  0  0
M  CHG  1  82   1
M  ISO  4   1 100  68 101  79 101  81 100
M  END
> <chiral flag>
0

> <version>
0

> <s_m_source_file>
/data/baiqing/PycharmProjects/Reinvent-master-3.2/result/LINK_invent/BTK/process_docking_weight1_custom_sum_contain_oxygen_bond_distance_aromatic_linkinvent_7_9_3/rearranged_h_0105.sdf

> <i_m_source_file_index>
69

> <r_mmod_Potential_Energy-OPLS-2005>
19.0150661468506

> <r_mmod_Stretch_Energy-OPLS-2005>
113.319274902344

> <r_mmod_Bend_Energy-OPLS-2005>
163.594665527344

> <r_mmod_Torsional_Energy-OPLS-2005>
270.339050292969

> <r_mmod_Improper_Torsional_Energy-OPLS-2005>
3.96851515769958

> <r_mmod_Van_der_Waal_Energy-OPLS-2005>
121.743179321289

> <r_mmod_Electrostatic_Energy-OPLS-2005>
-285.69677734375

> <r_mmod_Solvation_Energy-OPLS-2005>
-440.871276855469

> <b_mmod_Minimization_Converged-OPLS-2005>
0

> <r_mmod_RMS_Derivative-OPLS-2005>
6.07319641113281

$$$$
69
                    3D
 Structure written by MMmdl.
163171  0  0  1  0            999 V2000
  -30.6290  -14.7242   20.4877 C   0  0  0  0  0  0
  -30.4335  -12.4525   19.4586 C   0  0  0  0  0  0
  -29.5060  -12.5099   18.2261 C   0  0  0  0  0  0
  -28.0327  -12.3337   18.6431 C   0  0  0  0  0  0
  -27.6419  -13.2308   19.8479 C   0  0  2  0  0  0
  -28.6895  -13.1561   20.9791 C   0  0  0  0  0  0
  -25.2514  -13.8195   20.5692 C   0  0  0  0  0  0
  -24.1806  -13.0440   20.9211 C   0  0  0  0  0  0
  -24.6396  -11.6920   20.8750 C   0  0  0  0  0  0
  -23.9074  -10.4295   21.0407 C   0  0  0  0  0  0
  -24.3624   -9.4209   21.9183 C   0  0  0  0  0  0
  -23.6300   -8.2242   22.0752 C   0  0  0  0  0  0
  -22.4282   -8.0280   21.3542 C   0  0  0  0  0  0
  -21.9917   -9.0255   20.4646 C   0  0  0  0  0  0
  -22.7245  -10.2135   20.3055 C   0  0  0  0  0  0
  -21.6855   -6.0739   22.5280 C   0  0  0  0  0  0
  -21.4014   -6.5641   23.8214 C   0  0  0  0  0  0
  -21.3660   -5.6794   24.9176 C   0  0  0  0  0  0
  -21.6045   -4.3057   24.7225 C   0  0  0  0  0  0
  -21.8819   -3.8149   23.4347 C   0  0  0  0  0  0
  -21.9194   -4.6967   22.3404 C   0  0  0  0  0  0
  -22.7825  -13.5219   21.1872 C   0  0  0  0  0  0
  -22.1660   -4.2152   21.0981 F   0  0  0  0  0  0
  -21.5629   -3.4540   25.7737 F   0  0  0  0  0  0
  -29.9885  -13.5097   20.3933 N   0  0  0  0  0  0
  -26.2940  -12.9402   20.3274 N   0  0  0  0  0  0
  -25.9326  -11.6546   20.5752 N   0  0  0  0  0  0
  -22.0474  -12.8209   22.0429 N   0  0  0  0  0  0
  -25.4192  -15.1921   20.4107 N   0  0  0  0  0  0
  -31.8225  -14.8155   20.1905 O   0  0  0  0  0  0
  -21.6642   -6.8880   21.4241 O   0  0  0  0  0  0
  -22.3505  -14.5522   20.6718 O   0  0  0  0  0  0
  -24.6332  -31.8552   23.1999 C   0  0  0  0  0  0
  -25.9155  -32.4754   23.8343 C   0  0  1  0  0  0
  -27.2120  -27.2538   20.1213 C   0  0  0  0  0  0
  -25.5942  -33.8559   24.2259 N   0  0  0  0  0  0
  -23.4293  -30.4816   21.5439 C   0  0  2  0  0  0
  -24.8743  -28.9342   20.1106 C   0  0  0  0  0  0
  -22.7512  -29.4606   22.4902 C   0  0  0  0  0  0
  -18.0295  -28.1386   22.8480 C   0  0  0  0  0  0
  -24.1490  -36.7286   23.2639 C   0  0  0  0  0  0
  -25.9786  -30.7665   21.3816 C   0  0  0  0  0  0
  -26.0500  -29.3908   20.7197 C   0  0  0  0  0  0
  -27.2234  -28.5656   20.7112 C   0  0  0  0  0  0
  -26.0082  -26.8763   19.4798 C   0  0  0  0  0  0
  -24.8597  -27.6857   19.4789 C   0  0  0  0  0  0
  -23.6473  -29.8222   20.1587 C   0  0  0  0  0  0
  -25.4116  -36.3068   24.0323 C   0  0  1  0  0  0
  -20.5899  -28.3703   23.1256 C   0  0  2  0  0  0
  -20.6780  -26.9419   22.5400 C   0  0  0  0  0  0
  -19.5754  -26.6381   21.5207 C   0  0  0  0  0  0
  -18.1937  -26.7927   22.1623 C   0  0  0  0  0  0
  -19.1548  -28.8863   23.2863 C   0  0  0  0  0  0
  -18.9468  -30.1461   23.8887 C   0  0  0  0  0  0
  -17.6466  -30.6587   24.0562 C   0  0  0  0  0  0
  -25.9058  -34.9439   23.5090 C   0  0  0  0  0  0
  -16.5358  -29.9083   23.6330 C   0  0  0  0  0  0
  -16.7280  -28.6500   23.0352 C   0  0  0  0  0  0
  -26.4513  -31.6583   25.0739 C   0  0  0  0  0  0
  -25.3727  -31.3737   26.1452 C   0  0  0  0  0  0
  -27.0364  -30.2994   24.6247 C   0  0  0  0  0  0
  -27.6058  -32.4332   25.7517 C   0  0  0  0  0  0
  -27.5576  -37.1801   24.8465 C   0  0  0  0  0  0
  -21.4217  -29.3053   22.3649 N   0  0  0  0  0  0
  -26.4290  -37.3767   23.9407 N   0  0  0  0  0  0
  -24.6998  -31.0521   22.0978 N   0  0  0  0  0  0
  -23.4211  -28.8129   23.2989 O   0  0  0  0  0  0
  -28.2948  -26.3368   20.1703 O   0  0  0  0  0  0
  -26.5630  -34.8916   22.4659 O   0  0  0  0  0  0
  -23.5480  -32.1372   23.7290 O   0  0  0  0  0  0
  -29.3398  -19.7498   21.1613 C   0  0  0  0  0  0
  -29.8352  -18.6179   20.5121 C   0  0  0  0  0  0
  -29.9095  -19.0285   19.1393 C   0  0  0  0  0  0
  -29.4410  -20.3338   19.0265 C   0  0  0  0  0  0
  -29.2665  -21.1934   17.8099 C   0  0  0  0  0  0
  -31.5611  -18.7993   17.2092 C   0  0  0  0  0  0
  -29.3166  -17.5784   17.1475 C   0  0  0  0  0  0
  -30.3496  -17.2478   21.1493 C   0  0  0  0  0  0
  -29.0233  -23.6350   20.2849 C   0  0  0  0  0  0
  -28.4098  -22.1665   20.6071 C   0  0  0  0  0  0
  -27.9671  -24.8625   20.2043 C   0  0  0  0  0  0
  -30.4431  -18.1352   18.0290 C   0  0  0  0  0  0
  -29.0969  -20.8326   20.2829 N   0  0  0  0  0  0
  -29.8765  -15.8556   20.7503 N   0  0  0  0  0  0
  -31.4721  -12.5834   19.1507 H   0  0  0  0  0  0
  -30.3834  -11.4736   19.9380 H   0  0  0  0  0  0
  -29.7857  -11.7402   17.5055 H   0  0  0  0  0  0
  -29.6317  -13.4668   17.7166 H   0  0  0  0  0  0
  -27.8883  -11.2844   18.9031 H   0  0  0  0  0  0
  -27.3738  -12.5292   17.7964 H   0  0  0  0  0  0
  -27.6379  -14.2541   19.4717 H   0  0  0  0  0  0
  -28.7253  -12.1543   21.4101 H   0  0  0  0  0  0
  -28.4279  -13.8311   21.7955 H   0  0  0  0  0  0
  -25.2767   -9.5687   22.4761 H   0  0  0  0  0  0
  -24.0012   -7.4633   22.7469 H   0  0  0  0  0  0
  -21.0848   -8.8773   19.8952 H   0  0  0  0  0  0
  -22.3700  -10.9675   19.6166 H   0  0  0  0  0  0
  -21.2001   -7.6149   23.9718 H   0  0  0  0  0  0
  -21.1484   -6.0523   25.9079 H   0  0  0  0  0  0
  -22.0597   -2.7612   23.2846 H   0  0  0  0  0  0
  -22.4097  -11.9873   22.4817 H   0  0  0  0  0  0
  -21.1087  -13.1222   22.2634 H   0  0  0  0  0  0
  -24.6496  -15.8436   20.5212 H   0  0  0  0  0  0
  -26.2628  -15.6341   20.0690 H   0  0  0  0  0  0
  -26.7222  -32.5400   23.1084 H   0  0  0  0  0  0
  -25.0088  -33.9697   25.0403 H   0  0  0  0  0  0
  -22.7262  -31.3045   21.4002 H   0  0  0  0  0  0
  -23.3748  -35.9623   23.3301 H   0  0  0  0  0  0
  -24.3581  -36.8912   22.2055 H   0  0  0  0  0  0
  -23.7248  -37.6488   23.6669 H   0  0  0  0  0  0
  -26.1222  -31.5285   20.6147 H   0  0  0  0  0  0
  -26.8546  -30.8113   22.0169 H   0  0  0  0  0  0
  -28.1230  -28.9112   21.2011 H   0  0  0  0  0  0
  -25.9047  -25.9345   18.9673 H   0  0  0  0  0  0
  -23.9617  -27.3345   18.9892 H   0  0  0  0  0  0
  -23.7744  -30.6008   19.4055 H   0  0  0  0  0  0
  -22.7650  -29.2583   19.8505 H   0  0  0  0  0  0
  -25.1298  -36.1913   25.0814 H   0  0  0  0  0  0
  -20.9997  -28.3282   24.1374 H   0  0  0  0  0  0
  -20.5672  -26.2318   23.3608 H   0  0  0  0  0  0
  -21.6647  -26.7432   22.1197 H   0  0  0  0  0  0
  -19.6915  -25.6288   21.1244 H   0  0  0  0  0  0
  -19.6687  -27.3183   20.6729 H   0  0  0  0  0  0
  -17.4202  -26.6668   21.4032 H   0  0  0  0  0  0
  -18.0346  -26.0072   22.9023 H   0  0  0  0  0  0
  -19.7944  -30.7278   24.2254 H   0  0  0  0  0  0
  -17.5020  -31.6266   24.5164 H   0  0  0  0  0  0
  -15.5358  -30.2982   23.7658 H   0  0  0  0  0  0
  -15.8679  -28.0815   22.7074 H   0  0  0  0  0  0
  -24.5908  -30.7083   25.7777 H   0  0  0  0  0  0
  -24.8918  -32.2907   26.4863 H   0  0  0  0  0  0
  -25.8036  -30.8922   27.0239 H   0  0  0  0  0  0
  -26.2957  -29.6738   24.1254 H   0  0  0  0  0  0
  -27.4009  -29.7267   25.4785 H   0  0  0  0  0  0
  -27.8853  -30.4256   23.9524 H   0  0  0  0  0  0
  -27.2656  -33.3637   26.2076 H   0  0  0  0  0  0
  -28.3879  -32.6886   25.0354 H   0  0  0  0  0  0
  -28.0718  -31.8474   26.5450 H   0  0  0  0  0  0
  -28.2590  -38.0100   24.7504 H   0  0  0  0  0  0
  -28.1072  -36.2629   24.6295 H   0  0  0  0  0  0
  -27.2296  -37.1454   25.8869 H   0  0  0  0  0  0
  -20.9403  -29.8797   21.6870 H   0  0  0  0  0  0
  -26.0164  -38.2839   24.1403 H   0  0  0  0  0  0
  -29.1293  -19.8835   22.2149 H   0  0  0  0  0  0
  -29.1181  -20.5951   16.9132 H   0  0  0  0  0  0
  -30.1443  -21.8190   17.6490 H   0  0  0  0  0  0
  -28.3976  -21.8458   17.8927 H   0  0  0  0  0  0
  -32.3734  -19.1313   17.8566 H   0  0  0  0  0  0
  -31.2120  -19.6618   16.6445 H   0  0  0  0  0  0
  -31.9853  -18.0962   16.4918 H   0  0  0  0  0  0
  -28.5884  -17.0329   17.7483 H   0  0  0  0  0  0
  -29.7104  -16.8846   16.4041 H   0  0  0  0  0  0
  -28.7843  -18.3648   16.6141 H   0  0  0  0  0  0
  -30.1723  -17.3232   22.2230 H   0  0  0  0  0  0
  -31.4361  -17.2692   21.0533 H   0  0  0  0  0  0
  -29.5689  -23.5983   19.3431 H   0  0  0  0  0  0
  -29.7708  -23.8624   21.0448 H   0  0  0  0  0  0
  -27.4405  -22.1172   20.1092 H   0  0  0  0  0  0
  -28.1607  -22.1457   21.6682 H   0  0  0  0  0  0
  -27.2684  -24.7319   21.0321 H   0  0  0  0  0  0
  -27.4083  -24.6223   19.3032 H   0  0  0  0  0  0
  -30.9075  -17.2744   18.5102 H   0  0  0  0  0  0
  -28.8891  -15.6925   20.8698 H   0  0  0  0  0  0
  1 25  1  0  0  0
  1 30  2  0  0  0
  1 84  1  0  0  0
  2  3  1  0  0  0
  2 25  1  0  0  0
  2 85  1  0  0  0
  2 86  1  0  0  0
  3  4  1  0  0  0
  3 87  1  0  0  0
  3 88  1  0  0  0
  4  5  1  0  0  0
  4 89  1  0  0  0
  4 90  1  0  0  0
  5  6  1  0  0  0
  5 26  1  0  0  0
  5 91  1  0  0  0
  6 25  1  0  0  0
  6 92  1  0  0  0
  6 93  1  0  0  0
  7  8  2  0  0  0
  7 26  1  0  0  0
  7 29  1  0  0  0
  8  9  1  0  0  0
  8 22  1  0  0  0
  9 10  1  0  0  0
  9 27  2  0  0  0
 10 11  2  0  0  0
 10 15  1  0  0  0
 11 12  1  0  0  0
 11 94  1  0  0  0
 12 13  2  0  0  0
 12 95  1  0  0  0
 13 14  1  0  0  0
 13 31  1  0  0  0
 14 15  2  0  0  0
 14 96  1  0  0  0
 15 97  1  0  0  0
 16 17  2  0  0  0
 16 21  1  0  0  0
 16 31  1  0  0  0
 17 18  1  0  0  0
 17 98  1  0  0  0
 18 19  2  0  0  0
 18 99  1  0  0  0
 19 20  1  0  0  0
 19 24  1  0  0  0
 20 21  2  0  0  0
 20100  1  0  0  0
 21 23  1  0  0  0
 22 28  1  0  0  0
 22 32  2  0  0  0
 26 27  1  0  0  0
 28101  1  0  0  0
 28102  1  0  0  0
 29103  1  0  0  0
 29104  1  0  0  0
 33 34  1  0  0  0
 33 66  1  0  0  0
 33 70  2  0  0  0
 34 36  1  0  0  0
 34 59  1  0  0  0
 34105  1  0  0  0
 35 44  2  0  0  0
 35 45  1  0  0  0
 35 68  1  0  0  0
 36 56  1  0  0  0
 36106  1  0  0  0
 37 39  1  0  0  0
 37 47  1  0  0  0
 37 66  1  0  0  0
 37107  1  0  0  0
 38 43  2  0  0  0
 38 46  1  0  0  0
 38 47  1  0  0  0
 39 64  1  0  0  0
 39 67  2  0  0  0
 40 52  1  0  0  0
 40 53  2  0  0  0
 40 58  1  0  0  0
 41108  1  0  0  0
 41109  1  0  0  0
 41110  1  0  0  0
 41 48  1  0  0  0
 42 43  1  0  0  0
 42 66  1  0  0  0
 42111  1  0  0  0
 42112  1  0  0  0
 43 44  1  0  0  0
 44113  1  0  0  0
 45 46  2  0  0  0
 45114  1  0  0  0
 46115  1  0  0  0
 47116  1  0  0  0
 47117  1  0  0  0
 48 56  1  0  0  0
 48 65  1  0  0  0
 48118  1  0  0  0
 49 50  1  0  0  0
 49 53  1  0  0  0
 49 64  1  0  0  0
 49119  1  0  0  0
 50 51  1  0  0  0
 50120  1  0  0  0
 50121  1  0  0  0
 51 52  1  0  0  0
 51122  1  0  0  0
 51123  1  0  0  0
 52124  1  0  0  0
 52125  1  0  0  0
 53 54  1  0  0  0
 54 55  2  0  0  0
 54126  1  0  0  0
 55 57  1  0  0  0
 55127  1  0  0  0
 56 69  2  0  0  0
 57 58  2  0  0  0
 57128  1  0  0  0
 58129  1  0  0  0
 59 60  1  0  0  0
 59 61  1  0  0  0
 59 62  1  0  0  0
 60130  1  0  0  0
 60131  1  0  0  0
 60132  1  0  0  0
 61133  1  0  0  0
 61134  1  0  0  0
 61135  1  0  0  0
 62136  1  0  0  0
 62137  1  0  0  0
 62138  1  0  0  0
 63 65  1  0  0  0
 63139  1  0  0  0
 63140  1  0  0  0
 63141  1  0  0  0
 64142  1  0  0  0
 65143  1  0  0  0
 68 81  1  0  0  0
 71 72  2  0  0  0
 71 83  1  0  0  0
 71144  1  0  0  0
 72 73  1  0  0  0
 72 78  1  0  0  0
 73 74  2  0  0  0
 73 82  1  0  0  0
 74 75  1  0  0  0
 74 83  1  0  0  0
 75145  1  0  0  0
 75146  1  0  0  0
 75147  1  0  0  0
 76148  1  0  0  0
 76149  1  0  0  0
 76150  1  0  0  0
 76 82  1  0  0  0
 77 82  1  0  0  0
 77151  1  0  0  0
 77152  1  0  0  0
 77153  1  0  0  0
 78 84  1  0  0  0
 78154  1  0  0  0
 78155  1  0  0  0
 79 80  1  0  0  0
 79 81  1  0  0  0
 79156  1  0  0  0
 79157  1  0  0  0
 80 83  1  0  0  0
 80158  1  0  0  0
 80159  1  0  0  0
 81160  1  0  0  0
 81161  1  0  0  0
 82162  1  0  0  0
 84163  1  0  0  0
M  ISO  4   1 100  68 101  81 101  84 100
M  END
> <chiral flag>
0

> <version>
0

> <s_m_source_file>
/data/baiqing/PycharmProjects/Reinvent-master-3.2/result/LINK_invent/BTK/process_docking_weight1_custom_sum_contain_oxygen_bond_distance_aromatic_linkinvent_7_9_3/rearranged_h_0105.sdf

> <i_m_source_file_index>
70

> <r_mmod_Potential_Energy-OPLS-2005>
66.3140640258789

> <r_mmod_Stretch_Energy-OPLS-2005>
118.516647338867

> <r_mmod_Bend_Energy-OPLS-2005>
183.397125244141

> <r_mmod_Torsional_Energy-OPLS-2005>
227.007141113281

> <r_mmod_Improper_Torsional_Energy-OPLS-2005>
5.54994773864746

> <r_mmod_Van_der_Waal_Energy-OPLS-2005>
114.190338134766

> <r_mmod_Electrostatic_Energy-OPLS-2005>
-455.523193359375

> <r_mmod_Solvation_Energy-OPLS-2005>
-211.387069702148

> <b_mmod_Minimization_Converged-OPLS-2005>
0

> <r_mmod_RMS_Derivative-OPLS-2005>
0.612600326538086

$$$$
70
                    3D
 Structure written by MMmdl.
152159  0  0  1  0            999 V2000
  -30.4044  -15.2614   20.3824 C   0  0  0  0  0  0
  -30.4373  -12.8145   19.4888 C   0  0  0  0  0  0
  -29.5201  -12.5628   18.2646 C   0  0  0  0  0  0
  -28.0700  -12.2955   18.7059 C   0  0  0  0  0  0
  -27.6063  -13.2701   19.8187 C   0  0  2  0  0  0
  -28.6476  -13.4220   20.9431 C   0  0  0  0  0  0
  -25.2349  -13.8225   20.5757 C   0  0  0  0  0  0
  -24.1732  -13.0416   20.9294 C   0  0  0  0  0  0
  -24.6372  -11.6924   20.8768 C   0  0  0  0  0  0
  -23.9069  -10.4289   21.0404 C   0  0  0  0  0  0
  -24.3611   -9.4203   21.9192 C   0  0  0  0  0  0
  -23.6281   -8.2233   22.0748 C   0  0  0  0  0  0
  -22.4264   -8.0264   21.3541 C   0  0  0  0  0  0
  -21.9909   -9.0232   20.4649 C   0  0  0  0  0  0
  -22.7238  -10.2109   20.3064 C   0  0  0  0  0  0
  -21.6838   -6.0725   22.5281 C   0  0  0  0  0  0
  -21.4017   -6.5629   23.8213 C   0  0  0  0  0  0
  -21.3658   -5.6794   24.9180 C   0  0  0  0  0  0
  -21.6045   -4.3054   24.7245 C   0  0  0  0  0  0
  -21.8829   -3.8141   23.4358 C   0  0  0  0  0  0
  -21.9185   -4.6951   22.3416 C   0  0  0  0  0  0
  -22.7743  -13.5146   21.1953 C   0  0  0  0  0  0
  -22.1657   -4.2136   21.0990 F   0  0  0  0  0  0
  -21.5616   -3.4544   25.7747 F   0  0  0  0  0  0
  -29.8631  -13.9488   20.3014 N   0  0  0  0  0  0
  -26.2790  -12.9506   20.3225 N   0  0  0  0  0  0
  -25.9304  -11.6614   20.5713 N   0  0  0  0  0  0
  -22.0414  -12.8114   22.0494 N   0  0  0  0  0  0
  -25.3962  -15.1963   20.4191 N   0  0  0  0  0  0
  -31.6362  -15.2847   20.2542 O   0  0  0  0  0  0
  -21.6625   -6.8867   21.4247 O   0  0  0  0  0  0
  -22.3436  -14.5463   20.6794 O   0  0  0  0  0  0
  -24.6676  -31.8247   23.1738 C   0  0  0  0  0  0
  -25.9375  -32.4576   23.8181 C   0  0  1  0  0  0
  -27.2037  -26.9288   20.1945 C   0  0  0  0  0  0
  -25.6086  -33.8390   24.2144 N   0  0  0  0  0  0
  -23.4782  -30.4426   21.5207 C   0  0  2  0  0  0
  -24.9231  -28.8221   20.1206 C   0  0  0  0  0  0
  -22.7678  -29.4472   22.4754 C   0  0  0  0  0  0
  -18.0338  -28.1417   22.8477 C   0  0  0  0  0  0
  -24.1478  -36.7133   23.2650 C   0  0  0  0  0  0
  -26.0460  -30.6327   21.3995 C   0  0  0  0  0  0
  -26.1069  -29.2190   20.7535 C   0  0  0  0  0  0
  -27.2446  -28.2962   20.7637 C   0  0  0  0  0  0
  -25.9941  -26.6859   19.5070 C   0  0  0  0  0  0
  -24.8883  -27.5748   19.4784 C   0  0  0  0  0  0
  -23.7186  -29.7612   20.1460 C   0  0  0  0  0  0
  -25.4123  -36.2964   24.0333 C   0  0  1  0  0  0
  -20.5957  -28.3774   23.1157 C   0  0  2  0  0  0
  -20.6801  -26.9454   22.5386 C   0  0  0  0  0  0
  -19.5769  -26.6397   21.5204 C   0  0  0  0  0  0
  -18.1957  -26.7955   22.1626 C   0  0  0  0  0  0
  -19.1599  -28.8913   23.2808 C   0  0  0  0  0  0
  -18.9513  -30.1502   23.8854 C   0  0  0  0  0  0
  -17.6500  -30.6596   24.0572 C   0  0  0  0  0  0
  -25.9115  -34.9347   23.5041 C   0  0  0  0  0  0
  -16.5393  -29.9092   23.6348 C   0  0  0  0  0  0
  -16.7319  -28.6511   23.0371 C   0  0  0  0  0  0
  -26.4625  -31.6497   25.0695 C   0  0  0  0  0  0
  -25.3739  -31.3708   26.1333 C   0  0  0  0  0  0
  -27.0515  -30.2869   24.6415 C   0  0  0  0  0  0
  -27.6144  -32.4255   25.7514 C   0  0  0  0  0  0
  -27.5552  -37.1734   24.8497 C   0  0  0  0  0  0
  -21.4347  -29.3067   22.3500 N   0  0  0  0  0  0
  -26.4262  -37.3702   23.9448 N   0  0  0  0  0  0
  -24.7518  -30.9954   22.0838 N   0  0  0  0  0  0
  -23.4231  -28.8025   23.2981 O   0  0  0  0  0  0
  -28.2163  -25.8363   20.2131 O   0  0  0  0  0  0
  -26.5650  -34.8878   22.4594 O   0  0  0  0  0  0
  -23.5763  -32.1212   23.6860 O   0  0  0  0  0  0
  -30.3348  -23.0551   20.0718 C   0  0  0  0  0  0
  -27.4490  -21.0269   21.3967 C   0  0  0  0  0  0
  -29.6699  -18.1361   20.7952 C   0  0  0  0  0  0
  -29.1209  -19.6693   20.0162 C   0  0  0  0  0  0
  -27.9826  -24.2211   20.4883 C   0  0  0  0  0  0
  -28.8470  -22.6955   20.0403 C   0  0  2  0  0  0
  -29.5924  -16.5058   20.3995 N   0  0  0  0  0  0
  -28.7433  -21.1562   20.6947 N   0  3  1  0  0  0
  -31.4422  -13.0533   19.1372 H   0  0  0  0  0  0
  -30.5355  -11.9090   20.0888 H   0  0  0  0  0  0
  -29.8887  -11.7233   17.6745 H   0  0  0  0  0  0
  -29.5444  -13.4297   17.6032 H   0  0  0  0  0  0
  -28.0192  -11.2710   19.0788 H   0  0  0  0  0  0
  -27.3923  -12.3375   17.8529 H   0  0  0  0  0  0
  -27.5234  -14.2458   19.3371 H   0  0  0  0  0  0
  -28.8245  -12.4726   21.4541 H   0  0  0  0  0  0
  -28.2909  -14.1220   21.7005 H   0  0  0  0  0  0
  -25.2737   -9.5677   22.4774 H   0  0  0  0  0  0
  -23.9986   -7.4622   22.7463 H   0  0  0  0  0  0
  -21.0848   -8.8754   19.8939 H   0  0  0  0  0  0
  -22.3691  -10.9650   19.6177 H   0  0  0  0  0  0
  -21.2006   -7.6146   23.9722 H   0  0  0  0  0  0
  -21.1471   -6.0517   25.9084 H   0  0  0  0  0  0
  -22.0605   -2.7599   23.2871 H   0  0  0  0  0  0
  -22.4006  -11.9730   22.4825 H   0  0  0  0  0  0
  -21.1059  -13.1188   22.2759 H   0  0  0  0  0  0
  -24.6232  -15.8432   20.5344 H   0  0  0  0  0  0
  -26.2286  -15.6371   20.0537 H   0  0  0  0  0  0
  -26.7452  -32.5134   23.0893 H   0  0  0  0  0  0
  -25.0401  -33.9459   25.0423 H   0  0  0  0  0  0
  -22.7966  -31.2801   21.3520 H   0  0  0  0  0  0
  -23.3797  -35.9395   23.3295 H   0  0  0  0  0  0
  -24.3551  -36.8769   22.2063 H   0  0  0  0  0  0
  -23.7151  -37.6301   23.6665 H   0  0  0  0  0  0
  -26.2321  -31.3709   20.6176 H   0  0  0  0  0  0
  -26.9046  -30.6843   22.0553 H   0  0  0  0  0  0
  -28.1440  -28.6099   21.2742 H   0  0  0  0  0  0
  -25.8823  -25.7479   18.9840 H   0  0  0  0  0  0
  -23.9890  -27.2768   18.9567 H   0  0  0  0  0  0
  -23.8959  -30.5299   19.3929 H   0  0  0  0  0  0
  -22.8242  -29.2306   19.8174 H   0  0  0  0  0  0
  -25.1305  -36.1756   25.0813 H   0  0  0  0  0  0
  -21.0062  -28.3380   24.1270 H   0  0  0  0  0  0
  -20.5670  -26.2407   23.3642 H   0  0  0  0  0  0
  -21.6667  -26.7424   22.1205 H   0  0  0  0  0  0
  -19.6925  -25.6292   21.1281 H   0  0  0  0  0  0
  -19.6689  -27.3172   20.6697 H   0  0  0  0  0  0
  -17.4232  -26.6733   21.4028 H   0  0  0  0  0  0
  -18.0332  -26.0096   22.9009 H   0  0  0  0  0  0
  -19.7995  -30.7328   24.2203 H   0  0  0  0  0  0
  -17.5065  -31.6277   24.5181 H   0  0  0  0  0  0
  -15.5395  -30.2986   23.7678 H   0  0  0  0  0  0
  -15.8733  -28.0814   22.7093 H   0  0  0  0  0  0
  -24.5993  -30.6984   25.7624 H   0  0  0  0  0  0
  -24.8845  -32.2874   26.4632 H   0  0  0  0  0  0
  -25.7963  -30.8991   27.0215 H   0  0  0  0  0  0
  -26.3136  -29.6499   24.1516 H   0  0  0  0  0  0
  -27.4178  -29.7284   25.5050 H   0  0  0  0  0  0
  -27.9042  -30.4082   23.9721 H   0  0  0  0  0  0
  -27.2775  -33.3625   26.1951 H   0  0  0  0  0  0
  -28.4040  -32.6665   25.0381 H   0  0  0  0  0  0
  -28.0684  -31.8446   26.5562 H   0  0  0  0  0  0
  -28.2602  -38.0013   24.7561 H   0  0  0  0  0  0
  -28.1034  -36.2555   24.6313 H   0  0  0  0  0  0
  -27.2275  -37.1342   25.8906 H   0  0  0  0  0  0
  -20.9592  -29.8740   21.6616 H   0  0  0  0  0  0
  -26.0128  -38.2763   24.1467 H   0  0  0  0  0  0
  -30.5285  -23.9805   19.5282 H   0  0  0  0  0  0
  -30.9420  -22.2747   19.6177 H   0  0  0  0  0  0
  -30.6817  -23.1895   21.0975 H   0  0  0  0  0  0
  -27.3988  -20.0951   21.9615 H   0  0  0  0  0  0
  -26.6169  -21.0443   20.6916 H   0  0  0  0  0  0
  -27.3056  -21.8400   22.1065 H   0  0  0  0  0  0
  -29.1650  -18.1491   21.7629 H   0  0  0  0  0  0
  -30.7133  -18.3078   21.0627 H   0  0  0  0  0  0
  -28.2578  -19.4059   19.4048 H   0  0  0  0  0  0
  -29.8953  -19.9037   19.2868 H   0  0  0  0  0  0
  -27.9759  -24.1971   21.5765 H   0  0  0  0  0  0
  -26.9366  -24.0379   20.2400 H   0  0  0  0  0  0
  -28.5775  -22.5526   18.9937 H   0  0  0  0  0  0
  -28.6217  -16.2501   20.2876 H   0  0  0  0  0  0
  -29.4059  -21.2092   21.4556 H   0  0  0  0  0  0
  1 25  1  0  0  0
  1 30  2  0  0  0
  1 77  1  0  0  0
  2  3  1  0  0  0
  2 25  1  0  0  0
  2 79  1  0  0  0
  2 80  1  0  0  0
  3  4  1  0  0  0
  3 81  1  0  0  0
  3 82  1  0  0  0
  4  5  1  0  0  0
  4 83  1  0  0  0
  4 84  1  0  0  0
  5  6  1  0  0  0
  5 26  1  0  0  0
  5 85  1  0  0  0
  6 25  1  0  0  0
  6 86  1  0  0  0
  6 87  1  0  0  0
  7  8  2  0  0  0
  7 26  1  0  0  0
  7 29  1  0  0  0
  8  9  1  0  0  0
  8 22  1  0  0  0
  9 10  1  0  0  0
  9 27  2  0  0  0
 10 11  2  0  0  0
 10 15  1  0  0  0
 11 12  1  0  0  0
 11 88  1  0  0  0
 12 13  2  0  0  0
 12 89  1  0  0  0
 13 14  1  0  0  0
 13 31  1  0  0  0
 14 15  2  0  0  0
 14 90  1  0  0  0
 15 91  1  0  0  0
 16 17  2  0  0  0
 16 21  1  0  0  0
 16 31  1  0  0  0
 17 18  1  0  0  0
 17 92  1  0  0  0
 18 19  2  0  0  0
 18 93  1  0  0  0
 19 20  1  0  0  0
 19 24  1  0  0  0
 20 21  2  0  0  0
 20 94  1  0  0  0
 21 23  1  0  0  0
 22 28  1  0  0  0
 22 32  2  0  0  0
 26 27  1  0  0  0
 28 95  1  0  0  0
 28 96  1  0  0  0
 29 97  1  0  0  0
 29 98  1  0  0  0
 33 34  1  0  0  0
 33 66  1  0  0  0
 33 70  2  0  0  0
 34 36  1  0  0  0
 34 59  1  0  0  0
 34 99  1  0  0  0
 35 44  2  0  0  0
 35 45  1  0  0  0
 35 68  1  0  0  0
 36 56  1  0  0  0
 36100  1  0  0  0
 37 39  1  0  0  0
 37 47  1  0  0  0
 37 66  1  0  0  0
 37101  1  0  0  0
 38 43  2  0  0  0
 38 46  1  0  0  0
 38 47  1  0  0  0
 39 64  1  0  0  0
 39 67  2  0  0  0
 40 52  1  0  0  0
 40 53  2  0  0  0
 40 58  1  0  0  0
 41102  1  0  0  0
 41103  1  0  0  0
 41104  1  0  0  0
 41 48  1  0  0  0
 42 43  1  0  0  0
 42 66  1  0  0  0
 42105  1  0  0  0
 42106  1  0  0  0
 43 44  1  0  0  0
 44107  1  0  0  0
 45 46  2  0  0  0
 45108  1  0  0  0
 46109  1  0  0  0
 47110  1  0  0  0
 47111  1  0  0  0
 48 56  1  0  0  0
 48 65  1  0  0  0
 48112  1  0  0  0
 49 50  1  0  0  0
 49 53  1  0  0  0
 49 64  1  0  0  0
 49113  1  0  0  0
 50 51  1  0  0  0
 50114  1  0  0  0
 50115  1  0  0  0
 51 52  1  0  0  0
 51116  1  0  0  0
 51117  1  0  0  0
 52118  1  0  0  0
 52119  1  0  0  0
 53 54  1  0  0  0
 54 55  2  0  0  0
 54120  1  0  0  0
 55 57  1  0  0  0
 55121  1  0  0  0
 56 69  2  0  0  0
 57 58  2  0  0  0
 57122  1  0  0  0
 58123  1  0  0  0
 59 60  1  0  0  0
 59 61  1  0  0  0
 59 62  1  0  0  0
 60124  1  0  0  0
 60125  1  0  0  0
 60126  1  0  0  0
 61127  1  0  0  0
 61128  1  0  0  0
 61129  1  0  0  0
 62130  1  0  0  0
 62131  1  0  0  0
 62132  1  0  0  0
 63 65  1  0  0  0
 63133  1  0  0  0
 63134  1  0  0  0
 63135  1  0  0  0
 64136  1  0  0  0
 65137  1  0  0  0
 68 75  1  0  0  0
 71138  1  0  0  0
 71139  1  0  0  0
 71140  1  0  0  0
 71 76  1  0  0  0
 72141  1  0  0  0
 72142  1  0  0  0
 72143  1  0  0  0
 72 78  1  0  0  0
 73 74  1  0  0  0
 73 77  1  0  0  0
 73144  1  0  0  0
 73145  1  0  0  0
 74 78  1  0  0  0
 74146  1  0  0  0
 74147  1  0  0  0
 75 76  1  0  0  0
 75148  1  0  0  0
 75149  1  0  0  0
 76 78  1  0  0  0
 76150  1  0  0  0
 77151  1  0  0  0
 78152  1  0  0  0
M  CHG  1  78   1
M  ISO  4   1 100  68 101  75 101  77 100
M  END
> <chiral flag>
0

> <version>
0

> <s_m_source_file>
/data/baiqing/PycharmProjects/Reinvent-master-3.2/result/LINK_invent/BTK/process_docking_weight1_custom_sum_contain_oxygen_bond_distance_aromatic_linkinvent_7_9_3/rearranged_h_0105.sdf

> <i_m_source_file_index>
71

> <r_mmod_Potential_Energy-OPLS-2005>
1210.08081054688

> <r_mmod_Stretch_Energy-OPLS-2005>
613.456726074219

> <r_mmod_Bend_Energy-OPLS-2005>
451.528350830078

> <r_mmod_Torsional_Energy-OPLS-2005>
254.70719909668

> <r_mmod_Improper_Torsional_Energy-OPLS-2005>
4.6590895652771

> <r_mmod_Van_der_Waal_Energy-OPLS-2005>
105.194412231445

> <r_mmod_Electrostatic_Energy-OPLS-2005>
-218.843017578125

> <r_mmod_Solvation_Energy-OPLS-2005>
-456.774017333984

> <b_mmod_Minimization_Converged-OPLS-2005>
0

> <r_mmod_RMS_Derivative-OPLS-2005>
4.15421915054321

$$$$
71
                    3D
 Structure written by MMmdl.
166174  0  0  1  0            999 V2000
  -30.6733  -14.5401   20.5372 C   0  0  0  0  0  0
  -30.4247  -12.3382   19.4384 C   0  0  0  0  0  0
  -29.5037  -12.5095   18.2128 C   0  0  0  0  0  0
  -28.0254  -12.3548   18.6187 C   0  0  0  0  0  0
  -27.6574  -13.2066   19.8655 C   0  0  2  0  0  0
  -28.6992  -13.0333   20.9953 C   0  0  0  0  0  0
  -25.2579  -13.8144   20.5623 C   0  0  0  0  0  0
  -24.1851  -13.0425   20.9165 C   0  0  0  0  0  0
  -24.6405  -11.6895   20.8730 C   0  0  0  0  0  0
  -23.9068  -10.4286   21.0401 C   0  0  0  0  0  0
  -24.3628   -9.4218   21.9181 C   0  0  0  0  0  0
  -23.6308   -8.2251   22.0759 C   0  0  0  0  0  0
  -22.4285   -8.0291   21.3549 C   0  0  0  0  0  0
  -21.9919   -9.0259   20.4649 C   0  0  0  0  0  0
  -22.7238  -10.2143   20.3051 C   0  0  0  0  0  0
  -21.6859   -6.0759   22.5286 C   0  0  0  0  0  0
  -21.4013   -6.5656   23.8226 C   0  0  0  0  0  0
  -21.3660   -5.6802   24.9182 C   0  0  0  0  0  0
  -21.6046   -4.3063   24.7219 C   0  0  0  0  0  0
  -21.8826   -3.8158   23.4336 C   0  0  0  0  0  0
  -21.9196   -4.6984   22.3404 C   0  0  0  0  0  0
  -22.7877  -13.5233   21.1834 C   0  0  0  0  0  0
  -22.1650   -4.2175   21.0971 F   0  0  0  0  0  0
  -21.5646   -3.4538   25.7726 F   0  0  0  0  0  0
  -30.0237  -13.3443   20.4370 N   0  0  0  0  0  0
  -26.3007  -12.9310   20.3289 N   0  0  0  0  0  0
  -25.9333  -11.6475   20.5744 N   0  0  0  0  0  0
  -22.0505  -12.8249   22.0399 N   0  0  0  0  0  0
  -25.4275  -15.1862   20.4015 N   0  0  0  0  0  0
  -31.8209  -14.7032   20.1147 O   0  0  0  0  0  0
  -21.6643   -6.8896   21.4252 O   0  0  0  0  0  0
  -22.3585  -14.5547   20.6683 O   0  0  0  0  0  0
  -24.6195  -31.8656   23.2077 C   0  0  0  0  0  0
  -25.9067  -32.4815   23.8387 C   0  0  1  0  0  0
  -27.2305  -27.3942   20.1119 C   0  0  0  0  0  0
  -25.5907  -33.8613   24.2318 N   0  0  0  0  0  0
  -23.4110  -30.4879   21.5478 C   0  0  2  0  0  0
  -24.8619  -28.9551   20.1086 C   0  0  0  0  0  0
  -22.7454  -29.4633   22.4963 C   0  0  0  0  0  0
  -18.0280  -28.1376   22.8496 C   0  0  0  0  0  0
  -24.1490  -36.7306   23.2636 C   0  0  0  0  0  0
  -25.9449  -30.8209   21.3675 C   0  0  0  0  0  0
  -26.0250  -29.4541   20.7110 C   0  0  0  0  0  0
  -27.2168  -28.6829   20.7063 C   0  0  0  0  0  0
  -26.0568  -26.9318   19.4805 C   0  0  0  0  0  0
  -24.8760  -27.6966   19.4833 C   0  0  0  0  0  0
  -23.6233  -29.8226   20.1619 C   0  0  0  0  0  0
  -25.4114  -36.3105   24.0335 C   0  0  1  0  0  0
  -20.5882  -28.3667   23.1312 C   0  0  2  0  0  0
  -20.6770  -26.9397   22.5420 C   0  0  0  0  0  0
  -19.5743  -26.6381   21.5222 C   0  0  0  0  0  0
  -18.1925  -26.7923   22.1631 C   0  0  0  0  0  0
  -19.1534  -28.8840   23.2902 C   0  0  0  0  0  0
  -18.9452  -30.1446   23.8910 C   0  0  0  0  0  0
  -17.6452  -30.6585   24.0559 C   0  0  0  0  0  0
  -25.9041  -34.9472   23.5124 C   0  0  0  0  0  0
  -16.5343  -29.9081   23.6326 C   0  0  0  0  0  0
  -16.7268  -28.6498   23.0352 C   0  0  0  0  0  0
  -26.4476  -31.6602   25.0726 C   0  0  0  0  0  0
  -25.3726  -31.3711   26.1463 C   0  0  0  0  0  0
  -27.0306  -30.3041   24.6117 C   0  0  0  0  0  0
  -27.6056  -32.4318   25.7485 C   0  0  0  0  0  0
  -27.5583  -37.1811   24.8464 C   0  0  0  0  0  0
  -21.4173  -29.3028   22.3714 N   0  0  0  0  0  0
  -26.4298  -37.3792   23.9405 N   0  0  0  0  0  0
  -24.6769  -31.0732   22.0983 N   0  0  0  0  0  0
  -23.4216  -28.8174   23.3013 O   0  0  0  0  0  0
  -28.3317  -26.5537   20.1679 O   0  0  0  0  0  0
  -26.5604  -34.8923   22.4686 O   0  0  0  0  0  0
  -23.5380  -32.1403   23.7452 O   0  0  0  0  0  0
  -30.6996  -19.9749   19.7345 C   0  0  0  0  0  0
  -28.6972  -20.5957   20.4528 C   0  0  0  0  0  0
  -29.4785  -19.4699   20.2704 C   0  0  0  0  0  0
  -30.5958  -21.3271   19.5278 C   0  0  0  0  0  0
  -31.5825  -22.2412   18.8707 C   0  0  0  0  0  0
  -30.5365  -24.5825   21.0284 C   0  0  0  0  0  0
  -28.5147  -17.4883   19.1289 C   0  0  0  0  0  0
  -27.9841  -17.8765   21.5468 C   0  0  0  0  0  0
  -28.7274  -23.0928   19.8657 C   0  0  0  0  0  0
  -30.2843  -17.0371   20.8757 C   0  0  0  0  0  0
  -28.0980  -25.3959   21.0192 C   0  0  0  0  0  0
  -29.0632  -24.1579   20.9651 C   0  0  2  0  0  0
  -29.0878  -17.9809   20.4730 C   0  0  0  0  0  0
  -29.3452  -21.7410   19.9806 N   0  0  0  0  0  0
  -29.9283  -15.5906   20.9518 N   0  0  0  0  0  0
  -31.4700  -12.4395   19.1412 H   0  0  0  0  0  0
  -30.3269  -11.3327   19.8512 H   0  0  0  0  0  0
  -29.7616  -11.7817   17.4437 H   0  0  0  0  0  0
  -29.6673  -13.4922   17.7660 H   0  0  0  0  0  0
  -27.8488  -11.2978   18.8205 H   0  0  0  0  0  0
  -27.3759  -12.6117   17.7800 H   0  0  0  0  0  0
  -27.6843  -14.2461   19.5463 H   0  0  0  0  0  0
  -28.6864  -12.0094   21.3713 H   0  0  0  0  0  0
  -28.4564  -13.6687   21.8489 H   0  0  0  0  0  0
  -25.2781   -9.5713   22.4755 H   0  0  0  0  0  0
  -24.0034   -7.4652   22.7482 H   0  0  0  0  0  0
  -21.0856   -8.8770   19.8954 H   0  0  0  0  0  0
  -22.3685  -10.9692   19.6166 H   0  0  0  0  0  0
  -21.1987   -7.6161   23.9733 H   0  0  0  0  0  0
  -21.1478   -6.0523   25.9087 H   0  0  0  0  0  0
  -22.0600   -2.7620   23.2816 H   0  0  0  0  0  0
  -22.4068  -11.9895   22.4807 H   0  0  0  0  0  0
  -21.1129  -13.1315   22.2574 H   0  0  0  0  0  0
  -24.6554  -15.8351   20.5060 H   0  0  0  0  0  0
  -26.2756  -15.6310   20.0773 H   0  0  0  0  0  0
  -26.7143  -32.5526   23.1155 H   0  0  0  0  0  0
  -25.0062  -33.9771   25.0465 H   0  0  0  0  0  0
  -22.7002  -31.3051   21.4078 H   0  0  0  0  0  0
  -23.3753  -35.9641   23.3311 H   0  0  0  0  0  0
  -24.3577  -36.8912   22.2049 H   0  0  0  0  0  0
  -23.7248  -37.6515   23.6645 H   0  0  0  0  0  0
  -26.0659  -31.5885   20.6019 H   0  0  0  0  0  0
  -26.8295  -30.8727   21.9905 H   0  0  0  0  0  0
  -28.1107  -29.0556   21.1874 H   0  0  0  0  0  0
  -26.0508  -25.9621   19.0025 H   0  0  0  0  0  0
  -23.9865  -27.3100   19.0059 H   0  0  0  0  0  0
  -23.7307  -30.5989   19.4036 H   0  0  0  0  0  0
  -22.7481  -29.2419   19.8655 H   0  0  0  0  0  0
  -25.1300  -36.1963   25.0828 H   0  0  0  0  0  0
  -20.9976  -28.3228   24.1431 H   0  0  0  0  0  0
  -20.5685  -26.2268   23.3607 H   0  0  0  0  0  0
  -21.6637  -26.7436   22.1199 H   0  0  0  0  0  0
  -19.6899  -25.6297   21.1238 H   0  0  0  0  0  0
  -19.6687  -27.3204   20.6765 H   0  0  0  0  0  0
  -17.4199  -26.6688   21.4027 H   0  0  0  0  0  0
  -18.0308  -26.0063   22.9021 H   0  0  0  0  0  0
  -19.7927  -30.7262   24.2292 H   0  0  0  0  0  0
  -17.5000  -31.6268   24.5153 H   0  0  0  0  0  0
  -15.5343  -30.2979   23.7642 H   0  0  0  0  0  0
  -15.8669  -28.0814   22.7057 H   0  0  0  0  0  0
  -24.5902  -30.7060   25.7785 H   0  0  0  0  0  0
  -24.8909  -32.2864   26.4914 H   0  0  0  0  0  0
  -25.8064  -30.8868   27.0220 H   0  0  0  0  0  0
  -26.2853  -29.6807   24.1158 H   0  0  0  0  0  0
  -27.4055  -29.7277   25.4585 H   0  0  0  0  0  0
  -27.8703  -30.4356   23.9287 H   0  0  0  0  0  0
  -27.2686  -33.3615   26.2084 H   0  0  0  0  0  0
  -28.3853  -32.6884   25.0300 H   0  0  0  0  0  0
  -28.0735  -31.8423   26.5380 H   0  0  0  0  0  0
  -28.2612  -38.0099   24.7511 H   0  0  0  0  0  0
  -28.1072  -36.2633   24.6298 H   0  0  0  0  0  0
  -27.2295  -37.1469   25.8865 H   0  0  0  0  0  0
  -20.9341  -29.8751   21.6932 H   0  0  0  0  0  0
  -26.0187  -38.2873   24.1399 H   0  0  0  0  0  0
  -31.5589  -19.3832   19.4474 H   0  0  0  0  0  0
  -27.6806  -20.6761   20.8147 H   0  0  0  0  0  0
  -32.1216  -21.7153   18.0813 H   0  0  0  0  0  0
  -32.3214  -22.6006   19.5863 H   0  0  0  0  0  0
  -31.1055  -23.1033   18.4081 H   0  0  0  0  0  0
  -31.1759  -23.7311   21.2577 H   0  0  0  0  0  0
  -30.6974  -25.3218   21.8133 H   0  0  0  0  0  0
  -30.8673  -25.0203   20.0868 H   0  0  0  0  0  0
  -27.6826  -18.1104   18.8008 H   0  0  0  0  0  0
  -28.1456  -16.4662   19.1834 H   0  0  0  0  0  0
  -29.2718  -17.5176   18.3438 H   0  0  0  0  0  0
  -27.0841  -18.4182   21.2561 H   0  0  0  0  0  0
  -28.3187  -18.2840   22.5025 H   0  0  0  0  0  0
  -27.6779  -16.8447   21.7153 H   0  0  0  0  0  0
  -28.9516  -23.5010   18.8803 H   0  0  0  0  0  0
  -27.6474  -22.9396   19.8611 H   0  0  0  0  0  0
  -30.6921  -17.3406   21.8416 H   0  0  0  0  0  0
  -31.0943  -17.1669   20.1572 H   0  0  0  0  0  0
  -28.1246  -25.7823   22.0395 H   0  0  0  0  0  0
  -27.0825  -25.0162   20.9017 H   0  0  0  0  0  0
  -28.8722  -23.6357   21.9036 H   0  0  0  0  0  0
  -28.9920  -15.3772   21.2575 H   0  0  0  0  0  0
  1 25  1  0  0  0
  1 30  2  0  0  0
  1 85  1  0  0  0
  2  3  1  0  0  0
  2 25  1  0  0  0
  2 86  1  0  0  0
  2 87  1  0  0  0
  3  4  1  0  0  0
  3 88  1  0  0  0
  3 89  1  0  0  0
  4  5  1  0  0  0
  4 90  1  0  0  0
  4 91  1  0  0  0
  5  6  1  0  0  0
  5 26  1  0  0  0
  5 92  1  0  0  0
  6 25  1  0  0  0
  6 93  1  0  0  0
  6 94  1  0  0  0
  7  8  2  0  0  0
  7 26  1  0  0  0
  7 29  1  0  0  0
  8  9  1  0  0  0
  8 22  1  0  0  0
  9 10  1  0  0  0
  9 27  2  0  0  0
 10 11  2  0  0  0
 10 15  1  0  0  0
 11 12  1  0  0  0
 11 95  1  0  0  0
 12 13  2  0  0  0
 12 96  1  0  0  0
 13 14  1  0  0  0
 13 31  1  0  0  0
 14 15  2  0  0  0
 14 97  1  0  0  0
 15 98  1  0  0  0
 16 17  2  0  0  0
 16 21  1  0  0  0
 16 31  1  0  0  0
 17 18  1  0  0  0
 17 99  1  0  0  0
 18 19  2  0  0  0
 18100  1  0  0  0
 19 20  1  0  0  0
 19 24  1  0  0  0
 20 21  2  0  0  0
 20101  1  0  0  0
 21 23  1  0  0  0
 22 28  1  0  0  0
 22 32  2  0  0  0
 26 27  1  0  0  0
 28102  1  0  0  0
 28103  1  0  0  0
 29104  1  0  0  0
 29105  1  0  0  0
 33 34  1  0  0  0
 33 66  1  0  0  0
 33 70  2  0  0  0
 34 36  1  0  0  0
 34 59  1  0  0  0
 34106  1  0  0  0
 35 44  2  0  0  0
 35 45  1  0  0  0
 35 68  1  0  0  0
 36 56  1  0  0  0
 36107  1  0  0  0
 37 39  1  0  0  0
 37 47  1  0  0  0
 37 66  1  0  0  0
 37108  1  0  0  0
 38 43  2  0  0  0
 38 46  1  0  0  0
 38 47  1  0  0  0
 39 64  1  0  0  0
 39 67  2  0  0  0
 40 52  1  0  0  0
 40 53  2  0  0  0
 40 58  1  0  0  0
 41109  1  0  0  0
 41110  1  0  0  0
 41111  1  0  0  0
 41 48  1  0  0  0
 42 43  1  0  0  0
 42 66  1  0  0  0
 42112  1  0  0  0
 42113  1  0  0  0
 43 44  1  0  0  0
 44114  1  0  0  0
 45 46  2  0  0  0
 45115  1  0  0  0
 46116  1  0  0  0
 47117  1  0  0  0
 47118  1  0  0  0
 48 56  1  0  0  0
 48 65  1  0  0  0
 48119  1  0  0  0
 49 50  1  0  0  0
 49 53  1  0  0  0
 49 64  1  0  0  0
 49120  1  0  0  0
 50 51  1  0  0  0
 50121  1  0  0  0
 50122  1  0  0  0
 51 52  1  0  0  0
 51123  1  0  0  0
 51124  1  0  0  0
 52125  1  0  0  0
 52126  1  0  0  0
 53 54  1  0  0  0
 54 55  2  0  0  0
 54127  1  0  0  0
 55 57  1  0  0  0
 55128  1  0  0  0
 56 69  2  0  0  0
 57 58  2  0  0  0
 57129  1  0  0  0
 58130  1  0  0  0
 59 60  1  0  0  0
 59 61  1  0  0  0
 59 62  1  0  0  0
 60131  1  0  0  0
 60132  1  0  0  0
 60133  1  0  0  0
 61134  1  0  0  0
 61135  1  0  0  0
 61136  1  0  0  0
 62137  1  0  0  0
 62138  1  0  0  0
 62139  1  0  0  0
 63 65  1  0  0  0
 63140  1  0  0  0
 63141  1  0  0  0
 63142  1  0  0  0
 64143  1  0  0  0
 65144  1  0  0  0
 68 81  1  0  0  0
 71 73  1  0  0  0
 71 74  2  0  0  0
 71145  1  0  0  0
 72 73  2  0  0  0
 72 84  1  0  0  0
 72146  1  0  0  0
 73 83  1  0  0  0
 74 75  1  0  0  0
 74 84  1  0  0  0
 75147  1  0  0  0
 75148  1  0  0  0
 75149  1  0  0  0
 76150  1  0  0  0
 76151  1  0  0  0
 76152  1  0  0  0
 76 82  1  0  0  0
 77153  1  0  0  0
 77154  1  0  0  0
 77155  1  0  0  0
 77 83  1  0  0  0
 78 83  1  0  0  0
 78156  1  0  0  0
 78157  1  0  0  0
 78158  1  0  0  0
 79 82  1  0  0  0
 79 84  1  0  0  0
 79159  1  0  0  0
 79160  1  0  0  0
 80 83  1  0  0  0
 80 85  1  0  0  0
 80161  1  0  0  0
 80162  1  0  0  0
 81 82  1  0  0  0
 81163  1  0  0  0
 81164  1  0  0  0
 82165  1  0  0  0
 85166  1  0  0  0
M  ISO  4   1 100  68 101  81 101  85 100
M  END
> <chiral flag>
0

> <version>
0

> <s_m_source_file>
/data/baiqing/PycharmProjects/Reinvent-master-3.2/result/LINK_invent/BTK/process_docking_weight1_custom_sum_contain_oxygen_bond_distance_aromatic_linkinvent_7_9_3/rearranged_h_0105.sdf

> <i_m_source_file_index>
72

> <r_mmod_Potential_Energy-OPLS-2005>
-80.7965545654297

> <r_mmod_Stretch_Energy-OPLS-2005>
51.9434051513672

> <r_mmod_Bend_Energy-OPLS-2005>
121.355110168457

> <r_mmod_Torsional_Energy-OPLS-2005>
253.794647216797

> <r_mmod_Improper_Torsional_Energy-OPLS-2005>
5.4439377784729

> <r_mmod_Van_der_Waal_Energy-OPLS-2005>
119.273422241211

> <r_mmod_Electrostatic_Energy-OPLS-2005>
-459.240234375

> <r_mmod_Solvation_Energy-OPLS-2005>
-198.91552734375

> <b_mmod_Minimization_Converged-OPLS-2005>
0

> <r_mmod_RMS_Derivative-OPLS-2005>
1.97287476062775

$$$$
72
                    3D
 Structure written by MMmdl.
172180  0  0  1  0            999 V2000
  -30.6852  -14.5078   20.4515 C   0  0  0  0  0  0
  -30.4146  -12.2961   19.4431 C   0  0  0  0  0  0
  -29.5001  -12.4764   18.2146 C   0  0  0  0  0  0
  -28.0221  -12.3317   18.6231 C   0  0  0  0  0  0
  -27.6458  -13.1986   19.8555 C   0  0  2  0  0  0
  -28.6939  -13.0843   20.9879 C   0  0  0  0  0  0
  -25.2489  -13.7813   20.5599 C   0  0  0  0  0  0
  -24.1737  -13.0205   20.9181 C   0  0  0  0  0  0
  -24.6338  -11.6713   20.8809 C   0  0  0  0  0  0
  -23.9012  -10.4128   21.0496 C   0  0  0  0  0  0
  -24.3548   -9.4034   21.9258 C   0  0  0  0  0  0
  -23.6229   -8.2059   22.0750 C   0  0  0  0  0  0
  -22.4229   -8.0137   21.3531 C   0  0  0  0  0  0
  -21.9882   -9.0129   20.4637 C   0  0  0  0  0  0
  -22.7204  -10.2009   20.3107 C   0  0  0  0  0  0
  -21.6776   -6.0660   22.5313 C   0  0  0  0  0  0
  -21.3947   -6.5595   23.8243 C   0  0  0  0  0  0
  -21.3676   -5.6775   24.9223 C   0  0  0  0  0  0
  -21.6035   -4.3034   24.7288 C   0  0  0  0  0  0
  -21.8798   -3.8106   23.4423 C   0  0  0  0  0  0
  -21.9143   -4.6894   22.3455 C   0  0  0  0  0  0
  -22.7821  -13.5175   21.1844 C   0  0  0  0  0  0
  -22.1618   -4.2079   21.1039 F   0  0  0  0  0  0
  -21.5629   -3.4533   25.7817 F   0  0  0  0  0  0
  -30.0223  -13.3270   20.4095 N   0  0  0  0  0  0
  -26.2944  -12.9084   20.3289 N   0  0  0  0  0  0
  -25.9275  -11.6278   20.5813 N   0  0  0  0  0  0
  -22.0443  -12.8218   22.0421 N   0  0  0  0  0  0
  -25.4125  -15.1371   20.3893 N   0  0  0  0  0  0
  -31.8942  -14.6086   20.2521 O   0  0  0  0  0  0
  -21.6529   -6.8787   21.4271 O   0  0  0  0  0  0
  -22.3592  -14.5536   20.6750 O   0  0  0  0  0  0
  -24.6106  -31.8706   23.2139 C   0  0  0  0  0  0
  -25.9004  -32.4842   23.8425 C   0  0  1  0  0  0
  -27.2616  -27.4834   20.0973 C   0  0  0  0  0  0
  -25.5861  -33.8641   24.2358 N   0  0  0  0  0  0
  -23.3979  -30.4927   21.5524 C   0  0  2  0  0  0
  -24.8452  -28.9539   20.1246 C   0  0  0  0  0  0
  -22.7403  -29.4687   22.5039 C   0  0  0  0  0  0
  -18.0311  -28.1395   22.8543 C   0  0  0  0  0  0
  -24.1474  -36.7324   23.2641 C   0  0  0  0  0  0
  -25.9175  -30.8526   21.3548 C   0  0  0  0  0  0
  -25.9967  -29.4855   20.7124 C   0  0  0  0  0  0
  -27.2013  -28.7565   20.6944 C   0  0  0  0  0  0
  -26.0874  -26.9434   19.5181 C   0  0  0  0  0  0
  -24.8816  -27.6781   19.5287 C   0  0  0  0  0  0
  -23.6015  -29.8143   20.1703 C   0  0  0  0  0  0
  -25.4090  -36.3127   24.0351 C   0  0  1  0  0  0
  -20.5889  -28.3678   23.1386 C   0  0  2  0  0  0
  -20.6813  -26.9443   22.5427 C   0  0  0  0  0  0
  -19.5763  -26.6380   21.5286 C   0  0  0  0  0  0
  -18.1956  -26.7917   22.1738 C   0  0  0  0  0  0
  -19.1545  -28.8852   23.2965 C   0  0  0  0  0  0
  -18.9457  -30.1477   23.8935 C   0  0  0  0  0  0
  -17.6454  -30.6598   24.0570 C   0  0  0  0  0  0
  -25.9016  -34.9485   23.5152 C   0  0  0  0  0  0
  -16.5360  -29.9081   23.6324 C   0  0  0  0  0  0
  -16.7295  -28.6500   23.0351 C   0  0  0  0  0  0
  -26.4462  -31.6592   25.0717 C   0  0  0  0  0  0
  -25.3754  -31.3645   26.1478 C   0  0  0  0  0  0
  -27.0271  -30.3058   24.5998 C   0  0  0  0  0  0
  -27.6073  -32.4276   25.7459 C   0  0  0  0  0  0
  -27.5578  -37.1815   24.8477 C   0  0  0  0  0  0
  -21.4136  -29.3078   22.3817 N   0  0  0  0  0  0
  -26.4297  -37.3797   23.9411 N   0  0  0  0  0  0
  -24.6603  -31.0854   22.1004 N   0  0  0  0  0  0
  -23.4190  -28.8205   23.3039 O   0  0  0  0  0  0
  -28.5072  -26.8968   20.0688 O   0  0  0  0  0  0
  -26.5585  -34.8930   22.4720 O   0  0  0  0  0  0
  -23.5306  -32.1425   23.7569 O   0  0  0  0  0  0
  -28.9205  -20.3733   20.0493 C   0  0  0  0  0  0
  -28.4884  -19.0774   19.9997 C   0  0  0  0  0  0
  -27.0795  -19.1377   20.2298 C   0  0  0  0  0  0
  -26.7025  -20.4304   20.4787 C   0  0  0  0  0  0
  -26.1547  -17.9751   20.1850 C   0  0  0  0  0  0
  -24.5721  -21.8401   19.8770 C   0  0  0  0  0  0
  -25.3255  -21.5279   22.3086 C   0  0  0  0  0  0
  -29.6825  -25.4248   22.3032 C   0  0  0  0  0  0
  -29.3202  -17.8487   19.6370 C   0  0  0  0  0  0
  -28.8677  -23.2906   21.2464 C   0  0  0  0  0  0
  -27.9052  -22.6497   20.2484 C   0  0  0  0  0  0
  -29.3693  -16.6634   20.6461 C   0  0  0  0  0  0
  -28.6758  -25.4958   19.9444 C   0  0  0  0  0  0
  -25.3283  -20.9461   20.8888 C   0  0  0  0  0  0
  -28.6513  -24.8160   21.3355 C   0  0  2  0  0  0
  -27.8415  -21.2054   20.2970 N   0  0  0  0  0  0
  -29.9457  -15.5065   19.9535 N   0  0  0  0  0  0
  -31.4657  -12.3706   19.1608 H   0  0  0  0  0  0
  -30.2913  -11.3055   19.8826 H   0  0  0  0  0  0
  -29.7509  -11.7471   17.4458 H   0  0  0  0  0  0
  -29.6641  -13.4591   17.7677 H   0  0  0  0  0  0
  -27.8514  -11.2789   18.8492 H   0  0  0  0  0  0
  -27.3728  -12.5712   17.7808 H   0  0  0  0  0  0
  -27.6421  -14.2302   19.5064 H   0  0  0  0  0  0
  -28.6651  -12.1020   21.4597 H   0  0  0  0  0  0
  -28.4816  -13.8167   21.7707 H   0  0  0  0  0  0
  -25.2628   -9.5463   22.4944 H   0  0  0  0  0  0
  -23.9871   -7.4389   22.7443 H   0  0  0  0  0  0
  -21.0816   -8.8672   19.8924 H   0  0  0  0  0  0
  -22.3651  -10.9592   19.6270 H   0  0  0  0  0  0
  -21.1899   -7.6105   23.9745 H   0  0  0  0  0  0
  -21.1580   -6.0524   25.9145 H   0  0  0  0  0  0
  -22.0585   -2.7571   23.2981 H   0  0  0  0  0  0
  -22.4081  -11.9832   22.4707 H   0  0  0  0  0  0
  -21.1081  -13.1280   22.2683 H   0  0  0  0  0  0
  -24.6520  -15.7997   20.4742 H   0  0  0  0  0  0
  -26.2758  -15.5501   20.0631 H   0  0  0  0  0  0
  -26.7075  -32.5581   23.1200 H   0  0  0  0  0  0
  -25.0008  -33.9796   25.0500 H   0  0  0  0  0  0
  -22.6840  -31.3073   21.4109 H   0  0  0  0  0  0
  -23.3730  -35.9671   23.3335 H   0  0  0  0  0  0
  -24.3576  -36.8898   22.2055 H   0  0  0  0  0  0
  -23.7233  -37.6546   23.6620 H   0  0  0  0  0  0
  -26.0065  -31.6126   20.5775 H   0  0  0  0  0  0
  -26.8140  -30.9201   21.9582 H   0  0  0  0  0  0
  -28.0977  -29.1740   21.1322 H   0  0  0  0  0  0
  -26.0843  -25.9805   19.0308 H   0  0  0  0  0  0
  -23.9929  -27.2603   19.0741 H   0  0  0  0  0  0
  -23.6983  -30.5824   19.4017 H   0  0  0  0  0  0
  -22.7283  -29.2255   19.8852 H   0  0  0  0  0  0
  -25.1261  -36.2016   25.0850 H   0  0  0  0  0  0
  -21.0026  -28.3168   24.1481 H   0  0  0  0  0  0
  -21.6676  -26.7538   22.1173 H   0  0  0  0  0  0
  -20.5805  -26.2288   23.3597 H   0  0  0  0  0  0
  -19.6989  -25.6278   21.1353 H   0  0  0  0  0  0
  -19.6613  -27.3177   20.6805 H   0  0  0  0  0  0
  -17.4198  -26.6581   21.4180 H   0  0  0  0  0  0
  -18.0380  -26.0096   22.9180 H   0  0  0  0  0  0
  -19.7932  -30.7309   24.2271 H   0  0  0  0  0  0
  -17.4985  -31.6290   24.5149 H   0  0  0  0  0  0
  -15.5364  -30.2968   23.7598 H   0  0  0  0  0  0
  -15.8712  -28.0819   22.7049 H   0  0  0  0  0  0
  -24.5964  -30.6936   25.7822 H   0  0  0  0  0  0
  -24.8893  -32.2768   26.4949 H   0  0  0  0  0  0
  -25.8157  -30.8825   27.0216 H   0  0  0  0  0  0
  -26.2768  -29.6840   24.1093 H   0  0  0  0  0  0
  -27.4135  -29.7259   25.4392 H   0  0  0  0  0  0
  -27.8562  -30.4427   23.9048 H   0  0  0  0  0  0
  -27.2738  -33.3577   26.2073 H   0  0  0  0  0  0
  -28.3864  -32.6823   25.0256 H   0  0  0  0  0  0
  -28.0748  -31.8355   26.5335 H   0  0  0  0  0  0
  -28.2626  -38.0082   24.7493 H   0  0  0  0  0  0
  -28.1037  -36.2621   24.6334 H   0  0  0  0  0  0
  -27.2298  -37.1501   25.8881 H   0  0  0  0  0  0
  -20.9273  -29.8800   21.7057 H   0  0  0  0  0  0
  -26.0199  -38.2890   24.1382 H   0  0  0  0  0  0
  -29.9035  -20.7908   19.8796 H   0  0  0  0  0  0
  -26.5339  -17.2459   19.4716 H   0  0  0  0  0  0
  -25.1569  -18.2562   19.8562 H   0  0  0  0  0  0
  -26.0903  -17.5475   21.1853 H   0  0  0  0  0  0
  -24.5435  -21.3843   18.8872 H   0  0  0  0  0  0
  -24.9624  -22.8493   19.7803 H   0  0  0  0  0  0
  -23.5357  -21.9648   20.1962 H   0  0  0  0  0  0
  -25.6880  -20.7784   23.0132 H   0  0  0  0  0  0
  -24.3210  -21.8103   22.6279 H   0  0  0  0  0  0
  -25.9621  -22.4058   22.3912 H   0  0  0  0  0  0
  -29.6180  -24.9632   23.2890 H   0  0  0  0  0  0
  -29.5183  -26.4943   22.4363 H   0  0  0  0  0  0
  -30.7033  -25.2865   21.9413 H   0  0  0  0  0  0
  -30.3412  -18.1689   19.4117 H   0  0  0  0  0  0
  -28.9194  -17.4875   18.6885 H   0  0  0  0  0  0
  -29.8925  -23.0571   20.9579 H   0  0  0  0  0  0
  -28.7105  -22.8520   22.2311 H   0  0  0  0  0  0
  -28.2044  -22.9037   19.2327 H   0  0  0  0  0  0
  -26.9230  -23.0714   20.4106 H   0  0  0  0  0  0
  -28.3705  -16.3962   20.9872 H   0  0  0  0  0  0
  -29.9528  -16.9262   21.5306 H   0  0  0  0  0  0
  -27.9565  -25.0740   19.2441 H   0  0  0  0  0  0
  -29.6549  -25.3349   19.4919 H   0  0  0  0  0  0
  -24.6858  -20.0740   20.9764 H   0  0  0  0  0  0
  -27.6621  -24.9899   21.7611 H   0  0  0  0  0  0
  -30.3684  -15.8100   19.0883 H   0  0  0  0  0  0
  1 25  1  0  0  0
  1 30  2  0  0  0
  1 87  1  0  0  0
  2  3  1  0  0  0
  2 25  1  0  0  0
  2 88  1  0  0  0
  2 89  1  0  0  0
  3  4  1  0  0  0
  3 90  1  0  0  0
  3 91  1  0  0  0
  4  5  1  0  0  0
  4 92  1  0  0  0
  4 93  1  0  0  0
  5  6  1  0  0  0
  5 26  1  0  0  0
  5 94  1  0  0  0
  6 25  1  0  0  0
  6 95  1  0  0  0
  6 96  1  0  0  0
  7  8  2  0  0  0
  7 26  1  0  0  0
  7 29  1  0  0  0
  8  9  1  0  0  0
  8 22  1  0  0  0
  9 10  1  0  0  0
  9 27  2  0  0  0
 10 11  2  0  0  0
 10 15  1  0  0  0
 11 12  1  0  0  0
 11 97  1  0  0  0
 12 13  2  0  0  0
 12 98  1  0  0  0
 13 14  1  0  0  0
 13 31  1  0  0  0
 14 15  2  0  0  0
 14 99  1  0  0  0
 15100  1  0  0  0
 16 17  2  0  0  0
 16 21  1  0  0  0
 16 31  1  0  0  0
 17 18  1  0  0  0
 17101  1  0  0  0
 18 19  2  0  0  0
 18102  1  0  0  0
 19 20  1  0  0  0
 19 24  1  0  0  0
 20 21  2  0  0  0
 20103  1  0  0  0
 21 23  1  0  0  0
 22 28  1  0  0  0
 22 32  2  0  0  0
 26 27  1  0  0  0
 28104  1  0  0  0
 28105  1  0  0  0
 29106  1  0  0  0
 29107  1  0  0  0
 33 34  1  0  0  0
 33 66  1  0  0  0
 33 70  2  0  0  0
 34 36  1  0  0  0
 34 59  1  0  0  0
 34108  1  0  0  0
 35 44  2  0  0  0
 35 45  1  0  0  0
 35 68  1  0  0  0
 36 56  1  0  0  0
 36109  1  0  0  0
 37 39  1  0  0  0
 37 47  1  0  0  0
 37 66  1  0  0  0
 37110  1  0  0  0
 38 43  2  0  0  0
 38 46  1  0  0  0
 38 47  1  0  0  0
 39 64  1  0  0  0
 39 67  2  0  0  0
 40 52  1  0  0  0
 40 53  2  0  0  0
 40 58  1  0  0  0
 41111  1  0  0  0
 41112  1  0  0  0
 41113  1  0  0  0
 41 48  1  0  0  0
 42 43  1  0  0  0
 42 66  1  0  0  0
 42114  1  0  0  0
 42115  1  0  0  0
 43 44  1  0  0  0
 44116  1  0  0  0
 45 46  2  0  0  0
 45117  1  0  0  0
 46118  1  0  0  0
 47119  1  0  0  0
 47120  1  0  0  0
 48 56  1  0  0  0
 48 65  1  0  0  0
 48121  1  0  0  0
 49 50  1  0  0  0
 49 53  1  0  0  0
 49 64  1  0  0  0
 49122  1  0  0  0
 50 51  1  0  0  0
 50123  1  0  0  0
 50124  1  0  0  0
 51 52  1  0  0  0
 51125  1  0  0  0
 51126  1  0  0  0
 52127  1  0  0  0
 52128  1  0  0  0
 53 54  1  0  0  0
 54 55  2  0  0  0
 54129  1  0  0  0
 55 57  1  0  0  0
 55130  1  0  0  0
 56 69  2  0  0  0
 57 58  2  0  0  0
 57131  1  0  0  0
 58132  1  0  0  0
 59 60  1  0  0  0
 59 61  1  0  0  0
 59 62  1  0  0  0
 60133  1  0  0  0
 60134  1  0  0  0
 60135  1  0  0  0
 61136  1  0  0  0
 61137  1  0  0  0
 61138  1  0  0  0
 62139  1  0  0  0
 62140  1  0  0  0
 62141  1  0  0  0
 63 65  1  0  0  0
 63142  1  0  0  0
 63143  1  0  0  0
 63144  1  0  0  0
 64145  1  0  0  0
 65146  1  0  0  0
 68 83  1  0  0  0
 71 72  2  0  0  0
 71 86  1  0  0  0
 71147  1  0  0  0
 72 73  1  0  0  0
 72 79  1  0  0  0
 73 74  2  0  0  0
 73 75  1  0  0  0
 74 84  1  0  0  0
 74 86  1  0  0  0
 75148  1  0  0  0
 75149  1  0  0  0
 75150  1  0  0  0
 76151  1  0  0  0
 76152  1  0  0  0
 76153  1  0  0  0
 76 84  1  0  0  0
 77 84  1  0  0  0
 77154  1  0  0  0
 77155  1  0  0  0
 77156  1  0  0  0
 78157  1  0  0  0
 78158  1  0  0  0
 78159  1  0  0  0
 78 85  1  0  0  0
 79 82  1  0  0  0
 79160  1  0  0  0
 79161  1  0  0  0
 80 81  1  0  0  0
 80 85  1  0  0  0
 80162  1  0  0  0
 80163  1  0  0  0
 81 86  1  0  0  0
 81164  1  0  0  0
 81165  1  0  0  0
 82 87  1  0  0  0
 82166  1  0  0  0
 82167  1  0  0  0
 83 85  1  0  0  0
 83168  1  0  0  0
 83169  1  0  0  0
 84170  1  0  0  0
 85171  1  0  0  0
 87172  1  0  0  0
M  ISO  4   1 100  68 101  83 101  87 100
M  END
> <chiral flag>
0

> <version>
0

> <s_m_source_file>
/data/baiqing/PycharmProjects/Reinvent-master-3.2/result/LINK_invent/BTK/process_docking_weight1_custom_sum_contain_oxygen_bond_distance_aromatic_linkinvent_7_9_3/rearranged_h_0105.sdf

> <i_m_source_file_index>
73

> <r_mmod_Potential_Energy-OPLS-2005>
38.558765411377

> <r_mmod_Stretch_Energy-OPLS-2005>
33.0546264648438

> <r_mmod_Bend_Energy-OPLS-2005>
142.333847045898

> <r_mmod_Torsional_Energy-OPLS-2005>
302.713958740234

> <r_mmod_Improper_Torsional_Energy-OPLS-2005>
33.891731262207

> <r_mmod_Van_der_Waal_Energy-OPLS-2005>
127.074813842773

> <r_mmod_Electrostatic_Energy-OPLS-2005>
-436.412811279297

> <r_mmod_Solvation_Energy-OPLS-2005>
-192.425323486328

> <b_mmod_Minimization_Converged-OPLS-2005>
0

> <r_mmod_RMS_Derivative-OPLS-2005>
4.94393301010132

$$$$
73
                    3D
 Structure written by MMmdl.
171179  0  0  1  0            999 V2000
  -30.6295  -14.5733   20.5105 C   0  0  0  0  0  0
  -30.4416  -12.3635   19.4469 C   0  0  0  0  0  0
  -29.4983  -12.4810   18.2301 C   0  0  0  0  0  0
  -28.0293  -12.3075   18.6629 C   0  0  0  0  0  0
  -27.6566  -13.1993   19.8800 C   0  0  2  0  0  0
  -28.7017  -13.0262   21.0156 C   0  0  0  0  0  0
  -25.2565  -13.8127   20.5727 C   0  0  0  0  0  0
  -24.1818  -13.0449   20.9231 C   0  0  0  0  0  0
  -24.6343  -11.6878   20.8784 C   0  0  0  0  0  0
  -23.9002  -10.4275   21.0408 C   0  0  0  0  0  0
  -24.3553   -9.4203   21.9190 C   0  0  0  0  0  0
  -23.6257   -8.2236   22.0762 C   0  0  0  0  0  0
  -22.4244   -8.0253   21.3540 C   0  0  0  0  0  0
  -21.9856   -9.0227   20.4651 C   0  0  0  0  0  0
  -22.7168  -10.2113   20.3070 C   0  0  0  0  0  0
  -21.6842   -6.0706   22.5278 C   0  0  0  0  0  0
  -21.4007   -6.5633   23.8208 C   0  0  0  0  0  0
  -21.3661   -5.6795   24.9170 C   0  0  0  0  0  0
  -21.6056   -4.3058   24.7227 C   0  0  0  0  0  0
  -21.8826   -3.8136   23.4351 C   0  0  0  0  0  0
  -21.9194   -4.6938   22.3405 C   0  0  0  0  0  0
  -22.7821  -13.5222   21.1863 C   0  0  0  0  0  0
  -22.1665   -4.2130   21.0981 F   0  0  0  0  0  0
  -21.5621   -3.4546   25.7741 F   0  0  0  0  0  0
  -30.0220  -13.3519   20.4532 N   0  0  0  0  0  0
  -26.2980  -12.9301   20.3402 N   0  0  0  0  0  0
  -25.9272  -11.6491   20.5859 N   0  0  0  0  0  0
  -22.0443  -12.8272   22.0420 N   0  0  0  0  0  0
  -25.4423  -15.1843   20.4087 N   0  0  0  0  0  0
  -31.7635  -14.7668   20.0693 O   0  0  0  0  0  0
  -21.6635   -6.8826   21.4224 O   0  0  0  0  0  0
  -22.3596  -14.5572   20.6698 O   0  0  0  0  0  0
  -24.6155  -31.8645   23.2114 C   0  0  0  0  0  0
  -25.8999  -32.4820   23.8421 C   0  0  1  0  0  0
  -27.2386  -27.3764   20.1364 C   0  0  0  0  0  0
  -25.5861  -33.8633   24.2337 N   0  0  0  0  0  0
  -23.4194  -30.4783   21.5430 C   0  0  2  0  0  0
  -24.8818  -28.9577   20.0994 C   0  0  0  0  0  0
  -22.7403  -29.4606   22.4936 C   0  0  0  0  0  0
  -18.0160  -28.1453   22.8429 C   0  0  0  0  0  0
  -24.1491  -36.7286   23.2639 C   0  0  0  0  0  0
  -25.9482  -30.8178   21.3798 C   0  0  0  0  0  0
  -26.0368  -29.4465   20.7278 C   0  0  0  0  0  0
  -27.2222  -28.6584   20.7521 C   0  0  0  0  0  0
  -26.0990  -26.9620   19.4232 C   0  0  0  0  0  0
  -24.9135  -27.7235   19.4304 C   0  0  0  0  0  0
  -23.6409  -29.8159   20.1552 C   0  0  0  0  0  0
  -25.4117  -36.3121   24.0336 C   0  0  1  0  0  0
  -20.5760  -28.3737   23.1242 C   0  0  2  0  0  0
  -20.6655  -26.9576   22.5114 C   0  0  0  0  0  0
  -19.5540  -26.6821   21.4846 C   0  0  0  0  0  0
  -18.1771  -26.8147   22.1375 C   0  0  0  0  0  0
  -19.1402  -28.8894   23.2923 C   0  0  0  0  0  0
  -18.9311  -30.1391   23.9142 C   0  0  0  0  0  0
  -17.6289  -30.6553   24.0691 C   0  0  0  0  0  0
  -25.9031  -34.9473   23.5161 C   0  0  0  0  0  0
  -16.5215  -29.9124   23.6342 C   0  0  0  0  0  0
  -16.7138  -28.6579   23.0266 C   0  0  0  0  0  0
  -26.4431  -31.6598   25.0740 C   0  0  0  0  0  0
  -25.3676  -31.3691   26.1449 C   0  0  0  0  0  0
  -27.0253  -30.3038   24.6138 C   0  0  0  0  0  0
  -27.6031  -32.4320   25.7449 C   0  0  0  0  0  0
  -27.5593  -37.1789   24.8466 C   0  0  0  0  0  0
  -21.4140  -29.3100   22.3713 N   0  0  0  0  0  0
  -26.4315  -37.3792   23.9414 N   0  0  0  0  0  0
  -24.6780  -31.0721   22.1039 N   0  0  0  0  0  0
  -23.4107  -28.8177   23.3027 O   0  0  0  0  0  0
  -28.3144  -26.4987   20.1791 O   0  0  0  0  0  0
  -26.5612  -34.8906   22.4744 O   0  0  0  0  0  0
  -23.5310  -32.1425   23.7427 O   0  0  0  0  0  0
  -25.5110  -22.8592   21.4103 C   0  0  0  0  0  0
  -26.1936  -21.6443   21.2387 C   0  0  0  0  0  0
  -26.2303  -24.0676   21.5121 C   0  0  0  0  0  0
  -27.5975  -21.6058   21.1264 C   0  0  0  0  0  0
  -28.3083  -22.8618   21.0366 C   0  0  0  0  0  0
  -27.6265  -24.1367   21.2158 C   0  0  0  0  0  0
  -25.4382  -25.2299   22.0912 C   0  0  0  0  0  0
  -29.8210  -22.7867   20.8415 C   0  0  0  0  0  0
  -26.3749  -18.9993   18.6521 C   0  0  0  0  0  0
  -27.8966  -20.9840   18.2360 C   0  0  0  0  0  0
  -28.2522  -20.1784   21.2526 C   0  0  0  0  0  0
  -28.3744  -25.5348   21.2908 C   0  0  0  0  0  0
  -29.9417  -17.0265   20.4618 C   0  0  0  0  0  0
  -28.5574  -17.7866   20.4380 C   0  0  0  0  0  0
  -27.8323  -19.5258   18.7511 C   0  0  0  0  0  0
  -29.8147  -15.5987   20.8675 N   0  0  0  0  0  0
  -28.5336  -19.2642   20.0684 N   0  3  1  0  0  0
  -31.4792  -12.4982   19.1446 H   0  0  0  0  0  0
  -30.4150  -11.3607   19.8764 H   0  0  0  0  0  0
  -29.7471  -11.7314   17.4783 H   0  0  0  0  0  0
  -29.6486  -13.4528   17.7543 H   0  0  0  0  0  0
  -27.8812  -11.2510   18.9233 H   0  0  0  0  0  0
  -27.3596  -12.5151   17.8255 H   0  0  0  0  0  0
  -27.6812  -14.2358   19.5293 H   0  0  0  0  0  0
  -28.7079  -11.9881   21.3756 H   0  0  0  0  0  0
  -28.4720  -13.6450   21.8887 H   0  0  0  0  0  0
  -25.2658   -9.5726   22.4797 H   0  0  0  0  0  0
  -23.9986   -7.4636   22.7481 H   0  0  0  0  0  0
  -21.0788   -8.8710   19.8946 H   0  0  0  0  0  0
  -22.3583  -10.9652   19.6219 H   0  0  0  0  0  0
  -21.2002   -7.6143   23.9696 H   0  0  0  0  0  0
  -21.1477   -6.0523   25.9070 H   0  0  0  0  0  0
  -22.0601   -2.7598   23.2854 H   0  0  0  0  0  0
  -22.4012  -11.9907   22.4807 H   0  0  0  0  0  0
  -21.1080  -13.1346   22.2580 H   0  0  0  0  0  0
  -24.6737  -15.8385   20.4859 H   0  0  0  0  0  0
  -26.2633  -15.5769   19.9765 H   0  0  0  0  0  0
  -26.7084  -32.5549   23.1180 H   0  0  0  0  0  0
  -24.9938  -33.9776   25.0428 H   0  0  0  0  0  0
  -22.7162  -31.2962   21.3859 H   0  0  0  0  0  0
  -23.3776  -35.9600   23.3317 H   0  0  0  0  0  0
  -24.3572  -36.8900   22.2055 H   0  0  0  0  0  0
  -23.7183  -37.6467   23.6650 H   0  0  0  0  0  0
  -26.0662  -31.5859   20.6149 H   0  0  0  0  0  0
  -26.8311  -30.8823   22.0001 H   0  0  0  0  0  0
  -28.1037  -29.0199   21.2721 H   0  0  0  0  0  0
  -26.1121  -25.9957   18.9399 H   0  0  0  0  0  0
  -24.0360  -27.3314   18.9339 H   0  0  0  0  0  0
  -23.7641  -30.5933   19.3964 H   0  0  0  0  0  0
  -22.7703  -29.2313   19.8478 H   0  0  0  0  0  0
  -25.1289  -36.2025   25.0829 H   0  0  0  0  0  0
  -20.9878  -28.3274   24.1342 H   0  0  0  0  0  0
  -21.6467  -26.7870   22.0652 H   0  0  0  0  0  0
  -20.5915  -26.2207   23.3127 H   0  0  0  0  0  0
  -19.6564  -25.6907   21.0407 H   0  0  0  0  0  0
  -19.6294  -27.3964   20.6620 H   0  0  0  0  0  0
  -17.3887  -26.7044   21.3885 H   0  0  0  0  0  0
  -18.0172  -26.0110   22.8548 H   0  0  0  0  0  0
  -19.7786  -30.7179   24.2705 H   0  0  0  0  0  0
  -17.4789  -31.6142   24.5490 H   0  0  0  0  0  0
  -15.5232  -30.3064   23.7654 H   0  0  0  0  0  0
  -15.8526  -28.1025   22.6851 H   0  0  0  0  0  0
  -24.5874  -30.7024   25.7736 H   0  0  0  0  0  0
  -24.8782  -32.2834   26.4859 H   0  0  0  0  0  0
  -25.7972  -30.8858   27.0234 H   0  0  0  0  0  0
  -26.2822  -29.6787   24.1168 H   0  0  0  0  0  0
  -27.3990  -29.7267   25.4605 H   0  0  0  0  0  0
  -27.8667  -30.4336   23.9314 H   0  0  0  0  0  0
  -27.2705  -33.3649   26.2012 H   0  0  0  0  0  0
  -28.3785  -32.6867   25.0208 H   0  0  0  0  0  0
  -28.0774  -31.8470   26.5339 H   0  0  0  0  0  0
  -28.2611  -38.0084   24.7535 H   0  0  0  0  0  0
  -28.1088  -36.2616   24.6296 H   0  0  0  0  0  0
  -27.2289  -37.1428   25.8858 H   0  0  0  0  0  0
  -20.9538  -29.8499   21.6554 H   0  0  0  0  0  0
  -26.0213  -38.2881   24.1436 H   0  0  0  0  0  0
  -24.4457  -22.8294   21.5980 H   0  0  0  0  0  0
  -25.6248  -20.7291   21.2785 H   0  0  0  0  0  0
  -24.5701  -24.8692   22.6429 H   0  0  0  0  0  0
  -25.0488  -25.8834   21.3277 H   0  0  0  0  0  0
  -26.0234  -25.7997   22.8066 H   0  0  0  0  0  0
  -30.1345  -22.0904   20.0658 H   0  0  0  0  0  0
  -30.3118  -22.4394   21.7534 H   0  0  0  0  0  0
  -30.2346  -23.7383   20.5354 H   0  0  0  0  0  0
  -25.7662  -19.3377   19.4877 H   0  0  0  0  0  0
  -26.2989  -17.9115   18.5819 H   0  0  0  0  0  0
  -25.9009  -19.3567   17.7353 H   0  0  0  0  0  0
  -27.6800  -21.0386   17.1730 H   0  0  0  0  0  0
  -28.8687  -21.4479   18.3830 H   0  0  0  0  0  0
  -27.1229  -21.6017   18.6813 H   0  0  0  0  0  0
  -27.5306  -19.6421   21.8652 H   0  0  0  0  0  0
  -29.1440  -20.2181   21.8831 H   0  0  0  0  0  0
  -29.4300  -25.3837   21.5023 H   0  0  0  0  0  0
  -28.0670  -26.0707   22.1825 H   0  0  0  0  0  0
  -30.6242  -17.5128   21.1587 H   0  0  0  0  0  0
  -30.4018  -17.0590   19.4715 H   0  0  0  0  0  0
  -28.0519  -17.6239   21.3909 H   0  0  0  0  0  0
  -27.9395  -17.2385   19.7313 H   0  0  0  0  0  0
  -28.4187  -18.9692   18.0178 H   0  0  0  0  0  0
  -28.9208  -15.3273   21.2566 H   0  0  0  0  0  0
  -29.4974  -19.4609   19.8550 H   0  0  0  0  0  0
  1 25  1  0  0  0
  1 30  2  0  0  0
  1 86  1  0  0  0
  2  3  1  0  0  0
  2 25  1  0  0  0
  2 88  1  0  0  0
  2 89  1  0  0  0
  3  4  1  0  0  0
  3 90  1  0  0  0
  3 91  1  0  0  0
  4  5  1  0  0  0
  4 92  1  0  0  0
  4 93  1  0  0  0
  5  6  1  0  0  0
  5 26  1  0  0  0
  5 94  1  0  0  0
  6 25  1  0  0  0
  6 95  1  0  0  0
  6 96  1  0  0  0
  7  8  2  0  0  0
  7 26  1  0  0  0
  7 29  1  0  0  0
  8  9  1  0  0  0
  8 22  1  0  0  0
  9 10  1  0  0  0
  9 27  2  0  0  0
 10 11  2  0  0  0
 10 15  1  0  0  0
 11 12  1  0  0  0
 11 97  1  0  0  0
 12 13  2  0  0  0
 12 98  1  0  0  0
 13 14  1  0  0  0
 13 31  1  0  0  0
 14 15  2  0  0  0
 14 99  1  0  0  0
 15100  1  0  0  0
 16 17  2  0  0  0
 16 21  1  0  0  0
 16 31  1  0  0  0
 17 18  1  0  0  0
 17101  1  0  0  0
 18 19  2  0  0  0
 18102  1  0  0  0
 19 20  1  0  0  0
 19 24  1  0  0  0
 20 21  2  0  0  0
 20103  1  0  0  0
 21 23  1  0  0  0
 22 28  1  0  0  0
 22 32  2  0  0  0
 26 27  1  0  0  0
 28104  1  0  0  0
 28105  1  0  0  0
 29106  1  0  0  0
 29107  1  0  0  0
 33 34  1  0  0  0
 33 66  1  0  0  0
 33 70  2  0  0  0
 34 36  1  0  0  0
 34 59  1  0  0  0
 34108  1  0  0  0
 35 44  2  0  0  0
 35 45  1  0  0  0
 35 68  1  0  0  0
 36 56  1  0  0  0
 36109  1  0  0  0
 37 39  1  0  0  0
 37 47  1  0  0  0
 37 66  1  0  0  0
 37110  1  0  0  0
 38 43  2  0  0  0
 38 46  1  0  0  0
 38 47  1  0  0  0
 39 64  1  0  0  0
 39 67  2  0  0  0
 40 52  1  0  0  0
 40 53  2  0  0  0
 40 58  1  0  0  0
 41111  1  0  0  0
 41112  1  0  0  0
 41113  1  0  0  0
 41 48  1  0  0  0
 42 43  1  0  0  0
 42 66  1  0  0  0
 42114  1  0  0  0
 42115  1  0  0  0
 43 44  1  0  0  0
 44116  1  0  0  0
 45 46  2  0  0  0
 45117  1  0  0  0
 46118  1  0  0  0
 47119  1  0  0  0
 47120  1  0  0  0
 48 56  1  0  0  0
 48 65  1  0  0  0
 48121  1  0  0  0
 49 50  1  0  0  0
 49 53  1  0  0  0
 49 64  1  0  0  0
 49122  1  0  0  0
 50 51  1  0  0  0
 50123  1  0  0  0
 50124  1  0  0  0
 51 52  1  0  0  0
 51125  1  0  0  0
 51126  1  0  0  0
 52127  1  0  0  0
 52128  1  0  0  0
 53 54  1  0  0  0
 54 55  2  0  0  0
 54129  1  0  0  0
 55 57  1  0  0  0
 55130  1  0  0  0
 56 69  2  0  0  0
 57 58  2  0  0  0
 57131  1  0  0  0
 58132  1  0  0  0
 59 60  1  0  0  0
 59 61  1  0  0  0
 59 62  1  0  0  0
 60133  1  0  0  0
 60134  1  0  0  0
 60135  1  0  0  0
 61136  1  0  0  0
 61137  1  0  0  0
 61138  1  0  0  0
 62139  1  0  0  0
 62140  1  0  0  0
 62141  1  0  0  0
 63 65  1  0  0  0
 63142  1  0  0  0
 63143  1  0  0  0
 63144  1  0  0  0
 64145  1  0  0  0
 65146  1  0  0  0
 68 82  1  0  0  0
 71 72  2  0  0  0
 71 73  1  0  0  0
 71147  1  0  0  0
 72 74  1  0  0  0
 72148  1  0  0  0
 73 76  2  0  0  0
 73 77  1  0  0  0
 74 75  2  0  0  0
 74 81  1  0  0  0
 75 76  1  0  0  0
 75 78  1  0  0  0
 76 82  1  0  0  0
 77149  1  0  0  0
 77150  1  0  0  0
 77151  1  0  0  0
 78152  1  0  0  0
 78153  1  0  0  0
 78154  1  0  0  0
 79155  1  0  0  0
 79156  1  0  0  0
 79157  1  0  0  0
 79 85  1  0  0  0
 80 85  1  0  0  0
 80158  1  0  0  0
 80159  1  0  0  0
 80160  1  0  0  0
 81161  1  0  0  0
 81162  1  0  0  0
 81 87  1  0  0  0
 82163  1  0  0  0
 82164  1  0  0  0
 83 84  1  0  0  0
 83 86  1  0  0  0
 83165  1  0  0  0
 83166  1  0  0  0
 84 87  1  0  0  0
 84167  1  0  0  0
 84168  1  0  0  0
 85 87  1  0  0  0
 85169  1  0  0  0
 86170  1  0  0  0
 87171  1  0  0  0
M  CHG  1  87   1
M  ISO  4   1 100  68 101  82 101  86 100
M  END
> <chiral flag>
0

> <version>
0

> <s_m_source_file>
/data/baiqing/PycharmProjects/Reinvent-master-3.2/result/LINK_invent/BTK/process_docking_weight1_custom_sum_contain_oxygen_bond_distance_aromatic_linkinvent_7_9_3/rearranged_h_0105.sdf

> <i_m_source_file_index>
74

> <r_mmod_Potential_Energy-OPLS-2005>
18.394962310791

> <r_mmod_Stretch_Energy-OPLS-2005>
84.2439498901367

> <r_mmod_Bend_Energy-OPLS-2005>
164.944931030273

> <r_mmod_Torsional_Energy-OPLS-2005>
275.455169677734

> <r_mmod_Improper_Torsional_Energy-OPLS-2005>
8.85873889923096

> <r_mmod_Van_der_Waal_Energy-OPLS-2005>
157.359573364258

> <r_mmod_Electrostatic_Energy-OPLS-2005>
-258.764770507812

> <r_mmod_Solvation_Energy-OPLS-2005>
-450.863739013672

> <b_mmod_Minimization_Converged-OPLS-2005>
0

> <r_mmod_RMS_Derivative-OPLS-2005>
12.6479711532593

$$$$
74
                    3D
 Structure written by MMmdl.
153161  0  0  1  0            999 V2000
  -30.3294  -15.5270   20.3527 C   0  0  0  0  0  0
  -30.4445  -13.0002   19.5323 C   0  0  0  0  0  0
  -29.5504  -12.5864   18.3290 C   0  0  0  0  0  0
  -28.1394  -12.1901   18.8020 C   0  0  0  0  0  0
  -27.5995  -13.2205   19.8085 C   0  0  2  0  0  0
  -28.6305  -13.5423   20.9306 C   0  0  0  0  0  0
  -25.2274  -13.8001   20.5655 C   0  0  0  0  0  0
  -24.1662  -13.0281   20.9319 C   0  0  0  0  0  0
  -24.6317  -11.6790   20.8843 C   0  0  0  0  0  0
  -23.9026  -10.4206   21.0461 C   0  0  0  0  0  0
  -24.3584   -9.4121   21.9229 C   0  0  0  0  0  0
  -23.6266   -8.2162   22.0769 C   0  0  0  0  0  0
  -22.4248   -8.0221   21.3544 C   0  0  0  0  0  0
  -21.9887   -9.0194   20.4641 C   0  0  0  0  0  0
  -22.7219  -10.2071   20.3077 C   0  0  0  0  0  0
  -21.6825   -6.0714   22.5297 C   0  0  0  0  0  0
  -21.3978   -6.5618   23.8229 C   0  0  0  0  0  0
  -21.3648   -5.6772   24.9186 C   0  0  0  0  0  0
  -21.6060   -4.3043   24.7237 C   0  0  0  0  0  0
  -21.8822   -3.8129   23.4355 C   0  0  0  0  0  0
  -21.9180   -4.6947   22.3412 C   0  0  0  0  0  0
  -22.7683  -13.5060   21.1988 C   0  0  0  0  0  0
  -22.1660   -4.2133   21.0997 F   0  0  0  0  0  0
  -21.5636   -3.4534   25.7753 F   0  0  0  0  0  0
  -29.8102  -14.1667   20.2815 N   0  0  0  0  0  0
  -26.2734  -12.9223   20.3219 N   0  0  0  0  0  0
  -25.9231  -11.6393   20.5798 N   0  0  0  0  0  0
  -22.0347  -12.8072   22.0556 N   0  0  0  0  0  0
  -25.3621  -15.1716   20.3802 N   0  0  0  0  0  0
  -31.5688  -15.4918   20.2112 O   0  0  0  0  0  0
  -21.6606   -6.8831   21.4246 O   0  0  0  0  0  0
  -22.3388  -14.5386   20.6834 O   0  0  0  0  0  0
  -24.6690  -31.8174   23.1617 C   0  0  0  0  0  0
  -25.9341  -32.4557   23.8108 C   0  0  1  0  0  0
  -27.2315  -26.8651   20.1957 C   0  0  0  0  0  0
  -25.5979  -33.8365   24.2021 N   0  0  0  0  0  0
  -23.4865  -30.4238   21.5160 C   0  0  2  0  0  0
  -24.9377  -28.7881   20.1241 C   0  0  0  0  0  0
  -22.7706  -29.4410   22.4813 C   0  0  0  0  0  0
  -18.0325  -28.1435   22.8437 C   0  0  0  0  0  0
  -24.1489  -36.7204   23.2652 C   0  0  0  0  0  0
  -26.0576  -30.6054   21.3959 C   0  0  0  0  0  0
  -26.1280  -29.1834   20.7500 C   0  0  0  0  0  0
  -27.2692  -28.2499   20.7498 C   0  0  0  0  0  0
  -26.0026  -26.6296   19.5339 C   0  0  0  0  0  0
  -24.9036  -27.5318   19.4943 C   0  0  0  0  0  0
  -23.7288  -29.7276   20.1484 C   0  0  0  0  0  0
  -25.4126  -36.2952   24.0303 C   0  0  1  0  0  0
  -20.5946  -28.3764   23.1191 C   0  0  2  0  0  0
  -20.6812  -26.9456   22.5411 C   0  0  0  0  0  0
  -19.5780  -26.6398   21.5220 C   0  0  0  0  0  0
  -18.1962  -26.7965   22.1613 C   0  0  0  0  0  0
  -19.1599  -28.8921   23.2795 C   0  0  0  0  0  0
  -18.9511  -30.1506   23.8825 C   0  0  0  0  0  0
  -17.6505  -30.6613   24.0548 C   0  0  0  0  0  0
  -25.9096  -34.9337   23.4997 C   0  0  0  0  0  0
  -16.5387  -29.9089   23.6362 C   0  0  0  0  0  0
  -16.7312  -28.6531   23.0336 C   0  0  0  0  0  0
  -26.4547  -31.6512   25.0661 C   0  0  0  0  0  0
  -25.3641  -31.3782   26.1304 C   0  0  0  0  0  0
  -27.0449  -30.2880   24.6413 C   0  0  0  0  0  0
  -27.6064  -32.4295   25.7447 C   0  0  0  0  0  0
  -27.5561  -37.1760   24.8467 C   0  0  0  0  0  0
  -21.4380  -29.3026   22.3544 N   0  0  0  0  0  0
  -26.4259  -37.3702   23.9417 N   0  0  0  0  0  0
  -24.7610  -30.9759   22.0790 N   0  0  0  0  0  0
  -23.4229  -28.8004   23.3099 O   0  0  0  0  0  0
  -28.2671  -25.7683   20.1399 O   0  0  0  0  0  0
  -26.5738  -34.8903   22.4609 O   0  0  0  0  0  0
  -23.5755  -32.1179   23.6681 O   0  0  0  0  0  0
  -29.8669  -21.5039   19.6918 C   0  0  0  0  0  0
  -28.2526  -21.1974   21.2815 C   0  0  0  0  0  0
  -29.9606  -19.7928   19.4425 C   0  0  0  0  0  0
  -28.3176  -19.5313   21.0144 C   0  0  0  0  0  0
  -28.5281  -22.3769   20.1661 C   0  0  2  0  0  0
  -29.6368  -18.6004   20.5668 C   0  0  1  0  0  0
  -28.0926  -16.6668   20.4770 C   0  0  0  0  0  0
  -28.2562  -24.1624   20.6413 C   0  0  0  0  0  0
  -29.5343  -16.8609   20.3922 N   0  0  0  0  0  0
  -31.4347  -13.2730   19.1646 H   0  0  0  0  0  0
  -30.6153  -12.1512   20.1985 H   0  0  0  0  0  0
  -30.0094  -11.7570   17.7923 H   0  0  0  0  0  0
  -29.4827  -13.4177   17.6256 H   0  0  0  0  0  0
  -28.2131  -11.2206   19.2994 H   0  0  0  0  0  0
  -27.4605  -12.0523   17.9598 H   0  0  0  0  0  0
  -27.4499  -14.0607   19.1426 H   0  0  0  0  0  0
  -28.8986  -12.6397   21.4861 H   0  0  0  0  0  0
  -28.2173  -14.2266   21.6734 H   0  0  0  0  0  0
  -25.2712   -9.5596   22.4818 H   0  0  0  0  0  0
  -23.9972   -7.4536   22.7471 H   0  0  0  0  0  0
  -21.0831   -8.8706   19.8930 H   0  0  0  0  0  0
  -22.3692  -10.9615   19.6190 H   0  0  0  0  0  0
  -21.1954   -7.6125   23.9721 H   0  0  0  0  0  0
  -21.1477   -6.0508   25.9092 H   0  0  0  0  0  0
  -22.0619   -2.7599   23.2870 H   0  0  0  0  0  0
  -22.3912  -11.9661   22.4856 H   0  0  0  0  0  0
  -21.0998  -13.1112   22.2853 H   0  0  0  0  0  0
  -24.5714  -15.8005   20.4728 H   0  0  0  0  0  0
  -26.1680  -15.6136   19.9628 H   0  0  0  0  0  0
  -26.7424  -32.5100   23.0842 H   0  0  0  0  0  0
  -25.0046  -33.9364   25.0118 H   0  0  0  0  0  0
  -22.8065  -31.2598   21.3389 H   0  0  0  0  0  0
  -23.3752  -35.9527   23.3266 H   0  0  0  0  0  0
  -24.3565  -36.8895   22.2077 H   0  0  0  0  0  0
  -23.7238  -37.6383   23.6728 H   0  0  0  0  0  0
  -26.2342  -31.3375   20.6069 H   0  0  0  0  0  0
  -26.9186  -30.6732   22.0476 H   0  0  0  0  0  0
  -28.1774  -28.5617   21.2451 H   0  0  0  0  0  0
  -25.8716  -25.6716   19.0485 H   0  0  0  0  0  0
  -24.0011  -27.2207   18.9870 H   0  0  0  0  0  0
  -23.8921  -30.4912   19.3836 H   0  0  0  0  0  0
  -22.8370  -29.1846   19.8319 H   0  0  0  0  0  0
  -25.1319  -36.1753   25.0793 H   0  0  0  0  0  0
  -21.0002  -28.3376   24.1324 H   0  0  0  0  0  0
  -20.5705  -26.2382   23.3647 H   0  0  0  0  0  0
  -21.6680  -26.7448   22.1216 H   0  0  0  0  0  0
  -19.6944  -25.6304   21.1267 H   0  0  0  0  0  0
  -19.6727  -27.3197   20.6742 H   0  0  0  0  0  0
  -17.4251  -26.6711   21.4002 H   0  0  0  0  0  0
  -18.0327  -26.0136   22.9037 H   0  0  0  0  0  0
  -19.7999  -30.7342   24.2145 H   0  0  0  0  0  0
  -17.5066  -31.6265   24.5197 H   0  0  0  0  0  0
  -15.5394  -30.2953   23.7724 H   0  0  0  0  0  0
  -15.8727  -28.0832   22.7036 H   0  0  0  0  0  0
  -24.5942  -30.6975   25.7641 H   0  0  0  0  0  0
  -24.8680  -32.2975   26.4470 H   0  0  0  0  0  0
  -25.7866  -30.9185   27.0251 H   0  0  0  0  0  0
  -26.3132  -29.6553   24.1385 H   0  0  0  0  0  0
  -27.3962  -29.7251   25.5064 H   0  0  0  0  0  0
  -27.9063  -30.4055   23.9828 H   0  0  0  0  0  0
  -27.2713  -33.3739   26.1745 H   0  0  0  0  0  0
  -28.4004  -32.6615   25.0330 H   0  0  0  0  0  0
  -28.0562  -31.8574   26.5587 H   0  0  0  0  0  0
  -28.2558  -38.0070   24.7534 H   0  0  0  0  0  0
  -28.1088  -36.2611   24.6275 H   0  0  0  0  0  0
  -27.2290  -37.1375   25.8870 H   0  0  0  0  0  0
  -20.9690  -29.8704   21.6641 H   0  0  0  0  0  0
  -26.0119  -38.2762   24.1442 H   0  0  0  0  0  0
  -30.6631  -21.7616   20.3915 H   0  0  0  0  0  0
  -30.1846  -21.9601   18.7542 H   0  0  0  0  0  0
  -28.9030  -21.4053   22.1292 H   0  0  0  0  0  0
  -27.2526  -21.3993   21.6694 H   0  0  0  0  0  0
  -30.9770  -19.6084   19.0930 H   0  0  0  0  0  0
  -29.3395  -19.5878   18.5712 H   0  0  0  0  0  0
  -27.5476  -19.4076   20.2525 H   0  0  0  0  0  0
  -27.9005  -19.0690   21.9069 H   0  0  0  0  0  0
  -27.8010  -22.2297   19.3670 H   0  0  0  0  0  0
  -30.3857  -18.7270   21.3491 H   0  0  0  0  0  0
  -27.5056  -17.3900   19.9189 H   0  0  0  0  0  0
  -27.7411  -16.6145   21.5103 H   0  0  0  0  0  0
  -27.8036  -15.7804   19.9715 H   0  0  0  0  0  0
  -28.9198  -24.2563   21.4990 H   0  0  0  0  0  0
  -27.2684  -24.1173   21.0964 H   0  0  0  0  0  0
  1 25  1  0  0  0
  1 30  2  0  0  0
  1 79  1  0  0  0
  2  3  1  0  0  0
  2 25  1  0  0  0
  2 80  1  0  0  0
  2 81  1  0  0  0
  3  4  1  0  0  0
  3 82  1  0  0  0
  3 83  1  0  0  0
  4  5  1  0  0  0
  4 84  1  0  0  0
  4 85  1  0  0  0
  5  6  1  0  0  0
  5 26  1  0  0  0
  5 86  1  0  0  0
  6 25  1  0  0  0
  6 87  1  0  0  0
  6 88  1  0  0  0
  7  8  2  0  0  0
  7 26  1  0  0  0
  7 29  1  0  0  0
  8  9  1  0  0  0
  8 22  1  0  0  0
  9 10  1  0  0  0
  9 27  2  0  0  0
 10 11  2  0  0  0
 10 15  1  0  0  0
 11 12  1  0  0  0
 11 89  1  0  0  0
 12 13  2  0  0  0
 12 90  1  0  0  0
 13 14  1  0  0  0
 13 31  1  0  0  0
 14 15  2  0  0  0
 14 91  1  0  0  0
 15 92  1  0  0  0
 16 17  2  0  0  0
 16 21  1  0  0  0
 16 31  1  0  0  0
 17 18  1  0  0  0
 17 93  1  0  0  0
 18 19  2  0  0  0
 18 94  1  0  0  0
 19 20  1  0  0  0
 19 24  1  0  0  0
 20 21  2  0  0  0
 20 95  1  0  0  0
 21 23  1  0  0  0
 22 28  1  0  0  0
 22 32  2  0  0  0
 26 27  1  0  0  0
 28 96  1  0  0  0
 28 97  1  0  0  0
 29 98  1  0  0  0
 29 99  1  0  0  0
 33 34  1  0  0  0
 33 66  1  0  0  0
 33 70  2  0  0  0
 34 36  1  0  0  0
 34 59  1  0  0  0
 34100  1  0  0  0
 35 44  2  0  0  0
 35 45  1  0  0  0
 35 68  1  0  0  0
 36 56  1  0  0  0
 36101  1  0  0  0
 37 39  1  0  0  0
 37 47  1  0  0  0
 37 66  1  0  0  0
 37102  1  0  0  0
 38 43  2  0  0  0
 38 46  1  0  0  0
 38 47  1  0  0  0
 39 64  1  0  0  0
 39 67  2  0  0  0
 40 52  1  0  0  0
 40 53  2  0  0  0
 40 58  1  0  0  0
 41103  1  0  0  0
 41104  1  0  0  0
 41105  1  0  0  0
 41 48  1  0  0  0
 42 43  1  0  0  0
 42 66  1  0  0  0
 42106  1  0  0  0
 42107  1  0  0  0
 43 44  1  0  0  0
 44108  1  0  0  0
 45 46  2  0  0  0
 45109  1  0  0  0
 46110  1  0  0  0
 47111  1  0  0  0
 47112  1  0  0  0
 48 56  1  0  0  0
 48 65  1  0  0  0
 48113  1  0  0  0
 49 50  1  0  0  0
 49 53  1  0  0  0
 49 64  1  0  0  0
 49114  1  0  0  0
 50 51  1  0  0  0
 50115  1  0  0  0
 50116  1  0  0  0
 51 52  1  0  0  0
 51117  1  0  0  0
 51118  1  0  0  0
 52119  1  0  0  0
 52120  1  0  0  0
 53 54  1  0  0  0
 54 55  2  0  0  0
 54121  1  0  0  0
 55 57  1  0  0  0
 55122  1  0  0  0
 56 69  2  0  0  0
 57 58  2  0  0  0
 57123  1  0  0  0
 58124  1  0  0  0
 59 60  1  0  0  0
 59 61  1  0  0  0
 59 62  1  0  0  0
 60125  1  0  0  0
 60126  1  0  0  0
 60127  1  0  0  0
 61128  1  0  0  0
 61129  1  0  0  0
 61130  1  0  0  0
 62131  1  0  0  0
 62132  1  0  0  0
 62133  1  0  0  0
 63 65  1  0  0  0
 63134  1  0  0  0
 63135  1  0  0  0
 63136  1  0  0  0
 64137  1  0  0  0
 65138  1  0  0  0
 68 78  1  0  0  0
 71 73  1  0  0  0
 71 75  1  0  0  0
 71139  1  0  0  0
 71140  1  0  0  0
 72 74  1  0  0  0
 72 75  1  0  0  0
 72141  1  0  0  0
 72142  1  0  0  0
 73 76  1  0  0  0
 73143  1  0  0  0
 73144  1  0  0  0
 74 76  1  0  0  0
 74145  1  0  0  0
 74146  1  0  0  0
 75 78  1  0  0  0
 75147  1  0  0  0
 76 79  1  0  0  0
 76148  1  0  0  0
 77 79  1  0  0  0
 77149  1  0  0  0
 77150  1  0  0  0
 77151  1  0  0  0
 78152  1  0  0  0
 78153  1  0  0  0
M  ISO  4   1 100  68 101  78 101  79 100
M  END
> <chiral flag>
0

> <version>
0

> <s_m_source_file>
/data/baiqing/PycharmProjects/Reinvent-master-3.2/result/LINK_invent/BTK/process_docking_weight1_custom_sum_contain_oxygen_bond_distance_aromatic_linkinvent_7_9_3/rearranged_h_0105.sdf

> <i_m_source_file_index>
75

> <r_mmod_Potential_Energy-OPLS-2005>
2099.97119140625

> <r_mmod_Stretch_Energy-OPLS-2005>
760.698425292969

> <r_mmod_Bend_Energy-OPLS-2005>
677.148803710938

> <r_mmod_Torsional_Energy-OPLS-2005>
310.583709716797

> <r_mmod_Improper_Torsional_Energy-OPLS-2005>
4.66689682006836

> <r_mmod_Van_der_Waal_Energy-OPLS-2005>
143.853713989258

> <r_mmod_Electrostatic_Energy-OPLS-2005>
-268.367919921875

> <r_mmod_Solvation_Energy-OPLS-2005>
-200.562866210938

> <b_mmod_Minimization_Converged-OPLS-2005>
0

> <r_mmod_RMS_Derivative-OPLS-2005>
4.53907871246338

$$$$
75
                    3D
 Structure written by MMmdl.
166174  0  0  1  0            999 V2000
  -30.6260  -14.7279   20.4626 C   0  0  0  0  0  0
  -30.4330  -12.4707   19.4176 C   0  0  0  0  0  0
  -29.4944  -12.5137   18.1909 C   0  0  0  0  0  0
  -28.0223  -12.3377   18.6130 C   0  0  0  0  0  0
  -27.6412  -13.2215   19.8291 C   0  0  2  0  0  0
  -28.6952  -13.1590   20.9547 C   0  0  0  0  0  0
  -25.2579  -13.8194   20.5686 C   0  0  0  0  0  0
  -24.1839  -13.0470   20.9248 C   0  0  0  0  0  0
  -24.6387  -11.6949   20.8735 C   0  0  0  0  0  0
  -23.9036  -10.4335   21.0372 C   0  0  0  0  0  0
  -24.3616   -9.4239   21.9137 C   0  0  0  0  0  0
  -23.6303   -8.2265   22.0723 C   0  0  0  0  0  0
  -22.4266   -8.0308   21.3526 C   0  0  0  0  0  0
  -21.9898   -9.0264   20.4627 C   0  0  0  0  0  0
  -22.7218  -10.2146   20.3029 C   0  0  0  0  0  0
  -21.6863   -6.0743   22.5270 C   0  0  0  0  0  0
  -21.4039   -6.5628   23.8221 C   0  0  0  0  0  0
  -21.3664   -5.6772   24.9158 C   0  0  0  0  0  0
  -21.6039   -4.3024   24.7201 C   0  0  0  0  0  0
  -21.8840   -3.8132   23.4308 C   0  0  0  0  0  0
  -21.9227   -4.6984   22.3369 C   0  0  0  0  0  0
  -22.7883  -13.5289   21.1890 C   0  0  0  0  0  0
  -22.1688   -4.2160   21.0941 F   0  0  0  0  0  0
  -21.5611   -3.4513   25.7696 F   0  0  0  0  0  0
  -29.9887  -13.5150   20.3592 N   0  0  0  0  0  0
  -26.2966  -12.9353   20.3188 N   0  0  0  0  0  0
  -25.9278  -11.6529   20.5654 N   0  0  0  0  0  0
  -22.0463  -12.8261   22.0417 N   0  0  0  0  0  0
  -25.4363  -15.1886   20.4033 N   0  0  0  0  0  0
  -31.8293  -14.8322   20.2253 O   0  0  0  0  0  0
  -21.6662   -6.8878   21.4217 O   0  0  0  0  0  0
  -22.3565  -14.5615   20.6743 O   0  0  0  0  0  0
  -24.6321  -31.8537   23.1945 C   0  0  0  0  0  0
  -25.9110  -32.4753   23.8316 C   0  0  1  0  0  0
  -27.2294  -27.2385   20.1373 C   0  0  0  0  0  0
  -25.5903  -33.8564   24.2223 N   0  0  0  0  0  0
  -23.4332  -30.4724   21.5381 C   0  0  2  0  0  0
  -24.8819  -28.9153   20.1045 C   0  0  0  0  0  0
  -22.7542  -29.4560   22.4883 C   0  0  0  0  0  0
  -18.0341  -28.1422   22.8506 C   0  0  0  0  0  0
  -24.1479  -36.7272   23.2634 C   0  0  0  0  0  0
  -25.9805  -30.7508   21.3861 C   0  0  0  0  0  0
  -26.0487  -29.3711   20.7299 C   0  0  0  0  0  0
  -27.2186  -28.5449   20.7368 C   0  0  0  0  0  0
  -26.0466  -26.8637   19.4573 C   0  0  0  0  0  0
  -24.8881  -27.6705   19.4533 C   0  0  0  0  0  0
  -23.6514  -29.8061   20.1537 C   0  0  0  0  0  0
  -25.4114  -36.3066   24.0322 C   0  0  1  0  0  0
  -20.5937  -28.3707   23.1280 C   0  0  2  0  0  0
  -20.6811  -26.9417   22.5426 C   0  0  0  0  0  0
  -19.5777  -26.6409   21.5242 C   0  0  0  0  0  0
  -18.1961  -26.7983   22.1644 C   0  0  0  0  0  0
  -19.1585  -28.8901   23.2894 C   0  0  0  0  0  0
  -18.9481  -30.1504   23.8913 C   0  0  0  0  0  0
  -17.6461  -30.6601   24.0586 C   0  0  0  0  0  0
  -25.9070  -34.9435   23.5082 C   0  0  0  0  0  0
  -16.5367  -29.9082   23.6342 C   0  0  0  0  0  0
  -16.7327  -28.6507   23.0368 C   0  0  0  0  0  0
  -26.4476  -31.6622   25.0746 C   0  0  0  0  0  0
  -25.3673  -31.3800   26.1453 C   0  0  0  0  0  0
  -27.0308  -30.3040   24.6262 C   0  0  0  0  0  0
  -27.6053  -32.4366   25.7491 C   0  0  0  0  0  0
  -27.5590  -37.1778   24.8463 C   0  0  0  0  0  0
  -21.4251  -29.3023   22.3632 N   0  0  0  0  0  0
  -26.4301  -37.3752   23.9411 N   0  0  0  0  0  0
  -24.7000  -31.0462   22.0932 N   0  0  0  0  0  0
  -23.4234  -28.8153   23.3017 O   0  0  0  0  0  0
  -28.3322  -26.3486   20.2372 O   0  0  0  0  0  0
  -26.5641  -34.8901   22.4657 O   0  0  0  0  0  0
  -23.5448  -32.1358   23.7213 O   0  0  0  0  0  0
  -27.9305  -21.4211   21.2492 C   0  0  0  0  0  0
  -28.9922  -22.1873   20.6723 C   0  0  0  0  0  0
  -28.1055  -20.0694   21.0620 C   0  0  0  0  0  0
  -29.8074  -21.1772   20.1200 C   0  0  0  0  0  0
  -31.0745  -21.2873   19.3319 C   0  0  0  0  0  0
  -30.5973  -24.2381   20.9453 C   0  0  0  0  0  0
  -25.8299  -19.0283   20.8172 C   0  0  0  0  0  0
  -27.1422  -18.8156   23.0128 C   0  0  0  0  0  0
  -29.8242  -18.4928   19.9120 C   0  0  0  0  0  0
  -30.1833  -17.2988   20.9450 C   0  0  0  0  0  0
  -28.1974  -24.8546   20.0204 C   0  0  0  0  0  0
  -29.1250  -23.7901   20.8455 C   0  0  1  0  0  0
  -27.2100  -18.9354   21.4834 C   0  0  0  0  0  0
  -29.3001  -19.8627   20.3832 N   0  0  0  0  0  0
  -29.8379  -15.8499   20.6182 N   0  0  0  0  0  0
  -31.4624  -12.6199   19.0913 H   0  0  0  0  0  0
  -30.4073  -11.4945   19.9004 H   0  0  0  0  0  0
  -29.7779  -11.7376   17.4775 H   0  0  0  0  0  0
  -29.6082  -13.4638   17.6636 H   0  0  0  0  0  0
  -27.8675  -11.2829   18.8426 H   0  0  0  0  0  0
  -27.3676  -12.5596   17.7662 H   0  0  0  0  0  0
  -27.6332  -14.2441   19.4458 H   0  0  0  0  0  0
  -28.7480  -12.1676   21.4108 H   0  0  0  0  0  0
  -28.4212  -13.8500   21.7527 H   0  0  0  0  0  0
  -25.2729   -9.5773   22.4725 H   0  0  0  0  0  0
  -24.0055   -7.4658   22.7401 H   0  0  0  0  0  0
  -21.0862   -8.8783   19.8902 H   0  0  0  0  0  0
  -22.3675  -10.9696   19.6162 H   0  0  0  0  0  0
  -21.2084   -7.6153   23.9750 H   0  0  0  0  0  0
  -21.1434   -6.0461   25.9070 H   0  0  0  0  0  0
  -22.0640   -2.7603   23.2788 H   0  0  0  0  0  0
  -22.4053  -11.9919   22.4831 H   0  0  0  0  0  0
  -21.1084  -13.1289   22.2572 H   0  0  0  0  0  0
  -24.6660  -15.8431   20.4989 H   0  0  0  0  0  0
  -26.2711  -15.6057   20.0077 H   0  0  0  0  0  0
  -26.7192  -32.5360   23.1057 H   0  0  0  0  0  0
  -25.0058  -33.9709   25.0374 H   0  0  0  0  0  0
  -22.7292  -31.2932   21.3920 H   0  0  0  0  0  0
  -23.3755  -35.9586   23.3295 H   0  0  0  0  0  0
  -24.3578  -36.8905   22.2051 H   0  0  0  0  0  0
  -23.7227  -37.6468   23.6674 H   0  0  0  0  0  0
  -26.1332  -31.5050   20.6124 H   0  0  0  0  0  0
  -26.8516  -30.7908   22.0279 H   0  0  0  0  0  0
  -28.1061  -28.8823   21.2541 H   0  0  0  0  0  0
  -25.9922  -25.9293   18.9210 H   0  0  0  0  0  0
  -24.0090  -27.3209   18.9282 H   0  0  0  0  0  0
  -23.7704  -30.5804   19.3949 H   0  0  0  0  0  0
  -22.7687  -29.2393   19.8553 H   0  0  0  0  0  0
  -25.1293  -36.1907   25.0819 H   0  0  0  0  0  0
  -21.0073  -28.3292   24.1386 H   0  0  0  0  0  0
  -20.5738  -26.2303   23.3624 H   0  0  0  0  0  0
  -21.6663  -26.7445   22.1186 H   0  0  0  0  0  0
  -19.6892  -25.6318   21.1276 H   0  0  0  0  0  0
  -19.6731  -27.3215   20.6770 H   0  0  0  0  0  0
  -17.4234  -26.6801   21.4038 H   0  0  0  0  0  0
  -18.0308  -26.0138   22.9042 H   0  0  0  0  0  0
  -19.7944  -30.7367   24.2247 H   0  0  0  0  0  0
  -17.4996  -31.6282   24.5185 H   0  0  0  0  0  0
  -15.5356  -30.2966   23.7668 H   0  0  0  0  0  0
  -15.8754  -28.0835   22.7042 H   0  0  0  0  0  0
  -24.5853  -30.7159   25.7756 H   0  0  0  0  0  0
  -24.8854  -32.2977   26.4841 H   0  0  0  0  0  0
  -25.7948  -30.8997   27.0263 H   0  0  0  0  0  0
  -26.2883  -29.6832   24.1250 H   0  0  0  0  0  0
  -27.3929  -29.7293   25.4792 H   0  0  0  0  0  0
  -27.8792  -30.4330   23.9541 H   0  0  0  0  0  0
  -27.2708  -33.3692   26.2035 H   0  0  0  0  0  0
  -28.3847  -32.6897   25.0295 H   0  0  0  0  0  0
  -28.0733  -31.8528   26.5419 H   0  0  0  0  0  0
  -28.2582  -38.0093   24.7519 H   0  0  0  0  0  0
  -28.1111  -36.2632   24.6270 H   0  0  0  0  0  0
  -27.2325  -37.1387   25.8866 H   0  0  0  0  0  0
  -20.9431  -29.8687   21.6797 H   0  0  0  0  0  0
  -26.0183  -38.2819   24.1447 H   0  0  0  0  0  0
  -27.0880  -21.8245   21.7901 H   0  0  0  0  0  0
  -31.2182  -22.2849   18.9255 H   0  0  0  0  0  0
  -31.0518  -20.6165   18.4726 H   0  0  0  0  0  0
  -31.9427  -21.0157   19.9349 H   0  0  0  0  0  0
  -31.1582  -23.6006   21.6312 H   0  0  0  0  0  0
  -30.6690  -25.2477   21.3490 H   0  0  0  0  0  0
  -31.1093  -24.2242   19.9846 H   0  0  0  0  0  0
  -25.9286  -19.0189   19.7285 H   0  0  0  0  0  0
  -25.2925  -19.9371   21.0844 H   0  0  0  0  0  0
  -25.2061  -18.1732   21.0827 H   0  0  0  0  0  0
  -28.1467  -18.6965   23.4208 H   0  0  0  0  0  0
  -26.5644  -17.9453   23.3225 H   0  0  0  0  0  0
  -26.6992  -19.6924   23.4810 H   0  0  0  0  0  0
  -29.1028  -18.1248   19.1834 H   0  0  0  0  0  0
  -30.7232  -18.6557   19.3215 H   0  0  0  0  0  0
  -31.2445  -17.3575   21.2022 H   0  0  0  0  0  0
  -29.6797  -17.5047   21.8873 H   0  0  0  0  0  0
  -27.1628  -24.5625   20.2131 H   0  0  0  0  0  0
  -28.3433  -24.6793   18.9562 H   0  0  0  0  0  0
  -28.7681  -23.9169   21.8709 H   0  0  0  0  0  0
  -27.6093  -17.9848   21.1326 H   0  0  0  0  0  0
  -28.8490  -15.6505   20.6406 H   0  0  0  0  0  0
  1 25  1  0  0  0
  1 30  2  0  0  0
  1 85  1  0  0  0
  2  3  1  0  0  0
  2 25  1  0  0  0
  2 86  1  0  0  0
  2 87  1  0  0  0
  3  4  1  0  0  0
  3 88  1  0  0  0
  3 89  1  0  0  0
  4  5  1  0  0  0
  4 90  1  0  0  0
  4 91  1  0  0  0
  5  6  1  0  0  0
  5 26  1  0  0  0
  5 92  1  0  0  0
  6 25  1  0  0  0
  6 93  1  0  0  0
  6 94  1  0  0  0
  7  8  2  0  0  0
  7 26  1  0  0  0
  7 29  1  0  0  0
  8  9  1  0  0  0
  8 22  1  0  0  0
  9 10  1  0  0  0
  9 27  2  0  0  0
 10 11  2  0  0  0
 10 15  1  0  0  0
 11 12  1  0  0  0
 11 95  1  0  0  0
 12 13  2  0  0  0
 12 96  1  0  0  0
 13 14  1  0  0  0
 13 31  1  0  0  0
 14 15  2  0  0  0
 14 97  1  0  0  0
 15 98  1  0  0  0
 16 17  2  0  0  0
 16 21  1  0  0  0
 16 31  1  0  0  0
 17 18  1  0  0  0
 17 99  1  0  0  0
 18 19  2  0  0  0
 18100  1  0  0  0
 19 20  1  0  0  0
 19 24  1  0  0  0
 20 21  2  0  0  0
 20101  1  0  0  0
 21 23  1  0  0  0
 22 28  1  0  0  0
 22 32  2  0  0  0
 26 27  1  0  0  0
 28102  1  0  0  0
 28103  1  0  0  0
 29104  1  0  0  0
 29105  1  0  0  0
 33 34  1  0  0  0
 33 66  1  0  0  0
 33 70  2  0  0  0
 34 36  1  0  0  0
 34 59  1  0  0  0
 34106  1  0  0  0
 35 44  2  0  0  0
 35 45  1  0  0  0
 35 68  1  0  0  0
 36 56  1  0  0  0
 36107  1  0  0  0
 37 39  1  0  0  0
 37 47  1  0  0  0
 37 66  1  0  0  0
 37108  1  0  0  0
 38 43  2  0  0  0
 38 46  1  0  0  0
 38 47  1  0  0  0
 39 64  1  0  0  0
 39 67  2  0  0  0
 40 52  1  0  0  0
 40 53  2  0  0  0
 40 58  1  0  0  0
 41109  1  0  0  0
 41110  1  0  0  0
 41111  1  0  0  0
 41 48  1  0  0  0
 42 43  1  0  0  0
 42 66  1  0  0  0
 42112  1  0  0  0
 42113  1  0  0  0
 43 44  1  0  0  0
 44114  1  0  0  0
 45 46  2  0  0  0
 45115  1  0  0  0
 46116  1  0  0  0
 47117  1  0  0  0
 47118  1  0  0  0
 48 56  1  0  0  0
 48 65  1  0  0  0
 48119  1  0  0  0
 49 50  1  0  0  0
 49 53  1  0  0  0
 49 64  1  0  0  0
 49120  1  0  0  0
 50 51  1  0  0  0
 50121  1  0  0  0
 50122  1  0  0  0
 51 52  1  0  0  0
 51123  1  0  0  0
 51124  1  0  0  0
 52125  1  0  0  0
 52126  1  0  0  0
 53 54  1  0  0  0
 54 55  2  0  0  0
 54127  1  0  0  0
 55 57  1  0  0  0
 55128  1  0  0  0
 56 69  2  0  0  0
 57 58  2  0  0  0
 57129  1  0  0  0
 58130  1  0  0  0
 59 60  1  0  0  0
 59 61  1  0  0  0
 59 62  1  0  0  0
 60131  1  0  0  0
 60132  1  0  0  0
 60133  1  0  0  0
 61134  1  0  0  0
 61135  1  0  0  0
 61136  1  0  0  0
 62137  1  0  0  0
 62138  1  0  0  0
 62139  1  0  0  0
 63 65  1  0  0  0
 63140  1  0  0  0
 63141  1  0  0  0
 63142  1  0  0  0
 64143  1  0  0  0
 65144  1  0  0  0
 68 81  1  0  0  0
 71 72  1  0  0  0
 71 73  2  0  0  0
 71145  1  0  0  0
 72 74  2  0  0  0
 72 82  1  0  0  0
 73 83  1  0  0  0
 73 84  1  0  0  0
 74 75  1  0  0  0
 74 84  1  0  0  0
 75146  1  0  0  0
 75147  1  0  0  0
 75148  1  0  0  0
 76149  1  0  0  0
 76150  1  0  0  0
 76151  1  0  0  0
 76 82  1  0  0  0
 77152  1  0  0  0
 77153  1  0  0  0
 77154  1  0  0  0
 77 83  1  0  0  0
 78 83  1  0  0  0
 78155  1  0  0  0
 78156  1  0  0  0
 78157  1  0  0  0
 79 80  1  0  0  0
 79 84  1  0  0  0
 79158  1  0  0  0
 79159  1  0  0  0
 80 85  1  0  0  0
 80160  1  0  0  0
 80161  1  0  0  0
 81 82  1  0  0  0
 81162  1  0  0  0
 81163  1  0  0  0
 82164  1  0  0  0
 83165  1  0  0  0
 85166  1  0  0  0
M  ISO  4   1 100  68 101  81 101  85 100
M  END
> <chiral flag>
0

> <version>
0

> <s_m_source_file>
/data/baiqing/PycharmProjects/Reinvent-master-3.2/result/LINK_invent/BTK/process_docking_weight1_custom_sum_contain_oxygen_bond_distance_aromatic_linkinvent_7_9_3/rearranged_h_0105.sdf

> <i_m_source_file_index>
76

> <r_mmod_Potential_Energy-OPLS-2005>
142.292938232422

> <r_mmod_Stretch_Energy-OPLS-2005>
131.407608032227

> <r_mmod_Bend_Energy-OPLS-2005>
188.376007080078

> <r_mmod_Torsional_Energy-OPLS-2005>
243.082397460938

> <r_mmod_Improper_Torsional_Energy-OPLS-2005>
6.16517019271851

> <r_mmod_Van_der_Waal_Energy-OPLS-2005>
108.165191650391

> <r_mmod_Electrostatic_Energy-OPLS-2005>
-421.580627441406

> <r_mmod_Solvation_Energy-OPLS-2005>
-206.534240722656

> <b_mmod_Minimization_Converged-OPLS-2005>
0

> <r_mmod_RMS_Derivative-OPLS-2005>
7.00528049468994

$$$$
76
                    3D
 Structure written by MMmdl.
168175  0  0  1  0            999 V2000
  -30.7928  -14.3087   20.7218 C   0  0  0  0  0  0
  -30.4180  -12.2762   19.3771 C   0  0  0  0  0  0
  -29.4807  -12.5389   18.1844 C   0  0  0  0  0  0
  -28.0063  -12.3898   18.6016 C   0  0  0  0  0  0
  -27.6694  -13.2003   19.8787 C   0  0  2  0  0  0
  -28.7054  -12.9197   20.9893 C   0  0  0  0  0  0
  -25.2620  -13.8159   20.5666 C   0  0  0  0  0  0
  -24.1853  -13.0449   20.9159 C   0  0  0  0  0  0
  -24.6396  -11.6910   20.8724 C   0  0  0  0  0  0
  -23.9055  -10.4305   21.0404 C   0  0  0  0  0  0
  -24.3606   -9.4222   21.9183 C   0  0  0  0  0  0
  -23.6288   -8.2255   22.0754 C   0  0  0  0  0  0
  -22.4273   -8.0284   21.3543 C   0  0  0  0  0  0
  -21.9900   -9.0259   20.4651 C   0  0  0  0  0  0
  -22.7224  -10.2143   20.3061 C   0  0  0  0  0  0
  -21.6848   -6.0737   22.5289 C   0  0  0  0  0  0
  -21.4012   -6.5642   23.8221 C   0  0  0  0  0  0
  -21.3663   -5.6795   24.9180 C   0  0  0  0  0  0
  -21.6045   -4.3056   24.7232 C   0  0  0  0  0  0
  -21.8817   -3.8151   23.4349 C   0  0  0  0  0  0
  -21.9192   -4.6968   22.3409 C   0  0  0  0  0  0
  -22.7874  -13.5262   21.1837 C   0  0  0  0  0  0
  -22.1660   -4.2158   21.0983 F   0  0  0  0  0  0
  -21.5634   -3.4541   25.7741 F   0  0  0  0  0  0
  -30.0614  -13.1952   20.4645 N   0  0  0  0  0  0
  -26.3056  -12.9322   20.3355 N   0  0  0  0  0  0
  -25.9319  -11.6483   20.5726 N   0  0  0  0  0  0
  -22.0499  -12.8256   22.0387 N   0  0  0  0  0  0
  -25.4373  -15.1869   20.4101 N   0  0  0  0  0  0
  -31.7440  -14.6718   20.0223 O   0  0  0  0  0  0
  -21.6643   -6.8873   21.4244 O   0  0  0  0  0  0
  -22.3570  -14.5587   20.6714 O   0  0  0  0  0  0
  -24.6148  -31.8717   23.2121 C   0  0  0  0  0  0
  -25.9068  -32.4829   23.8404 C   0  0  1  0  0  0
  -27.2232  -27.4556   20.0814 C   0  0  0  0  0  0
  -25.5958  -33.8624   24.2355 N   0  0  0  0  0  0
  -23.4007  -30.4970   21.5530 C   0  0  2  0  0  0
  -24.8445  -28.9694   20.1134 C   0  0  0  0  0  0
  -22.7419  -29.4666   22.4986 C   0  0  0  0  0  0
  -18.0300  -28.1358   22.8507 C   0  0  0  0  0  0
  -24.1503  -36.7320   23.2621 C   0  0  0  0  0  0
  -25.9293  -30.8399   21.3659 C   0  0  0  0  0  0
  -26.0041  -29.4746   20.7161 C   0  0  0  0  0  0
  -27.1980  -28.7200   20.7077 C   0  0  0  0  0  0
  -26.0605  -26.9798   19.4427 C   0  0  0  0  0  0
  -24.8657  -27.7188   19.4758 C   0  0  0  0  0  0
  -23.6080  -29.8349   20.1660 C   0  0  0  0  0  0
  -25.4119  -36.3115   24.0328 C   0  0  1  0  0  0
  -20.5883  -28.3685   23.1370 C   0  0  2  0  0  0
  -20.6817  -26.9413   22.5500 C   0  0  0  0  0  0
  -19.5844  -26.6443   21.5237 C   0  0  0  0  0  0
  -18.2020  -26.7891   22.1680 C   0  0  0  0  0  0
  -19.1532  -28.8838   23.2920 C   0  0  0  0  0  0
  -18.9456  -30.1443   23.8917 C   0  0  0  0  0  0
  -17.6454  -30.6581   24.0546 C   0  0  0  0  0  0
  -25.9049  -34.9474   23.5123 C   0  0  0  0  0  0
  -16.5356  -29.9061   23.6331 C   0  0  0  0  0  0
  -16.7281  -28.6466   23.0365 C   0  0  0  0  0  0
  -26.4502  -31.6585   25.0708 C   0  0  0  0  0  0
  -25.3772  -31.3695   26.1458 C   0  0  0  0  0  0
  -27.0326  -30.3029   24.6051 C   0  0  0  0  0  0
  -27.6100  -32.4274   25.7477 C   0  0  0  0  0  0
  -27.5585  -37.1817   24.8452 C   0  0  0  0  0  0
  -21.4140  -29.3050   22.3754 N   0  0  0  0  0  0
  -26.4305  -37.3793   23.9391 N   0  0  0  0  0  0
  -24.6667  -31.0828   22.1025 N   0  0  0  0  0  0
  -23.4216  -28.8191   23.3000 O   0  0  0  0  0  0
  -28.3753  -26.7092   20.0595 O   0  0  0  0  0  0
  -26.5572  -34.8919   22.4661 O   0  0  0  0  0  0
  -23.5348  -32.1470   23.7529 O   0  0  0  0  0  0
  -28.0978  -19.9986   21.9320 C   0  0  0  0  0  0
  -31.1841  -15.9585   23.9063 C   0  0  0  0  0  0
  -31.8481  -17.0135   21.7142 C   0  0  0  0  0  0
  -26.9418  -18.6970   23.6991 C   0  0  0  0  0  0
  -26.8243  -20.8249   21.7197 C   0  0  0  0  0  0
  -29.4083  -17.0115   22.3992 C   0  0  0  0  0  0
  -27.6860  -24.3355   20.3962 C   0  0  0  0  0  0
  -29.3487  -18.3158   23.2146 C   0  0  0  0  0  0
  -27.7475  -23.1207   21.3379 C   0  0  0  0  0  0
  -28.3853  -25.5935   20.9580 C   0  0  0  0  0  0
  -30.7407  -16.2267   22.4544 C   0  0  0  0  0  0
  -30.4319  -14.9201   21.8576 N   0  0  0  0  0  0
  -28.1218  -19.0608   22.9072 N   0  0  0  0  0  0
  -27.0392  -21.9446   20.7739 N   0  3  0  0  0  0
  -29.0695  -20.2158   21.2003 O   0  0  0  0  0  0
  -31.4613  -12.3809   19.0713 H   0  0  0  0  0  0
  -30.3136  -11.2463   19.7219 H   0  0  0  0  0  0
  -29.7095  -11.8546   17.3659 H   0  0  0  0  0  0
  -29.6517  -13.5453   17.7980 H   0  0  0  0  0  0
  -27.8096  -11.3306   18.7692 H   0  0  0  0  0  0
  -27.3539  -12.6927   17.7821 H   0  0  0  0  0  0
  -27.7339  -14.2572   19.6188 H   0  0  0  0  0  0
  -28.6506  -11.8742   21.2967 H   0  0  0  0  0  0
  -28.4413  -13.4917   21.8784 H   0  0  0  0  0  0
  -25.2754   -9.5699   22.4746 H   0  0  0  0  0  0
  -24.0008   -7.4647   22.7471 H   0  0  0  0  0  0
  -21.0826   -8.8774   19.8957 H   0  0  0  0  0  0
  -22.3680  -10.9676   19.6170 H   0  0  0  0  0  0
  -21.2001   -7.6150   23.9729 H   0  0  0  0  0  0
  -21.1484   -6.0520   25.9083 H   0  0  0  0  0  0
  -22.0588   -2.7613   23.2853 H   0  0  0  0  0  0
  -22.4094  -11.9917   22.4788 H   0  0  0  0  0  0
  -21.1131  -13.1319   22.2613 H   0  0  0  0  0  0
  -24.6762  -15.8472   20.5218 H   0  0  0  0  0  0
  -26.3001  -15.6193   20.1046 H   0  0  0  0  0  0
  -26.7140  -32.5557   23.1168 H   0  0  0  0  0  0
  -25.0168  -33.9788   25.0540 H   0  0  0  0  0  0
  -22.6883  -31.3130   21.4170 H   0  0  0  0  0  0
  -23.3746  -35.9674   23.3301 H   0  0  0  0  0  0
  -24.3587  -36.8918   22.2033 H   0  0  0  0  0  0
  -23.7297  -37.6544   23.6618 H   0  0  0  0  0  0
  -26.0371  -31.6051   20.5956 H   0  0  0  0  0  0
  -26.8201  -30.8952   21.9788 H   0  0  0  0  0  0
  -28.0958  -29.1008   21.1750 H   0  0  0  0  0  0
  -26.0730  -26.0513   18.8948 H   0  0  0  0  0  0
  -23.9825  -27.3325   18.9876 H   0  0  0  0  0  0
  -23.7179  -30.6125   19.4094 H   0  0  0  0  0  0
  -22.7317  -29.2567   19.8667 H   0  0  0  0  0  0
  -25.1297  -36.1965   25.0820 H   0  0  0  0  0  0
  -20.9937  -28.3302   24.1504 H   0  0  0  0  0  0
  -20.5667  -26.2298   23.3696 H   0  0  0  0  0  0
  -21.6718  -26.7434   22.1356 H   0  0  0  0  0  0
  -19.7069  -25.6415   21.1133 H   0  0  0  0  0  0
  -19.6755  -27.3361   20.6858 H   0  0  0  0  0  0
  -17.4277  -26.6486   21.4128 H   0  0  0  0  0  0
  -18.0545  -26.0055   22.9123 H   0  0  0  0  0  0
  -19.7912  -30.7264   24.2315 H   0  0  0  0  0  0
  -17.5004  -31.6272   24.5127 H   0  0  0  0  0  0
  -15.5358  -30.2970   23.7663 H   0  0  0  0  0  0
  -15.8677  -28.0771   22.7115 H   0  0  0  0  0  0
  -24.5941  -30.7041   25.7790 H   0  0  0  0  0  0
  -24.8954  -32.2859   26.4883 H   0  0  0  0  0  0
  -25.8128  -30.8875   27.0222 H   0  0  0  0  0  0
  -26.2872  -29.6796   24.1087 H   0  0  0  0  0  0
  -27.4107  -29.7236   25.4488 H   0  0  0  0  0  0
  -27.8699  -30.4342   23.9188 H   0  0  0  0  0  0
  -27.2740  -33.3552   26.2109 H   0  0  0  0  0  0
  -28.3900  -32.6863   25.0305 H   0  0  0  0  0  0
  -28.0774  -31.8347   26.5349 H   0  0  0  0  0  0
  -28.2602  -38.0113   24.7493 H   0  0  0  0  0  0
  -28.1089  -36.2644   24.6293 H   0  0  0  0  0  0
  -27.2285  -37.1491   25.8850 H   0  0  0  0  0  0
  -20.9254  -29.8810   21.7026 H   0  0  0  0  0  0
  -26.0191  -38.2866   24.1389 H   0  0  0  0  0  0
  -31.4091  -16.8792   24.4456 H   0  0  0  0  0  0
  -32.0877  -15.3472   23.9362 H   0  0  0  0  0  0
  -30.4146  -15.4326   24.4734 H   0  0  0  0  0  0
  -32.0823  -17.9532   22.2130 H   0  0  0  0  0  0
  -31.5506  -17.2627   20.6942 H   0  0  0  0  0  0
  -32.7805  -16.4502   21.6597 H   0  0  0  0  0  0
  -26.6109  -19.5207   24.3323 H   0  0  0  0  0  0
  -27.1345  -17.8429   24.3486 H   0  0  0  0  0  0
  -26.1157  -18.4061   23.0487 H   0  0  0  0  0  0
  -26.4422  -21.2045   22.6680 H   0  0  0  0  0  0
  -26.0608  -20.1636   21.3086 H   0  0  0  0  0  0
  -29.1793  -17.2300   21.3548 H   0  0  0  0  0  0
  -28.5913  -16.3761   22.7449 H   0  0  0  0  0  0
  -26.6319  -24.5390   20.2300 H   0  0  0  0  0  0
  -28.1253  -24.0845   19.4302 H   0  0  0  0  0  0
  -30.2245  -18.9370   23.0220 H   0  0  0  0  0  0
  -29.3883  -18.0974   24.2822 H   0  0  0  0  0  0
  -27.2952  -23.3849   22.2947 H   0  0  0  0  0  0
  -28.7883  -22.8672   21.5422 H   0  0  0  0  0  0
  -27.9488  -25.8790   21.9167 H   0  0  0  0  0  0
  -29.4292  -25.3583   21.1668 H   0  0  0  0  0  0
  -29.7170  -14.4041   22.3495 H   0  0  0  0  0  0
  -26.1383  -22.2345   20.4312 H   0  0  0  0  0  0
  -27.5675  -21.5803   19.9951 H   0  0  0  0  0  0
  1 25  1  0  0  0
  1 30  2  0  0  0
  1 82  1  0  0  0
  2  3  1  0  0  0
  2 25  1  0  0  0
  2 86  1  0  0  0
  2 87  1  0  0  0
  3  4  1  0  0  0
  3 88  1  0  0  0
  3 89  1  0  0  0
  4  5  1  0  0  0
  4 90  1  0  0  0
  4 91  1  0  0  0
  5  6  1  0  0  0
  5 26  1  0  0  0
  5 92  1  0  0  0
  6 25  1  0  0  0
  6 93  1  0  0  0
  6 94  1  0  0  0
  7  8  2  0  0  0
  7 26  1  0  0  0
  7 29  1  0  0  0
  8  9  1  0  0  0
  8 22  1  0  0  0
  9 10  1  0  0  0
  9 27  2  0  0  0
 10 11  2  0  0  0
 10 15  1  0  0  0
 11 12  1  0  0  0
 11 95  1  0  0  0
 12 13  2  0  0  0
 12 96  1  0  0  0
 13 14  1  0  0  0
 13 31  1  0  0  0
 14 15  2  0  0  0
 14 97  1  0  0  0
 15 98  1  0  0  0
 16 17  2  0  0  0
 16 21  1  0  0  0
 16 31  1  0  0  0
 17 18  1  0  0  0
 17 99  1  0  0  0
 18 19  2  0  0  0
 18100  1  0  0  0
 19 20  1  0  0  0
 19 24  1  0  0  0
 20 21  2  0  0  0
 20101  1  0  0  0
 21 23  1  0  0  0
 22 28  1  0  0  0
 22 32  2  0  0  0
 26 27  1  0  0  0
 28102  1  0  0  0
 28103  1  0  0  0
 29104  1  0  0  0
 29105  1  0  0  0
 33 34  1  0  0  0
 33 66  1  0  0  0
 33 70  2  0  0  0
 34 36  1  0  0  0
 34 59  1  0  0  0
 34106  1  0  0  0
 35 44  2  0  0  0
 35 45  1  0  0  0
 35 68  1  0  0  0
 36 56  1  0  0  0
 36107  1  0  0  0
 37 39  1  0  0  0
 37 47  1  0  0  0
 37 66  1  0  0  0
 37108  1  0  0  0
 38 43  2  0  0  0
 38 46  1  0  0  0
 38 47  1  0  0  0
 39 64  1  0  0  0
 39 67  2  0  0  0
 40 52  1  0  0  0
 40 53  2  0  0  0
 40 58  1  0  0  0
 41109  1  0  0  0
 41110  1  0  0  0
 41111  1  0  0  0
 41 48  1  0  0  0
 42 43  1  0  0  0
 42 66  1  0  0  0
 42112  1  0  0  0
 42113  1  0  0  0
 43 44  1  0  0  0
 44114  1  0  0  0
 45 46  2  0  0  0
 45115  1  0  0  0
 46116  1  0  0  0
 47117  1  0  0  0
 47118  1  0  0  0
 48 56  1  0  0  0
 48 65  1  0  0  0
 48119  1  0  0  0
 49 50  1  0  0  0
 49 53  1  0  0  0
 49 64  1  0  0  0
 49120  1  0  0  0
 50 51  1  0  0  0
 50121  1  0  0  0
 50122  1  0  0  0
 51 52  1  0  0  0
 51123  1  0  0  0
 51124  1  0  0  0
 52125  1  0  0  0
 52126  1  0  0  0
 53 54  1  0  0  0
 54 55  2  0  0  0
 54127  1  0  0  0
 55 57  1  0  0  0
 55128  1  0  0  0
 56 69  2  0  0  0
 57 58  2  0  0  0
 57129  1  0  0  0
 58130  1  0  0  0
 59 60  1  0  0  0
 59 61  1  0  0  0
 59 62  1  0  0  0
 60131  1  0  0  0
 60132  1  0  0  0
 60133  1  0  0  0
 61134  1  0  0  0
 61135  1  0  0  0
 61136  1  0  0  0
 62137  1  0  0  0
 62138  1  0  0  0
 62139  1  0  0  0
 63 65  1  0  0  0
 63140  1  0  0  0
 63141  1  0  0  0
 63142  1  0  0  0
 64143  1  0  0  0
 65144  1  0  0  0
 68 80  1  0  0  0
 71 75  1  0  0  0
 71 83  1  0  0  0
 71 85  2  0  0  0
 72145  1  0  0  0
 72146  1  0  0  0
 72147  1  0  0  0
 72 81  1  0  0  0
 73 81  1  0  0  0
 73148  1  0  0  0
 73149  1  0  0  0
 73150  1  0  0  0
 74 83  1  0  0  0
 74151  1  0  0  0
 74152  1  0  0  0
 74153  1  0  0  0
 75 84  1  0  0  0
 75154  1  0  0  0
 75155  1  0  0  0
 76 78  1  0  0  0
 76 81  1  0  0  0
 76156  1  0  0  0
 76157  1  0  0  0
 77 79  1  0  0  0
 77 80  1  0  0  0
 77158  1  0  0  0
 77159  1  0  0  0
 78 83  1  0  0  0
 78160  1  0  0  0
 78161  1  0  0  0
 79 84  1  0  0  0
 79162  1  0  0  0
 79163  1  0  0  0
 80164  1  0  0  0
 80165  1  0  0  0
 81 82  1  0  0  0
 82166  1  0  0  0
 84167  1  0  0  0
 84168  1  0  0  0
M  CHG  1  84   1
M  ISO  4   1 100  68 101  80 101  82 100
M  END
> <chiral flag>
0

> <version>
0

> <s_m_source_file>
/data/baiqing/PycharmProjects/Reinvent-master-3.2/result/LINK_invent/BTK/process_docking_weight1_custom_sum_contain_oxygen_bond_distance_aromatic_linkinvent_7_9_3/rearranged_h_0105.sdf

> <i_m_source_file_index>
77

> <r_mmod_Potential_Energy-OPLS-2005>
-329.540954589844

> <r_mmod_Stretch_Energy-OPLS-2005>
33.5015449523926

> <r_mmod_Bend_Energy-OPLS-2005>
104.615844726562

> <r_mmod_Torsional_Energy-OPLS-2005>
239.55403137207

> <r_mmod_Improper_Torsional_Energy-OPLS-2005>
2.31388425827026

> <r_mmod_Van_der_Waal_Energy-OPLS-2005>
149.946197509766

> <r_mmod_Electrostatic_Energy-OPLS-2005>
-386.906005859375

> <r_mmod_Solvation_Energy-OPLS-2005>
-481.439270019531

> <b_mmod_Minimization_Converged-OPLS-2005>
0

> <r_mmod_RMS_Derivative-OPLS-2005>
2.23005628585815

$$$$
77
                    3D
 Structure written by MMmdl.
160168  0  0  1  0            999 V2000
  -30.3995  -15.3092   20.3863 C   0  0  0  0  0  0
  -30.4319  -12.8472   19.5311 C   0  0  0  0  0  0
  -29.5339  -12.5940   18.2922 C   0  0  0  0  0  0
  -28.0826  -12.3029   18.7131 C   0  0  0  0  0  0
  -27.5967  -13.2722   19.8184 C   0  0  2  0  0  0
  -28.6262  -13.4626   20.9538 C   0  0  0  0  0  0
  -25.2129  -13.7850   20.5568 C   0  0  0  0  0  0
  -24.1573  -13.0122   20.9306 C   0  0  0  0  0  0
  -24.6354  -11.6708   20.8812 C   0  0  0  0  0  0
  -23.9054  -10.4121   21.0437 C   0  0  0  0  0  0
  -24.3611   -9.4073   21.9227 C   0  0  0  0  0  0
  -23.6267   -8.2128   22.0780 C   0  0  0  0  0  0
  -22.4250   -8.0202   21.3551 C   0  0  0  0  0  0
  -21.9888   -9.0170   20.4648 C   0  0  0  0  0  0
  -22.7233  -10.2029   20.3066 C   0  0  0  0  0  0
  -21.6814   -6.0697   22.5278 C   0  0  0  0  0  0
  -21.3991   -6.5622   23.8208 C   0  0  0  0  0  0
  -21.3651   -5.6789   24.9182 C   0  0  0  0  0  0
  -21.6038   -4.3048   24.7231 C   0  0  0  0  0  0
  -21.8824   -3.8130   23.4355 C   0  0  0  0  0  0
  -21.9186   -4.6936   22.3408 C   0  0  0  0  0  0
  -22.7617  -13.4972   21.1942 C   0  0  0  0  0  0
  -22.1656   -4.2128   21.0983 F   0  0  0  0  0  0
  -21.5634   -3.4533   25.7746 F   0  0  0  0  0  0
  -29.8524  -13.9912   20.3319 N   0  0  0  0  0  0
  -26.2708  -12.9312   20.3180 N   0  0  0  0  0  0
  -25.9322  -11.6428   20.5799 N   0  0  0  0  0  0
  -22.0272  -12.8009   22.0540 N   0  0  0  0  0  0
  -25.3277  -15.1394   20.3606 N   0  0  0  0  0  0
  -31.6246  -15.3139   20.1895 O   0  0  0  0  0  0
  -21.6594   -6.8822   21.4233 O   0  0  0  0  0  0
  -22.3340  -14.5289   20.6775 O   0  0  0  0  0  0
  -24.6621  -31.8236   23.1716 C   0  0  0  0  0  0
  -25.9318  -32.4591   23.8192 C   0  0  1  0  0  0
  -27.2113  -26.9251   20.1976 C   0  0  0  0  0  0
  -25.6005  -33.8415   24.2119 N   0  0  0  0  0  0
  -23.4792  -30.4362   21.5158 C   0  0  2  0  0  0
  -24.9333  -28.8244   20.1094 C   0  0  0  0  0  0
  -22.7664  -29.4460   22.4734 C   0  0  0  0  0  0
  -18.0308  -28.1378   22.8521 C   0  0  0  0  0  0
  -24.1494  -36.7215   23.2644 C   0  0  0  0  0  0
  -26.0481  -30.6323   21.4015 C   0  0  0  0  0  0
  -26.1161  -29.2222   20.7456 C   0  0  0  0  0  0
  -27.2526  -28.2940   20.7613 C   0  0  0  0  0  0
  -25.9990  -26.6776   19.5147 C   0  0  0  0  0  0
  -24.9005  -27.5730   19.4727 C   0  0  0  0  0  0
  -23.7222  -29.7560   20.1403 C   0  0  0  0  0  0
  -25.4144  -36.2988   24.0299 C   0  0  1  0  0  0
  -20.5943  -28.3744   23.1104 C   0  0  2  0  0  0
  -20.6810  -26.9474   22.5210 C   0  0  0  0  0  0
  -19.5651  -26.6336   21.5190 C   0  0  0  0  0  0
  -18.1933  -26.7841   22.1823 C   0  0  0  0  0  0
  -19.1593  -28.8888   23.2786 C   0  0  0  0  0  0
  -18.9522  -30.1475   23.8834 C   0  0  0  0  0  0
  -17.6531  -30.6610   24.0547 C   0  0  0  0  0  0
  -25.9108  -34.9354   23.5027 C   0  0  0  0  0  0
  -16.5407  -29.9111   23.6341 C   0  0  0  0  0  0
  -16.7296  -28.6489   23.0421 C   0  0  0  0  0  0
  -26.4591  -31.6521   25.0709 C   0  0  0  0  0  0
  -25.3723  -31.3752   26.1366 C   0  0  0  0  0  0
  -27.0496  -30.2884   24.6442 C   0  0  0  0  0  0
  -27.6098  -32.4327   25.7529 C   0  0  0  0  0  0
  -27.5586  -37.1778   24.8474 C   0  0  0  0  0  0
  -21.4324  -29.3090   22.3514 N   0  0  0  0  0  0
  -26.4301  -37.3712   23.9400 N   0  0  0  0  0  0
  -24.7517  -30.9923   22.0836 N   0  0  0  0  0  0
  -23.4227  -28.8010   23.2944 O   0  0  0  0  0  0
  -28.2074  -25.8169   20.2872 O   0  0  0  0  0  0
  -26.5697  -34.8884   22.4602 O   0  0  0  0  0  0
  -23.5678  -32.1213   23.6786 O   0  0  0  0  0  0
  -26.8996  -21.1526   19.9084 C   0  0  0  0  0  0
  -26.2970  -19.9429   19.8313 C   0  0  0  0  0  0
  -27.2475  -18.9906   20.2904 C   0  0  0  0  0  0
  -28.5262  -19.5094   20.3371 C   0  0  0  0  0  0
  -26.8706  -17.5856   20.6025 C   0  0  0  0  0  0
  -24.9322  -19.1553   17.8871 C   0  0  0  0  0  0
  -23.8954  -20.8311   19.4735 C   0  0  0  0  0  0
  -29.7557  -18.2618   20.4738 C   0  0  0  0  0  0
  -28.8284  -22.6312   20.3951 C   0  0  0  0  0  0
  -27.9192  -24.1943   20.1662 C   0  0  0  0  0  0
  -24.8765  -19.6519   19.3409 C   0  0  0  0  0  0
  -28.2423  -21.0737   20.2570 N   0  0  0  0  0  0
  -29.6073  -16.5712   20.4688 N   0  0  0  0  0  0
  -31.4455  -13.0741   19.1939 H   0  0  0  0  0  0
  -30.5188  -11.9483   20.1424 H   0  0  0  0  0  0
  -29.9279  -11.7669   17.6993 H   0  0  0  0  0  0
  -29.5491  -13.4745   17.6488 H   0  0  0  0  0  0
  -28.0454  -11.2792   19.0867 H   0  0  0  0  0  0
  -27.4159  -12.3419   17.8508 H   0  0  0  0  0  0
  -27.4983  -14.2368   19.3183 H   0  0  0  0  0  0
  -28.8078  -12.5294   21.4906 H   0  0  0  0  0  0
  -28.2486  -14.1768   21.6876 H   0  0  0  0  0  0
  -25.2750   -9.5552   22.4817 H   0  0  0  0  0  0
  -23.9950   -7.4514   22.7510 H   0  0  0  0  0  0
  -21.0810   -8.8700   19.8952 H   0  0  0  0  0  0
  -22.3711  -10.9588   19.6180 H   0  0  0  0  0  0
  -21.1974   -7.6134   23.9700 H   0  0  0  0  0  0
  -21.1473   -6.0528   25.9085 H   0  0  0  0  0  0
  -22.0619   -2.7589   23.2862 H   0  0  0  0  0  0
  -22.3884  -11.9658   22.4904 H   0  0  0  0  0  0
  -21.0914  -13.1065   22.2773 H   0  0  0  0  0  0
  -24.5188  -15.7449   20.4406 H   0  0  0  0  0  0
  -26.1231  -15.5839   19.9290 H   0  0  0  0  0  0
  -26.7375  -32.5119   23.0894 H   0  0  0  0  0  0
  -25.0147  -33.9491   25.0274 H   0  0  0  0  0  0
  -22.7929  -31.2666   21.3424 H   0  0  0  0  0  0
  -23.3759  -35.9531   23.3284 H   0  0  0  0  0  0
  -24.3583  -36.8882   22.2065 H   0  0  0  0  0  0
  -23.7243  -37.6407   23.6709 H   0  0  0  0  0  0
  -26.2221  -31.3728   20.6206 H   0  0  0  0  0  0
  -26.9078  -30.6962   22.0574 H   0  0  0  0  0  0
  -28.1497  -28.5944   21.2850 H   0  0  0  0  0  0
  -25.8588  -25.7189   19.0355 H   0  0  0  0  0  0
  -24.0016  -27.2614   18.9619 H   0  0  0  0  0  0
  -23.8887  -30.5262   19.3838 H   0  0  0  0  0  0
  -22.8303  -29.2149   19.8172 H   0  0  0  0  0  0
  -25.1340  -36.1803   25.0789 H   0  0  0  0  0  0
  -21.0032  -28.3251   24.1208 H   0  0  0  0  0  0
  -20.5857  -26.2366   23.3411 H   0  0  0  0  0  0
  -21.6625  -26.7523   22.0845 H   0  0  0  0  0  0
  -19.6706  -25.6190   21.1356 H   0  0  0  0  0  0
  -19.6400  -27.3050   20.6625 H   0  0  0  0  0  0
  -17.4034  -26.6329   21.4467 H   0  0  0  0  0  0
  -18.0543  -26.0069   22.9367 H   0  0  0  0  0  0
  -19.7988  -30.7280   24.2245 H   0  0  0  0  0  0
  -17.5103  -31.6275   24.5205 H   0  0  0  0  0  0
  -15.5422  -30.3035   23.7687 H   0  0  0  0  0  0
  -15.8680  -28.0769   22.7263 H   0  0  0  0  0  0
  -24.5920  -30.7095   25.7653 H   0  0  0  0  0  0
  -24.8901  -32.2956   26.4686 H   0  0  0  0  0  0
  -25.7949  -30.8983   27.0218 H   0  0  0  0  0  0
  -26.3166  -29.6543   24.1441 H   0  0  0  0  0  0
  -27.4024  -29.7275   25.5109 H   0  0  0  0  0  0
  -27.9110  -30.4079   23.9858 H   0  0  0  0  0  0
  -27.2682  -33.3669   26.2005 H   0  0  0  0  0  0
  -28.3982  -32.6817   25.0408 H   0  0  0  0  0  0
  -28.0692  -31.8518   26.5545 H   0  0  0  0  0  0
  -28.2595  -38.0089   24.7517 H   0  0  0  0  0  0
  -28.1088  -36.2613   24.6300 H   0  0  0  0  0  0
  -27.2294  -37.1427   25.8877 H   0  0  0  0  0  0
  -20.9529  -29.8905   21.6787 H   0  0  0  0  0  0
  -26.0143  -38.2764   24.1387 H   0  0  0  0  0  0
  -26.4380  -22.1087   19.7105 H   0  0  0  0  0  0
  -25.8156  -17.5285   20.8611 H   0  0  0  0  0  0
  -27.3904  -17.2222   21.4900 H   0  0  0  0  0  0
  -27.0829  -16.9535   19.7398 H   0  0  0  0  0  0
  -25.5669  -18.2719   17.8005 H   0  0  0  0  0  0
  -25.3447  -19.9174   17.2246 H   0  0  0  0  0  0
  -23.9434  -18.8833   17.5149 H   0  0  0  0  0  0
  -23.7719  -21.1336   20.5131 H   0  0  0  0  0  0
  -22.9061  -20.5523   19.1070 H   0  0  0  0  0  0
  -24.2164  -21.7004   18.9024 H   0  0  0  0  0  0
  -30.2903  -18.4739   21.3975 H   0  0  0  0  0  0
  -30.4855  -18.4708   19.6926 H   0  0  0  0  0  0
  -29.2312  -22.6773   21.4059 H   0  0  0  0  0  0
  -29.7079  -22.6686   19.7532 H   0  0  0  0  0  0
  -27.0402  -24.0801   20.8015 H   0  0  0  0  0  0
  -27.5310  -24.1117   19.1521 H   0  0  0  0  0  0
  -24.4514  -18.8481   19.9417 H   0  0  0  0  0  0
  -28.6342  -16.3250   20.5496 H   0  0  0  0  0  0
  1 25  1  0  0  0
  1 30  2  0  0  0
  1 83  1  0  0  0
  2  3  1  0  0  0
  2 25  1  0  0  0
  2 84  1  0  0  0
  2 85  1  0  0  0
  3  4  1  0  0  0
  3 86  1  0  0  0
  3 87  1  0  0  0
  4  5  1  0  0  0
  4 88  1  0  0  0
  4 89  1  0  0  0
  5  6  1  0  0  0
  5 26  1  0  0  0
  5 90  1  0  0  0
  6 25  1  0  0  0
  6 91  1  0  0  0
  6 92  1  0  0  0
  7  8  2  0  0  0
  7 26  1  0  0  0
  7 29  1  0  0  0
  8  9  1  0  0  0
  8 22  1  0  0  0
  9 10  1  0  0  0
  9 27  2  0  0  0
 10 11  2  0  0  0
 10 15  1  0  0  0
 11 12  1  0  0  0
 11 93  1  0  0  0
 12 13  2  0  0  0
 12 94  1  0  0  0
 13 14  1  0  0  0
 13 31  1  0  0  0
 14 15  2  0  0  0
 14 95  1  0  0  0
 15 96  1  0  0  0
 16 17  2  0  0  0
 16 21  1  0  0  0
 16 31  1  0  0  0
 17 18  1  0  0  0
 17 97  1  0  0  0
 18 19  2  0  0  0
 18 98  1  0  0  0
 19 20  1  0  0  0
 19 24  1  0  0  0
 20 21  2  0  0  0
 20 99  1  0  0  0
 21 23  1  0  0  0
 22 28  1  0  0  0
 22 32  2  0  0  0
 26 27  1  0  0  0
 28100  1  0  0  0
 28101  1  0  0  0
 29102  1  0  0  0
 29103  1  0  0  0
 33 34  1  0  0  0
 33 66  1  0  0  0
 33 70  2  0  0  0
 34 36  1  0  0  0
 34 59  1  0  0  0
 34104  1  0  0  0
 35 44  2  0  0  0
 35 45  1  0  0  0
 35 68  1  0  0  0
 36 56  1  0  0  0
 36105  1  0  0  0
 37 39  1  0  0  0
 37 47  1  0  0  0
 37 66  1  0  0  0
 37106  1  0  0  0
 38 43  2  0  0  0
 38 46  1  0  0  0
 38 47  1  0  0  0
 39 64  1  0  0  0
 39 67  2  0  0  0
 40 52  1  0  0  0
 40 53  2  0  0  0
 40 58  1  0  0  0
 41107  1  0  0  0
 41108  1  0  0  0
 41109  1  0  0  0
 41 48  1  0  0  0
 42 43  1  0  0  0
 42 66  1  0  0  0
 42110  1  0  0  0
 42111  1  0  0  0
 43 44  1  0  0  0
 44112  1  0  0  0
 45 46  2  0  0  0
 45113  1  0  0  0
 46114  1  0  0  0
 47115  1  0  0  0
 47116  1  0  0  0
 48 56  1  0  0  0
 48 65  1  0  0  0
 48117  1  0  0  0
 49 50  1  0  0  0
 49 53  1  0  0  0
 49 64  1  0  0  0
 49118  1  0  0  0
 50 51  1  0  0  0
 50119  1  0  0  0
 50120  1  0  0  0
 51 52  1  0  0  0
 51121  1  0  0  0
 51122  1  0  0  0
 52123  1  0  0  0
 52124  1  0  0  0
 53 54  1  0  0  0
 54 55  2  0  0  0
 54125  1  0  0  0
 55 57  1  0  0  0
 55126  1  0  0  0
 56 69  2  0  0  0
 57 58  2  0  0  0
 57127  1  0  0  0
 58128  1  0  0  0
 59 60  1  0  0  0
 59 61  1  0  0  0
 59 62  1  0  0  0
 60129  1  0  0  0
 60130  1  0  0  0
 60131  1  0  0  0
 61132  1  0  0  0
 61133  1  0  0  0
 61134  1  0  0  0
 62135  1  0  0  0
 62136  1  0  0  0
 62137  1  0  0  0
 63 65  1  0  0  0
 63138  1  0  0  0
 63139  1  0  0  0
 63140  1  0  0  0
 64141  1  0  0  0
 65142  1  0  0  0
 68 80  1  0  0  0
 71 72  2  0  0  0
 71 82  1  0  0  0
 71143  1  0  0  0
 72 73  1  0  0  0
 72 81  1  0  0  0
 73 74  2  0  0  0
 73 75  1  0  0  0
 74 78  1  0  0  0
 74 82  1  0  0  0
 75144  1  0  0  0
 75145  1  0  0  0
 75146  1  0  0  0
 76147  1  0  0  0
 76148  1  0  0  0
 76149  1  0  0  0
 76 81  1  0  0  0
 77 81  1  0  0  0
 77150  1  0  0  0
 77151  1  0  0  0
 77152  1  0  0  0
 78 83  1  0  0  0
 78153  1  0  0  0
 78154  1  0  0  0
 79 80  1  0  0  0
 79 82  1  0  0  0
 79155  1  0  0  0
 79156  1  0  0  0
 80157  1  0  0  0
 80158  1  0  0  0
 81159  1  0  0  0
 83160  1  0  0  0
M  ISO  4   1 100  68 101  80 101  83 100
M  END
> <chiral flag>
0

> <version>
0

> <s_m_source_file>
/data/baiqing/PycharmProjects/Reinvent-master-3.2/result/LINK_invent/BTK/process_docking_weight1_custom_sum_contain_oxygen_bond_distance_aromatic_linkinvent_7_9_3/rearranged_h_0105.sdf

> <i_m_source_file_index>
78

> <r_mmod_Potential_Energy-OPLS-2005>
1392.72692871094

> <r_mmod_Stretch_Energy-OPLS-2005>
665.695678710938

> <r_mmod_Bend_Energy-OPLS-2005>
507.007293701172

> <r_mmod_Torsional_Energy-OPLS-2005>
235.574935913086

> <r_mmod_Improper_Torsional_Energy-OPLS-2005>
4.46203327178955

> <r_mmod_Van_der_Waal_Energy-OPLS-2005>
126.207290649414

> <r_mmod_Electrostatic_Energy-OPLS-2005>
-427.532409667969

> <r_mmod_Solvation_Energy-OPLS-2005>
-212.877838134766

> <b_mmod_Minimization_Converged-OPLS-2005>
0

> <r_mmod_RMS_Derivative-OPLS-2005>
4.31009960174561

$$$$
78
                    3D
 Structure written by MMmdl.
181189  0  0  1  0            999 V2000
  -30.7388  -14.5033   20.6212 C   0  0  0  0  0  0
  -30.4308  -12.3588   19.4203 C   0  0  0  0  0  0
  -29.4962  -12.5226   18.2070 C   0  0  0  0  0  0
  -28.0228  -12.3632   18.6251 C   0  0  0  0  0  0
  -27.6605  -13.2162   19.8704 C   0  0  2  0  0  0
  -28.7050  -13.0358   20.9940 C   0  0  0  0  0  0
  -25.2576  -13.8166   20.5674 C   0  0  0  0  0  0
  -24.1838  -13.0440   20.9163 C   0  0  0  0  0  0
  -24.6410  -11.6911   20.8734 C   0  0  0  0  0  0
  -23.9080  -10.4290   21.0400 C   0  0  0  0  0  0
  -24.3633   -9.4202   21.9185 C   0  0  0  0  0  0
  -23.6296   -8.2250   22.0765 C   0  0  0  0  0  0
  -22.4274   -8.0288   21.3545 C   0  0  0  0  0  0
  -21.9913   -9.0262   20.4656 C   0  0  0  0  0  0
  -22.7253  -10.2137   20.3057 C   0  0  0  0  0  0
  -21.6857   -6.0742   22.5282 C   0  0  0  0  0  0
  -21.4017   -6.5650   23.8204 C   0  0  0  0  0  0
  -21.3651   -5.6792   24.9176 C   0  0  0  0  0  0
  -21.6052   -4.3063   24.7228 C   0  0  0  0  0  0
  -21.8815   -3.8151   23.4340 C   0  0  0  0  0  0
  -21.9195   -4.6961   22.3405 C   0  0  0  0  0  0
  -22.7861  -13.5236   21.1832 C   0  0  0  0  0  0
  -22.1665   -4.2152   21.0973 F   0  0  0  0  0  0
  -21.5627   -3.4536   25.7739 F   0  0  0  0  0  0
  -30.0327  -13.3502   20.4351 N   0  0  0  0  0  0
  -26.3036  -12.9363   20.3358 N   0  0  0  0  0  0
  -25.9347  -11.6515   20.5769 N   0  0  0  0  0  0
  -22.0501  -12.8239   22.0384 N   0  0  0  0  0  0
  -25.4234  -15.1892   20.4066 N   0  0  0  0  0  0
  -31.8555  -14.6830   20.1282 O   0  0  0  0  0  0
  -21.6644   -6.8884   21.4241 O   0  0  0  0  0  0
  -22.3558  -14.5540   20.6668 O   0  0  0  0  0  0
  -24.6130  -31.8767   23.2109 C   0  0  0  0  0  0
  -25.9036  -32.4872   23.8426 C   0  0  1  0  0  0
  -27.2095  -27.4181   20.1019 C   0  0  0  0  0  0
  -25.5894  -33.8656   24.2353 N   0  0  0  0  0  0
  -23.4031  -30.4965   21.5563 C   0  0  2  0  0  0
  -24.8440  -28.9679   20.1179 C   0  0  0  0  0  0
  -22.7449  -29.4664   22.5008 C   0  0  0  0  0  0
  -18.0284  -28.1402   22.8500 C   0  0  0  0  0  0
  -24.1501  -36.7314   23.2636 C   0  0  0  0  0  0
  -25.9373  -30.8201   21.3854 C   0  0  0  0  0  0
  -26.0034  -29.4508   20.7401 C   0  0  0  0  0  0
  -27.1874  -28.6761   20.7505 C   0  0  0  0  0  0
  -26.0467  -26.9716   19.4431 C   0  0  0  0  0  0
  -24.8590  -27.7237   19.4702 C   0  0  0  0  0  0
  -23.6108  -29.8396   20.1673 C   0  0  0  0  0  0
  -25.4121  -36.3128   24.0325 C   0  0  1  0  0  0
  -20.5878  -28.3663   23.1335 C   0  0  2  0  0  0
  -20.6817  -26.9413   22.5432 C   0  0  0  0  0  0
  -19.5758  -26.6399   21.5256 C   0  0  0  0  0  0
  -18.1920  -26.7955   22.1629 C   0  0  0  0  0  0
  -19.1542  -28.8849   23.2916 C   0  0  0  0  0  0
  -18.9453  -30.1464   23.8895 C   0  0  0  0  0  0
  -17.6449  -30.6590   24.0571 C   0  0  0  0  0  0
  -25.9053  -34.9484   23.5135 C   0  0  0  0  0  0
  -16.5345  -29.9096   23.6322 C   0  0  0  0  0  0
  -16.7281  -28.6525   23.0320 C   0  0  0  0  0  0
  -26.4456  -31.6639   25.0744 C   0  0  0  0  0  0
  -25.3679  -31.3693   26.1427 C   0  0  0  0  0  0
  -27.0312  -30.3083   24.6139 C   0  0  0  0  0  0
  -27.6075  -32.4333   25.7450 C   0  0  0  0  0  0
  -27.5597  -37.1803   24.8456 C   0  0  0  0  0  0
  -21.4188  -29.2989   22.3726 N   0  0  0  0  0  0
  -26.4324  -37.3796   23.9395 N   0  0  0  0  0  0
  -24.6688  -31.0807   22.1064 N   0  0  0  0  0  0
  -23.4204  -28.8218   23.3071 O   0  0  0  0  0  0
  -28.3435  -26.6482   19.9973 O   0  0  0  0  0  0
  -26.5619  -34.8913   22.4699 O   0  0  0  0  0  0
  -23.5309  -32.1544   23.7484 O   0  0  0  0  0  0
  -29.1780  -21.2396   22.0351 C   0  0  0  0  0  0
  -30.7645  -22.4969   21.1259 C   0  0  0  0  0  0
  -29.9927  -20.3802   21.3336 C   0  0  0  0  0  0
  -31.0218  -21.2059   20.7523 C   0  0  0  0  0  0
  -35.1205  -21.8089   22.2860 C   0  0  0  0  0  0
  -34.9926  -22.6777   19.9272 C   0  0  0  0  0  0
  -28.5918  -23.5270   23.9436 C   0  0  0  0  0  0
  -26.7830  -24.9322   22.2435 C   0  0  0  0  0  0
  -27.7725  -23.7881   20.2611 C   0  0  0  0  0  0
  -29.7472  -18.8639   21.2190 C   0  0  0  0  0  0
  -32.1922  -20.8269   19.8696 C   0  0  0  0  0  0
  -30.9943  -17.9521   21.3322 C   0  0  0  0  0  0
  -33.5250  -20.6956   20.6407 C   0  0  0  0  0  0
  -30.8186  -16.5811   22.0556 C   0  0  0  0  0  0
  -28.8201  -25.9574   21.1631 C   0  0  0  0  0  0
  -34.2014  -22.0219   21.0725 C   0  0  0  0  0  0
  -29.0918  -23.7757   22.5030 C   0  0  2  0  0  0
  -28.1213  -24.6002   21.5391 C   0  0  0  0  0  0
  -29.6482  -22.5396   21.9255 N   0  0  0  0  0  0
  -30.1412  -15.4709   21.3505 N   0  0  0  0  0  0
  -31.4689  -12.4781   19.1069 H   0  0  0  0  0  0
  -30.3602  -11.3534   19.8361 H   0  0  0  0  0  0
  -29.7495  -11.7950   17.4361 H   0  0  0  0  0  0
  -29.6438  -13.5071   17.7601 H   0  0  0  0  0  0
  -27.8497  -11.3070   18.8361 H   0  0  0  0  0  0
  -27.3664  -12.6185   17.7923 H   0  0  0  0  0  0
  -27.6921  -14.2606   19.5576 H   0  0  0  0  0  0
  -28.6974  -12.0093   21.3621 H   0  0  0  0  0  0
  -28.4522  -13.6558   21.8551 H   0  0  0  0  0  0
  -25.2777   -9.5686   22.4750 H   0  0  0  0  0  0
  -24.0008   -7.4646   22.7486 H   0  0  0  0  0  0
  -21.0849   -8.8785   19.8962 H   0  0  0  0  0  0
  -22.3709  -10.9680   19.6165 H   0  0  0  0  0  0
  -21.2005   -7.6150   23.9715 H   0  0  0  0  0  0
  -21.1481   -6.0525   25.9075 H   0  0  0  0  0  0
  -22.0599   -2.7610   23.2843 H   0  0  0  0  0  0
  -22.4127  -11.9926   22.4807 H   0  0  0  0  0  0
  -21.1121  -13.1268   22.2567 H   0  0  0  0  0  0
  -24.6478  -15.8352   20.5050 H   0  0  0  0  0  0
  -26.2724  -15.6357   20.0837 H   0  0  0  0  0  0
  -26.7104  -32.5571   23.1180 H   0  0  0  0  0  0
  -25.0022  -33.9865   25.0493 H   0  0  0  0  0  0
  -22.6840  -31.3091   21.4261 H   0  0  0  0  0  0
  -23.3777  -35.9646   23.3326 H   0  0  0  0  0  0
  -24.3587  -36.8898   22.2049 H   0  0  0  0  0  0
  -23.7253  -37.6524   23.6634 H   0  0  0  0  0  0
  -26.0692  -31.5789   20.6112 H   0  0  0  0  0  0
  -26.8211  -30.8674   22.0100 H   0  0  0  0  0  0
  -28.0808  -29.0419   21.2345 H   0  0  0  0  0  0
  -26.0436  -26.0383   18.8994 H   0  0  0  0  0  0
  -23.9750  -27.3569   18.9653 H   0  0  0  0  0  0
  -23.7058  -30.6170   19.4074 H   0  0  0  0  0  0
  -22.7377  -29.2541   19.8796 H   0  0  0  0  0  0
  -25.1312  -36.2031   25.0826 H   0  0  0  0  0  0
  -20.9978  -28.3255   24.1453 H   0  0  0  0  0  0
  -20.5823  -26.2269   23.3626 H   0  0  0  0  0  0
  -21.6676  -26.7528   22.1139 H   0  0  0  0  0  0
  -19.6942  -25.6320   21.1246 H   0  0  0  0  0  0
  -19.6710  -27.3246   20.6817 H   0  0  0  0  0  0
  -17.4242  -26.6724   21.3978 H   0  0  0  0  0  0
  -18.0248  -26.0121   22.9020 H   0  0  0  0  0  0
  -19.7921  -30.7278   24.2289 H   0  0  0  0  0  0
  -17.4986  -31.6251   24.5177 H   0  0  0  0  0  0
  -15.5327  -30.2965   23.7663 H   0  0  0  0  0  0
  -15.8689  -28.0832   22.7035 H   0  0  0  0  0  0
  -24.5893  -30.7046   25.7626 H   0  0  0  0  0  0
  -24.8775  -32.2830   26.4818 H   0  0  0  0  0  0
  -25.7932  -30.8825   27.0229 H   0  0  0  0  0  0
  -26.2867  -29.6762   24.1256 H   0  0  0  0  0  0
  -27.4189  -29.7361   25.4594 H   0  0  0  0  0  0
  -27.8670  -30.4398   23.9249 H   0  0  0  0  0  0
  -27.2805  -33.3660   26.2054 H   0  0  0  0  0  0
  -28.3839  -32.6851   25.0206 H   0  0  0  0  0  0
  -28.0844  -31.8453   26.5309 H   0  0  0  0  0  0
  -28.2627  -38.0099   24.7549 H   0  0  0  0  0  0
  -28.1110  -36.2632   24.6281 H   0  0  0  0  0  0
  -27.2305  -37.1429   25.8860 H   0  0  0  0  0  0
  -20.9399  -29.8680   21.6884 H   0  0  0  0  0  0
  -26.0229  -38.2893   24.1387 H   0  0  0  0  0  0
  -28.2799  -21.0355   22.6049 H   0  0  0  0  0  0
  -31.2860  -23.4117   20.8823 H   0  0  0  0  0  0
  -35.6166  -22.7359   22.5785 H   0  0  0  0  0  0
  -35.8950  -21.0687   22.0748 H   0  0  0  0  0  0
  -34.5529  -21.4629   23.1513 H   0  0  0  0  0  0
  -35.4859  -23.5920   20.2614 H   0  0  0  0  0  0
  -34.3460  -22.9448   19.0910 H   0  0  0  0  0  0
  -35.7720  -22.0107   19.5518 H   0  0  0  0  0  0
  -28.3632  -24.4677   24.4438 H   0  0  0  0  0  0
  -29.3617  -23.0360   24.5426 H   0  0  0  0  0  0
  -27.7028  -22.8992   23.9810 H   0  0  0  0  0  0
  -26.0748  -25.4279   21.5853 H   0  0  0  0  0  0
  -26.9310  -25.5938   23.0963 H   0  0  0  0  0  0
  -26.2824  -24.0321   22.5978 H   0  0  0  0  0  0
  -27.1514  -24.3523   19.5719 H   0  0  0  0  0  0
  -27.2175  -22.8832   20.5079 H   0  0  0  0  0  0
  -28.6512  -23.4855   19.6948 H   0  0  0  0  0  0
  -29.2335  -18.6634   20.2784 H   0  0  0  0  0  0
  -29.0374  -18.5974   22.0026 H   0  0  0  0  0  0
  -32.2929  -21.5797   19.0874 H   0  0  0  0  0  0
  -31.9604  -19.8969   19.3550 H   0  0  0  0  0  0
  -31.7133  -18.4935   21.9458 H   0  0  0  0  0  0
  -31.4740  -17.8387   20.3607 H   0  0  0  0  0  0
  -34.2284  -20.1377   20.0204 H   0  0  0  0  0  0
  -33.3468  -20.0707   21.5154 H   0  0  0  0  0  0
  -30.2828  -16.7475   22.9903 H   0  0  0  0  0  0
  -31.8077  -16.2338   22.3601 H   0  0  0  0  0  0
  -28.8421  -26.6298   22.0212 H   0  0  0  0  0  0
  -29.8642  -25.7538   20.9264 H   0  0  0  0  0  0
  -33.4355  -22.7272   21.3902 H   0  0  0  0  0  0
  -29.9688  -24.4007   22.6771 H   0  0  0  0  0  0
  -29.1934  -15.2732   21.6399 H   0  0  0  0  0  0
  1 25  1  0  0  0
  1 30  2  0  0  0
  1 90  1  0  0  0
  2  3  1  0  0  0
  2 25  1  0  0  0
  2 91  1  0  0  0
  2 92  1  0  0  0
  3  4  1  0  0  0
  3 93  1  0  0  0
  3 94  1  0  0  0
  4  5  1  0  0  0
  4 95  1  0  0  0
  4 96  1  0  0  0
  5  6  1  0  0  0
  5 26  1  0  0  0
  5 97  1  0  0  0
  6 25  1  0  0  0
  6 98  1  0  0  0
  6 99  1  0  0  0
  7  8  2  0  0  0
  7 26  1  0  0  0
  7 29  1  0  0  0
  8  9  1  0  0  0
  8 22  1  0  0  0
  9 10  1  0  0  0
  9 27  2  0  0  0
 10 11  2  0  0  0
 10 15  1  0  0  0
 11 12  1  0  0  0
 11100  1  0  0  0
 12 13  2  0  0  0
 12101  1  0  0  0
 13 14  1  0  0  0
 13 31  1  0  0  0
 14 15  2  0  0  0
 14102  1  0  0  0
 15103  1  0  0  0
 16 17  2  0  0  0
 16 21  1  0  0  0
 16 31  1  0  0  0
 17 18  1  0  0  0
 17104  1  0  0  0
 18 19  2  0  0  0
 18105  1  0  0  0
 19 20  1  0  0  0
 19 24  1  0  0  0
 20 21  2  0  0  0
 20106  1  0  0  0
 21 23  1  0  0  0
 22 28  1  0  0  0
 22 32  2  0  0  0
 26 27  1  0  0  0
 28107  1  0  0  0
 28108  1  0  0  0
 29109  1  0  0  0
 29110  1  0  0  0
 33 34  1  0  0  0
 33 66  1  0  0  0
 33 70  2  0  0  0
 34 36  1  0  0  0
 34 59  1  0  0  0
 34111  1  0  0  0
 35 44  2  0  0  0
 35 45  1  0  0  0
 35 68  1  0  0  0
 36 56  1  0  0  0
 36112  1  0  0  0
 37 39  1  0  0  0
 37 47  1  0  0  0
 37 66  1  0  0  0
 37113  1  0  0  0
 38 43  2  0  0  0
 38 46  1  0  0  0
 38 47  1  0  0  0
 39 64  1  0  0  0
 39 67  2  0  0  0
 40 52  1  0  0  0
 40 53  2  0  0  0
 40 58  1  0  0  0
 41114  1  0  0  0
 41115  1  0  0  0
 41116  1  0  0  0
 41 48  1  0  0  0
 42 43  1  0  0  0
 42 66  1  0  0  0
 42117  1  0  0  0
 42118  1  0  0  0
 43 44  1  0  0  0
 44119  1  0  0  0
 45 46  2  0  0  0
 45120  1  0  0  0
 46121  1  0  0  0
 47122  1  0  0  0
 47123  1  0  0  0
 48 56  1  0  0  0
 48 65  1  0  0  0
 48124  1  0  0  0
 49 50  1  0  0  0
 49 53  1  0  0  0
 49 64  1  0  0  0
 49125  1  0  0  0
 50 51  1  0  0  0
 50126  1  0  0  0
 50127  1  0  0  0
 51 52  1  0  0  0
 51128  1  0  0  0
 51129  1  0  0  0
 52130  1  0  0  0
 52131  1  0  0  0
 53 54  1  0  0  0
 54 55  2  0  0  0
 54132  1  0  0  0
 55 57  1  0  0  0
 55133  1  0  0  0
 56 69  2  0  0  0
 57 58  2  0  0  0
 57134  1  0  0  0
 58135  1  0  0  0
 59 60  1  0  0  0
 59 61  1  0  0  0
 59 62  1  0  0  0
 60136  1  0  0  0
 60137  1  0  0  0
 60138  1  0  0  0
 61139  1  0  0  0
 61140  1  0  0  0
 61141  1  0  0  0
 62142  1  0  0  0
 62143  1  0  0  0
 62144  1  0  0  0
 63 65  1  0  0  0
 63145  1  0  0  0
 63146  1  0  0  0
 63147  1  0  0  0
 64148  1  0  0  0
 65149  1  0  0  0
 68 85  1  0  0  0
 71 73  2  0  0  0
 71 89  1  0  0  0
 71150  1  0  0  0
 72 74  2  0  0  0
 72 89  1  0  0  0
 72151  1  0  0  0
 73 74  1  0  0  0
 73 80  1  0  0  0
 74 81  1  0  0  0
 75152  1  0  0  0
 75153  1  0  0  0
 75154  1  0  0  0
 75 86  1  0  0  0
 76 86  1  0  0  0
 76155  1  0  0  0
 76156  1  0  0  0
 76157  1  0  0  0
 77158  1  0  0  0
 77159  1  0  0  0
 77160  1  0  0  0
 77 87  1  0  0  0
 78161  1  0  0  0
 78162  1  0  0  0
 78163  1  0  0  0
 78 88  1  0  0  0
 79 88  1  0  0  0
 79164  1  0  0  0
 79165  1  0  0  0
 79166  1  0  0  0
 80 82  1  0  0  0
 80167  1  0  0  0
 80168  1  0  0  0
 81 83  1  0  0  0
 81169  1  0  0  0
 81170  1  0  0  0
 82 84  1  0  0  0
 82171  1  0  0  0
 82172  1  0  0  0
 83 86  1  0  0  0
 83173  1  0  0  0
 83174  1  0  0  0
 84 90  1  0  0  0
 84175  1  0  0  0
 84176  1  0  0  0
 85 88  1  0  0  0
 85177  1  0  0  0
 85178  1  0  0  0
 86179  1  0  0  0
 87 88  1  0  0  0
 87 89  1  0  0  0
 87180  1  0  0  0
 90181  1  0  0  0
M  ISO  4   1 100  68 101  85 101  90 100
M  END
> <chiral flag>
0

> <version>
0

> <s_m_source_file>
/data/baiqing/PycharmProjects/Reinvent-master-3.2/result/LINK_invent/BTK/process_docking_weight1_custom_sum_contain_oxygen_bond_distance_aromatic_linkinvent_7_9_3/rearranged_h_0105.sdf

> <i_m_source_file_index>
79

> <r_mmod_Potential_Energy-OPLS-2005>
29.8052177429199

> <r_mmod_Stretch_Energy-OPLS-2005>
47.7297058105469

> <r_mmod_Bend_Energy-OPLS-2005>
139.413803100586

> <r_mmod_Torsional_Energy-OPLS-2005>
284.584045410156

> <r_mmod_Improper_Torsional_Energy-OPLS-2005>
2.67257738113403

> <r_mmod_Van_der_Waal_Energy-OPLS-2005>
129.182815551758

> <r_mmod_Electrostatic_Energy-OPLS-2005>
-398.813049316406

> <r_mmod_Solvation_Energy-OPLS-2005>
-193.064605712891

> <b_mmod_Minimization_Converged-OPLS-2005>
0

> <r_mmod_RMS_Derivative-OPLS-2005>
4.82716989517212

$$$$
79
                    3D
 Structure written by MMmdl.
161169  0  0  1  0            999 V2000
  -30.6047  -14.7204   20.4677 C   0  0  0  0  0  0
  -30.4437  -12.4465   19.4340 C   0  0  0  0  0  0
  -29.4990  -12.4849   18.2117 C   0  0  0  0  0  0
  -28.0279  -12.3197   18.6429 C   0  0  0  0  0  0
  -27.6442  -13.2192   19.8468 C   0  0  2  0  0  0
  -28.6989  -13.1322   20.9699 C   0  0  0  0  0  0
  -25.2556  -13.8174   20.5710 C   0  0  0  0  0  0
  -24.1834  -13.0446   20.9244 C   0  0  0  0  0  0
  -24.6401  -11.6910   20.8773 C   0  0  0  0  0  0
  -23.9071  -10.4295   21.0432 C   0  0  0  0  0  0
  -24.3631   -9.4211   21.9207 C   0  0  0  0  0  0
  -23.6308   -8.2239   22.0763 C   0  0  0  0  0  0
  -22.4297   -8.0285   21.3539 C   0  0  0  0  0  0
  -21.9932   -9.0269   20.4652 C   0  0  0  0  0  0
  -22.7255  -10.2142   20.3070 C   0  0  0  0  0  0
  -21.6844   -6.0742   22.5286 C   0  0  0  0  0  0
  -21.4002   -6.5650   23.8225 C   0  0  0  0  0  0
  -21.3648   -5.6803   24.9179 C   0  0  0  0  0  0
  -21.6038   -4.3062   24.7229 C   0  0  0  0  0  0
  -21.8820   -3.8156   23.4358 C   0  0  0  0  0  0
  -21.9208   -4.6973   22.3410 C   0  0  0  0  0  0
  -22.7857  -13.5236   21.1894 C   0  0  0  0  0  0
  -22.1673   -4.2163   21.0987 F   0  0  0  0  0  0
  -21.5627   -3.4551   25.7739 F   0  0  0  0  0  0
  -29.9962  -13.4917   20.3779 N   0  0  0  0  0  0
  -26.2969  -12.9346   20.3297 N   0  0  0  0  0  0
  -25.9329  -11.6502   20.5784 N   0  0  0  0  0  0
  -22.0508  -12.8206   22.0422 N   0  0  0  0  0  0
  -25.4268  -15.1878   20.4084 N   0  0  0  0  0  0
  -31.8008  -14.8574   20.2016 O   0  0  0  0  0  0
  -21.6646   -6.8888   21.4241 O   0  0  0  0  0  0
  -22.3559  -14.5563   20.6764 O   0  0  0  0  0  0
  -24.6325  -31.8529   23.1927 C   0  0  0  0  0  0
  -25.9136  -32.4736   23.8282 C   0  0  1  0  0  0
  -27.2394  -27.2694   20.1346 C   0  0  0  0  0  0
  -25.5944  -33.8538   24.2211 N   0  0  0  0  0  0
  -23.4296  -30.4694   21.5367 C   0  0  2  0  0  0
  -24.8804  -28.9092   20.1149 C   0  0  0  0  0  0
  -22.7504  -29.4573   22.4908 C   0  0  0  0  0  0
  -18.0287  -28.1380   22.8530 C   0  0  0  0  0  0
  -24.1479  -36.7248   23.2644 C   0  0  0  0  0  0
  -25.9737  -30.7699   21.3682 C   0  0  0  0  0  0
  -26.0497  -29.3890   20.7187 C   0  0  0  0  0  0
  -27.2323  -28.5811   20.7156 C   0  0  0  0  0  0
  -26.0462  -26.8494   19.5085 C   0  0  0  0  0  0
  -24.8829  -27.6476   19.4954 C   0  0  0  0  0  0
  -23.6485  -29.7926   20.1563 C   0  0  0  0  0  0
  -25.4100  -36.3048   24.0335 C   0  0  1  0  0  0
  -20.5904  -28.3688   23.1293 C   0  0  2  0  0  0
  -20.6773  -26.9397   22.5437 C   0  0  0  0  0  0
  -19.5736  -26.6388   21.5241 C   0  0  0  0  0  0
  -18.1911  -26.7935   22.1642 C   0  0  0  0  0  0
  -19.1551  -28.8839   23.2901 C   0  0  0  0  0  0
  -18.9465  -30.1460   23.8895 C   0  0  0  0  0  0
  -17.6473  -30.6586   24.0568 C   0  0  0  0  0  0
  -25.9064  -34.9451   23.5069 C   0  0  0  0  0  0
  -16.5349  -29.9102   23.6345 C   0  0  0  0  0  0
  -16.7274  -28.6509   23.0381 C   0  0  0  0  0  0
  -26.4514  -31.6583   25.0680 C   0  0  0  0  0  0
  -25.3753  -31.3733   26.1399 C   0  0  0  0  0  0
  -27.0361  -30.3008   24.6150 C   0  0  0  0  0  0
  -27.6031  -32.4349   25.7460 C   0  0  0  0  0  0
  -27.5541  -37.1758   24.8459 C   0  0  0  0  0  0
  -21.4187  -29.3031   22.3667 N   0  0  0  0  0  0
  -26.4233  -37.3783   23.9442 N   0  0  0  0  0  0
  -24.6978  -31.0501   22.0901 N   0  0  0  0  0  0
  -23.4200  -28.8122   23.3013 O   0  0  0  0  0  0
  -28.3586  -26.4070   20.1151 O   0  0  0  0  0  0
  -26.5626  -34.8952   22.4636 O   0  0  0  0  0  0
  -23.5469  -32.1316   23.7261 O   0  0  0  0  0  0
  -29.6427  -23.9963   18.6904 C   0  0  0  0  0  0
  -30.1761  -22.9172   17.9595 C   0  0  0  0  0  0
  -28.8743  -22.3885   20.3293 C   0  0  0  0  0  0
  -28.9269  -23.7720   19.8749 C   0  0  0  0  0  0
  -30.0258  -21.5591   18.3498 C   0  0  0  0  0  0
  -29.4274  -21.2371   19.6182 C   0  0  0  0  0  0
  -30.1278  -18.4290   20.0987 C   0  0  0  0  0  0
  -32.0125  -20.3885   17.2712 C   0  0  0  0  0  0
  -29.9131  -20.7672   15.9072 C   0  0  0  0  0  0
  -29.1844  -19.7420   20.1950 C   0  0  0  0  0  0
  -28.2072  -24.9945   20.6011 C   0  0  0  0  0  0
  -30.0092  -17.2361   21.1395 C   0  0  0  0  0  0
  -30.4758  -20.5160   17.3190 C   0  0  0  0  0  0
  -29.7759  -15.8005   20.6800 N   0  0  0  0  0  0
  -31.0074  -18.3049   19.2520 O   0  0  0  0  0  0
  -31.4748  -12.6008   19.1110 H   0  0  0  0  0  0
  -30.4162  -11.4684   19.9138 H   0  0  0  0  0  0
  -29.7666  -11.6932   17.5105 H   0  0  0  0  0  0
  -29.6194  -13.4243   17.6715 H   0  0  0  0  0  0
  -27.8813  -11.2723   18.9064 H   0  0  0  0  0  0
  -27.3624  -12.5130   17.8011 H   0  0  0  0  0  0
  -27.6425  -14.2415   19.4703 H   0  0  0  0  0  0
  -28.7389  -12.1260   21.3884 H   0  0  0  0  0  0
  -28.4410  -13.7968   21.7965 H   0  0  0  0  0  0
  -25.2781   -9.5681   22.4790 H   0  0  0  0  0  0
  -24.0027   -7.4615   22.7459 H   0  0  0  0  0  0
  -21.0880   -8.8782   19.8939 H   0  0  0  0  0  0
  -22.3737  -10.9686   19.6185 H   0  0  0  0  0  0
  -21.1963   -7.6163   23.9717 H   0  0  0  0  0  0
  -21.1464   -6.0540   25.9084 H   0  0  0  0  0  0
  -22.0604   -2.7629   23.2855 H   0  0  0  0  0  0
  -22.4154  -11.9862   22.4769 H   0  0  0  0  0  0
  -21.1125  -13.1192   22.2640 H   0  0  0  0  0  0
  -24.6531  -15.8370   20.5030 H   0  0  0  0  0  0
  -26.2583  -15.6196   20.0286 H   0  0  0  0  0  0
  -26.7186  -32.5406   23.1020 H   0  0  0  0  0  0
  -25.0183  -33.9699   25.0406 H   0  0  0  0  0  0
  -22.7269  -31.2901   21.3794 H   0  0  0  0  0  0
  -23.3773  -35.9540   23.3287 H   0  0  0  0  0  0
  -24.3579  -36.8901   22.2065 H   0  0  0  0  0  0
  -23.7226  -37.6428   23.6697 H   0  0  0  0  0  0
  -26.1075  -31.5273   20.5944 H   0  0  0  0  0  0
  -26.8544  -30.8278   21.9964 H   0  0  0  0  0  0
  -28.1286  -28.9493   21.1944 H   0  0  0  0  0  0
  -26.0104  -25.8826   19.0267 H   0  0  0  0  0  0
  -23.9910  -27.2764   19.0104 H   0  0  0  0  0  0
  -23.7672  -30.5589   19.3902 H   0  0  0  0  0  0
  -22.7730  -29.2163   19.8534 H   0  0  0  0  0  0
  -25.1305  -36.1837   25.0827 H   0  0  0  0  0  0
  -21.0000  -28.3243   24.1409 H   0  0  0  0  0  0
  -20.5665  -26.2275   23.3645 H   0  0  0  0  0  0
  -21.6629  -26.7427   22.1193 H   0  0  0  0  0  0
  -19.6895  -25.6305   21.1247 H   0  0  0  0  0  0
  -19.6671  -27.3211   20.6776 H   0  0  0  0  0  0
  -17.4196  -26.6736   21.4032 H   0  0  0  0  0  0
  -18.0253  -26.0061   22.9009 H   0  0  0  0  0  0
  -19.7938  -30.7291   24.2212 H   0  0  0  0  0  0
  -17.5031  -31.6253   24.5189 H   0  0  0  0  0  0
  -15.5353  -30.3008   23.7676 H   0  0  0  0  0  0
  -15.8673  -28.0834   22.7101 H   0  0  0  0  0  0
  -24.5956  -30.7049   25.7764 H   0  0  0  0  0  0
  -24.8902  -32.2898   26.4766 H   0  0  0  0  0  0
  -25.8097  -30.8987   27.0206 H   0  0  0  0  0  0
  -26.2914  -29.6749   24.1228 H   0  0  0  0  0  0
  -27.4117  -29.7303   25.4646 H   0  0  0  0  0  0
  -27.8779  -30.4303   23.9350 H   0  0  0  0  0  0
  -27.2588  -33.3704   26.1887 H   0  0  0  0  0  0
  -28.3907  -32.6804   25.0335 H   0  0  0  0  0  0
  -28.0605  -31.8573   26.5498 H   0  0  0  0  0  0
  -28.2526  -38.0085   24.7567 H   0  0  0  0  0  0
  -28.1056  -36.2620   24.6187 H   0  0  0  0  0  0
  -27.2273  -37.1295   25.8864 H   0  0  0  0  0  0
  -20.9351  -29.8784   21.6910 H   0  0  0  0  0  0
  -26.0086  -38.2822   24.1536 H   0  0  0  0  0  0
  -29.7504  -25.0037   18.3109 H   0  0  0  0  0  0
  -30.6794  -23.1518   17.0318 H   0  0  0  0  0  0
  -28.3480  -22.1943   21.2550 H   0  0  0  0  0  0
  -32.4286  -20.1639   18.2523 H   0  0  0  0  0  0
  -32.4899  -21.3088   16.9316 H   0  0  0  0  0  0
  -32.3187  -19.5857   16.5996 H   0  0  0  0  0  0
  -28.8260  -20.8386   15.9267 H   0  0  0  0  0  0
  -30.1658  -19.9397   15.2417 H   0  0  0  0  0  0
  -30.3048  -21.6747   15.4497 H   0  0  0  0  0  0
  -28.2331  -19.4232   19.7671 H   0  0  0  0  0  0
  -28.9792  -19.8610   21.2582 H   0  0  0  0  0  0
  -28.5830  -24.9971   21.6245 H   0  0  0  0  0  0
  -27.1532  -24.7358   20.6947 H   0  0  0  0  0  0
  -29.1995  -17.4929   21.8218 H   0  0  0  0  0  0
  -30.9147  -17.2493   21.7466 H   0  0  0  0  0  0
  -30.0209  -19.5679   17.5763 H   0  0  0  0  0  0
  -28.8060  -15.5341   20.7147 H   0  0  0  0  0  0
  1 25  1  0  0  0
  1 30  2  0  0  0
  1 84  1  0  0  0
  2  3  1  0  0  0
  2 25  1  0  0  0
  2 86  1  0  0  0
  2 87  1  0  0  0
  3  4  1  0  0  0
  3 88  1  0  0  0
  3 89  1  0  0  0
  4  5  1  0  0  0
  4 90  1  0  0  0
  4 91  1  0  0  0
  5  6  1  0  0  0
  5 26  1  0  0  0
  5 92  1  0  0  0
  6 25  1  0  0  0
  6 93  1  0  0  0
  6 94  1  0  0  0
  7  8  2  0  0  0
  7 26  1  0  0  0
  7 29  1  0  0  0
  8  9  1  0  0  0
  8 22  1  0  0  0
  9 10  1  0  0  0
  9 27  2  0  0  0
 10 11  2  0  0  0
 10 15  1  0  0  0
 11 12  1  0  0  0
 11 95  1  0  0  0
 12 13  2  0  0  0
 12 96  1  0  0  0
 13 14  1  0  0  0
 13 31  1  0  0  0
 14 15  2  0  0  0
 14 97  1  0  0  0
 15 98  1  0  0  0
 16 17  2  0  0  0
 16 21  1  0  0  0
 16 31  1  0  0  0
 17 18  1  0  0  0
 17 99  1  0  0  0
 18 19  2  0  0  0
 18100  1  0  0  0
 19 20  1  0  0  0
 19 24  1  0  0  0
 20 21  2  0  0  0
 20101  1  0  0  0
 21 23  1  0  0  0
 22 28  1  0  0  0
 22 32  2  0  0  0
 26 27  1  0  0  0
 28102  1  0  0  0
 28103  1  0  0  0
 29104  1  0  0  0
 29105  1  0  0  0
 33 34  1  0  0  0
 33 66  1  0  0  0
 33 70  2  0  0  0
 34 36  1  0  0  0
 34 59  1  0  0  0
 34106  1  0  0  0
 35 44  2  0  0  0
 35 45  1  0  0  0
 35 68  1  0  0  0
 36 56  1  0  0  0
 36107  1  0  0  0
 37 39  1  0  0  0
 37 47  1  0  0  0
 37 66  1  0  0  0
 37108  1  0  0  0
 38 43  2  0  0  0
 38 46  1  0  0  0
 38 47  1  0  0  0
 39 64  1  0  0  0
 39 67  2  0  0  0
 40 52  1  0  0  0
 40 53  2  0  0  0
 40 58  1  0  0  0
 41109  1  0  0  0
 41110  1  0  0  0
 41111  1  0  0  0
 41 48  1  0  0  0
 42 43  1  0  0  0
 42 66  1  0  0  0
 42112  1  0  0  0
 42113  1  0  0  0
 43 44  1  0  0  0
 44114  1  0  0  0
 45 46  2  0  0  0
 45115  1  0  0  0
 46116  1  0  0  0
 47117  1  0  0  0
 47118  1  0  0  0
 48 56  1  0  0  0
 48 65  1  0  0  0
 48119  1  0  0  0
 49 50  1  0  0  0
 49 53  1  0  0  0
 49 64  1  0  0  0
 49120  1  0  0  0
 50 51  1  0  0  0
 50121  1  0  0  0
 50122  1  0  0  0
 51 52  1  0  0  0
 51123  1  0  0  0
 51124  1  0  0  0
 52125  1  0  0  0
 52126  1  0  0  0
 53 54  1  0  0  0
 54 55  2  0  0  0
 54127  1  0  0  0
 55 57  1  0  0  0
 55128  1  0  0  0
 56 69  2  0  0  0
 57 58  2  0  0  0
 57129  1  0  0  0
 58130  1  0  0  0
 59 60  1  0  0  0
 59 61  1  0  0  0
 59 62  1  0  0  0
 60131  1  0  0  0
 60132  1  0  0  0
 60133  1  0  0  0
 61134  1  0  0  0
 61135  1  0  0  0
 61136  1  0  0  0
 62137  1  0  0  0
 62138  1  0  0  0
 62139  1  0  0  0
 63 65  1  0  0  0
 63140  1  0  0  0
 63141  1  0  0  0
 63142  1  0  0  0
 64143  1  0  0  0
 65144  1  0  0  0
 68 81  1  0  0  0
 71 72  2  0  0  0
 71 74  1  0  0  0
 71145  1  0  0  0
 72 75  1  0  0  0
 72146  1  0  0  0
 73 74  2  0  0  0
 73 76  1  0  0  0
 73147  1  0  0  0
 74 81  1  0  0  0
 75 76  2  0  0  0
 75 83  1  0  0  0
 76 80  1  0  0  0
 77 80  1  0  0  0
 77 82  1  0  0  0
 77 85  2  0  0  0
 78148  1  0  0  0
 78149  1  0  0  0
 78150  1  0  0  0
 78 83  1  0  0  0
 79 83  1  0  0  0
 79151  1  0  0  0
 79152  1  0  0  0
 79153  1  0  0  0
 80154  1  0  0  0
 80155  1  0  0  0
 81156  1  0  0  0
 81157  1  0  0  0
 82 84  1  0  0  0
 82158  1  0  0  0
 82159  1  0  0  0
 83160  1  0  0  0
 84161  1  0  0  0
M  ISO  4   1 100  68 101  81 101  84 100
M  END
> <chiral flag>
0

> <version>
0

> <s_m_source_file>
/data/baiqing/PycharmProjects/Reinvent-master-3.2/result/LINK_invent/BTK/process_docking_weight1_custom_sum_contain_oxygen_bond_distance_aromatic_linkinvent_7_9_3/rearranged_h_0105.sdf

> <i_m_source_file_index>
80

> <r_mmod_Potential_Energy-OPLS-2005>
140.083190917969

> <r_mmod_Stretch_Energy-OPLS-2005>
127.889602661133

> <r_mmod_Bend_Energy-OPLS-2005>
193.015472412109

> <r_mmod_Torsional_Energy-OPLS-2005>
242.177230834961

> <r_mmod_Improper_Torsional_Energy-OPLS-2005>
5.49073600769043

> <r_mmod_Van_der_Waal_Energy-OPLS-2005>
139.895690917969

> <r_mmod_Electrostatic_Energy-OPLS-2005>
-410.738403320312

> <r_mmod_Solvation_Energy-OPLS-2005>
-234.009017944336

> <b_mmod_Minimization_Converged-OPLS-2005>
0

> <r_mmod_RMS_Derivative-OPLS-2005>
3.7032835483551

$$$$
80
                    3D
 Structure written by MMmdl.
171178  0  0  1  0            999 V2000
  -30.6895  -14.4138   20.5538 C   0  0  0  0  0  0
  -30.4145  -12.2498   19.4280 C   0  0  0  0  0  0
  -29.4966  -12.4709   18.2098 C   0  0  0  0  0  0
  -28.0102  -12.3658   18.6116 C   0  0  0  0  0  0
  -27.6631  -13.1957   19.8782 C   0  0  2  0  0  0
  -28.6986  -12.9468   20.9996 C   0  0  0  0  0  0
  -25.2610  -13.8150   20.5632 C   0  0  0  0  0  0
  -24.1844  -13.0449   20.9158 C   0  0  0  0  0  0
  -24.6367  -11.6901   20.8718 C   0  0  0  0  0  0
  -23.9024  -10.4293   21.0392 C   0  0  0  0  0  0
  -24.3600   -9.4217   21.9169 C   0  0  0  0  0  0
  -23.6292   -8.2246   22.0743 C   0  0  0  0  0  0
  -22.4267   -8.0278   21.3547 C   0  0  0  0  0  0
  -21.9890   -9.0241   20.4636 C   0  0  0  0  0  0
  -22.7193  -10.2135   20.3043 C   0  0  0  0  0  0
  -21.6848   -6.0727   22.5274 C   0  0  0  0  0  0
  -21.4006   -6.5635   23.8206 C   0  0  0  0  0  0
  -21.3673   -5.6791   24.9179 C   0  0  0  0  0  0
  -21.6049   -4.3052   24.7215 C   0  0  0  0  0  0
  -21.8823   -3.8135   23.4339 C   0  0  0  0  0  0
  -21.9194   -4.6956   22.3393 C   0  0  0  0  0  0
  -22.7871  -13.5259   21.1848 C   0  0  0  0  0  0
  -22.1652   -4.2143   21.0969 F   0  0  0  0  0  0
  -21.5643   -3.4530   25.7729 F   0  0  0  0  0  0
  -30.0354  -13.2315   20.4530 N   0  0  0  0  0  0
  -26.3022  -12.9282   20.3364 N   0  0  0  0  0  0
  -25.9286  -11.6454   20.5755 N   0  0  0  0  0  0
  -22.0511  -12.8249   22.0400 N   0  0  0  0  0  0
  -25.4403  -15.1857   20.3986 N   0  0  0  0  0  0
  -31.8224  -14.6091   20.1087 O   0  0  0  0  0  0
  -21.6647   -6.8864   21.4236 O   0  0  0  0  0  0
  -22.3551  -14.5564   20.6692 O   0  0  0  0  0  0
  -24.6093  -31.8714   23.2127 C   0  0  0  0  0  0
  -25.9011  -32.4837   23.8409 C   0  0  1  0  0  0
  -27.2420  -27.4821   20.0908 C   0  0  0  0  0  0
  -25.5885  -33.8638   24.2344 N   0  0  0  0  0  0
  -23.3955  -30.4926   21.5527 C   0  0  2  0  0  0
  -24.8431  -28.9559   20.1239 C   0  0  0  0  0  0
  -22.7382  -29.4671   22.5029 C   0  0  0  0  0  0
  -18.0262  -28.1373   22.8494 C   0  0  0  0  0  0
  -24.1489  -36.7329   23.2639 C   0  0  0  0  0  0
  -25.9180  -30.8500   21.3571 C   0  0  0  0  0  0
  -25.9982  -29.4844   20.7124 C   0  0  0  0  0  0
  -27.2027  -28.7554   20.6910 C   0  0  0  0  0  0
  -26.0732  -26.9486   19.5087 C   0  0  0  0  0  0
  -24.8710  -27.6829   19.5232 C   0  0  0  0  0  0
  -23.6023  -29.8178   20.1690 C   0  0  0  0  0  0
  -25.4107  -36.3123   24.0341 C   0  0  1  0  0  0
  -20.5849  -28.3649   23.1342 C   0  0  2  0  0  0
  -20.6757  -26.9393   22.5426 C   0  0  0  0  0  0
  -19.5738  -26.6386   21.5215 C   0  0  0  0  0  0
  -18.1913  -26.7924   22.1624 C   0  0  0  0  0  0
  -19.1511  -28.8824   23.2915 C   0  0  0  0  0  0
  -18.9444  -30.1436   23.8921 C   0  0  0  0  0  0
  -17.6448  -30.6581   24.0567 C   0  0  0  0  0  0
  -25.9021  -34.9480   23.5138 C   0  0  0  0  0  0
  -16.5337  -29.9087   23.6323 C   0  0  0  0  0  0
  -16.7252  -28.6502   23.0341 C   0  0  0  0  0  0
  -26.4458  -31.6599   25.0718 C   0  0  0  0  0  0
  -25.3742  -31.3691   26.1478 C   0  0  0  0  0  0
  -27.0281  -30.3054   24.6048 C   0  0  0  0  0  0
  -27.6046  -32.4311   25.7477 C   0  0  0  0  0  0
  -27.5582  -37.1821   24.8460 C   0  0  0  0  0  0
  -21.4117  -29.3026   22.3759 N   0  0  0  0  0  0
  -26.4294  -37.3805   23.9402 N   0  0  0  0  0  0
  -24.6594  -31.0845   22.1003 N   0  0  0  0  0  0
  -23.4171  -28.8211   23.3059 O   0  0  0  0  0  0
  -28.4380  -26.8224   20.0120 O   0  0  0  0  0  0
  -26.5588  -34.8933   22.4698 O   0  0  0  0  0  0
  -23.5302  -32.1438   23.7551 O   0  0  0  0  0  0
  -31.9305  -22.3646   16.2981 C   0  0  0  0  0  0
  -28.5986  -16.1192   17.2698 C   0  0  0  0  0  0
  -29.6061  -24.3072   18.7658 C   0  0  0  0  0  0
  -28.8233  -19.3409   17.8992 C   0  0  0  0  0  0
  -29.7787  -24.8782   20.1810 C   0  0  0  0  0  0
  -30.9136  -23.7367   18.1830 C   0  0  0  0  0  0
  -29.8672  -18.5014   18.6755 C   0  0  0  0  0  0
  -30.1382  -16.8257   20.5917 C   0  0  0  0  0  0
  -29.4393  -20.4503   17.0240 C   0  0  0  0  0  0
  -28.5085  -25.5751   20.6806 C   0  0  0  0  0  0
  -30.6673  -22.6358   17.1344 C   0  0  2  0  0  0
  -29.3403  -17.1925   19.3107 C   0  0  2  0  0  0
  -29.9260  -15.4283   20.9815 N   0  0  0  0  0  0
  -30.2144  -21.4128   17.8324 N   0  3  0  0  0  0
  -29.4555  -16.0939   18.4024 O   0  0  0  0  0  0
  -31.4611  -12.3351   19.1313 H   0  0  0  0  0  0
  -30.2961  -11.2373   19.8164 H   0  0  0  0  0  0
  -29.7201  -11.7394   17.4313 H   0  0  0  0  0  0
  -29.7050  -13.4474   17.7775 H   0  0  0  0  0  0
  -27.7924  -11.3115   18.7884 H   0  0  0  0  0  0
  -27.3727  -12.6673   17.7801 H   0  0  0  0  0  0
  -27.7161  -14.2463   19.5931 H   0  0  0  0  0  0
  -28.6576  -11.9071   21.3289 H   0  0  0  0  0  0
  -28.4751  -13.5415   21.8869 H   0  0  0  0  0  0
  -25.2733   -9.5707   22.4754 H   0  0  0  0  0  0
  -24.0003   -7.4634   22.7449 H   0  0  0  0  0  0
  -21.0834   -8.8748   19.8925 H   0  0  0  0  0  0
  -22.3643  -10.9685   19.6152 H   0  0  0  0  0  0
  -21.1992   -7.6138   23.9706 H   0  0  0  0  0  0
  -21.1496   -6.0521   25.9089 H   0  0  0  0  0  0
  -22.0595   -2.7596   23.2838 H   0  0  0  0  0  0
  -22.4114  -11.9905   22.4789 H   0  0  0  0  0  0
  -21.1129  -13.1281   22.2605 H   0  0  0  0  0  0
  -24.6794  -15.8497   20.4908 H   0  0  0  0  0  0
  -26.3008  -15.6105   20.0775 H   0  0  0  0  0  0
  -26.7084  -32.5572   23.1185 H   0  0  0  0  0  0
  -25.0042  -33.9807   25.0494 H   0  0  0  0  0  0
  -22.6820  -31.3072   21.4125 H   0  0  0  0  0  0
  -23.3739  -35.9672   23.3314 H   0  0  0  0  0  0
  -24.3583  -36.8929   22.2047 H   0  0  0  0  0  0
  -23.7245  -37.6547   23.6638 H   0  0  0  0  0  0
  -26.0179  -31.6143   20.5849 H   0  0  0  0  0  0
  -26.8100  -30.9110   21.9678 H   0  0  0  0  0  0
  -28.1023  -29.1680   21.1245 H   0  0  0  0  0  0
  -26.0989  -25.9835   19.0234 H   0  0  0  0  0  0
  -23.9825  -27.2710   19.0657 H   0  0  0  0  0  0
  -23.7071  -30.5889   19.4048 H   0  0  0  0  0  0
  -22.7282  -29.2325   19.8779 H   0  0  0  0  0  0
  -25.1280  -36.2002   25.0835 H   0  0  0  0  0  0
  -20.9935  -28.3206   24.1466 H   0  0  0  0  0  0
  -20.5663  -26.2254   23.3604 H   0  0  0  0  0  0
  -21.6629  -26.7448   22.1217 H   0  0  0  0  0  0
  -19.6902  -25.6301   21.1231 H   0  0  0  0  0  0
  -19.6686  -27.3211   20.6757 H   0  0  0  0  0  0
  -17.4191  -26.6675   21.4019 H   0  0  0  0  0  0
  -18.0313  -26.0057   22.9011 H   0  0  0  0  0  0
  -19.7916  -30.7245   24.2306 H   0  0  0  0  0  0
  -17.5000  -31.6266   24.5161 H   0  0  0  0  0  0
  -15.5337  -30.2996   23.7632 H   0  0  0  0  0  0
  -15.8654  -28.0834   22.7039 H   0  0  0  0  0  0
  -24.5908  -30.7046   25.7818 H   0  0  0  0  0  0
  -24.8939  -32.2841   26.4959 H   0  0  0  0  0  0
  -25.8108  -30.8839   27.0214 H   0  0  0  0  0  0
  -26.2807  -29.6832   24.1112 H   0  0  0  0  0  0
  -27.4085  -29.7275   25.4478 H   0  0  0  0  0  0
  -27.8625  -30.4399   23.9161 H   0  0  0  0  0  0
  -27.2673  -33.3599   26.2096 H   0  0  0  0  0  0
  -28.3835  -32.6891   25.0287 H   0  0  0  0  0  0
  -28.0734  -31.8404   26.5358 H   0  0  0  0  0  0
  -28.2607  -38.0115   24.7506 H   0  0  0  0  0  0
  -28.1075  -36.2644   24.6285 H   0  0  0  0  0  0
  -27.2302  -37.1470   25.8867 H   0  0  0  0  0  0
  -20.9268  -29.8749   21.6989 H   0  0  0  0  0  0
  -26.0191  -38.2891   24.1399 H   0  0  0  0  0  0
  -32.2621  -23.2731   15.7934 H   0  0  0  0  0  0
  -31.7509  -21.6180   15.5246 H   0  0  0  0  0  0
  -32.7561  -22.0138   16.9185 H   0  0  0  0  0  0
  -28.5529  -15.1309   16.8134 H   0  0  0  0  0  0
  -28.9838  -16.7955   16.5073 H   0  0  0  0  0  0
  -27.5796  -16.4035   17.5362 H   0  0  0  0  0  0
  -29.2230  -25.0767   18.0919 H   0  0  0  0  0  0
  -28.8312  -23.5408   18.8043 H   0  0  0  0  0  0
  -28.1087  -19.7754   18.6004 H   0  0  0  0  0  0
  -28.2225  -18.7150   17.2432 H   0  0  0  0  0  0
  -30.6153  -25.5775   20.2098 H   0  0  0  0  0  0
  -30.0330  -24.0681   20.8651 H   0  0  0  0  0  0
  -31.5476  -23.3422   18.9788 H   0  0  0  0  0  0
  -31.4798  -24.5567   17.7380 H   0  0  0  0  0  0
  -30.2695  -19.1274   19.4728 H   0  0  0  0  0  0
  -30.7165  -18.2627   18.0340 H   0  0  0  0  0  0
  -29.8258  -17.4743   21.4125 H   0  0  0  0  0  0
  -31.2036  -17.0234   20.4471 H   0  0  0  0  0  0
  -28.6352  -20.9765   16.5064 H   0  0  0  0  0  0
  -30.0729  -20.0159   16.2501 H   0  0  0  0  0  0
  -28.5748  -25.7540   21.7545 H   0  0  0  0  0  0
  -27.6316  -24.9488   20.5074 H   0  0  0  0  0  0
  -29.8805  -22.9827   16.4598 H   0  0  0  0  0  0
  -28.2936  -17.3136   19.5979 H   0  0  0  0  0  0
  -29.0154  -15.1804   21.3365 H   0  0  0  0  0  0
  -31.0141  -20.9507   18.2363 H   0  0  0  0  0  0
  -29.6206  -21.7104   18.5896 H   0  0  0  0  0  0
  1 25  1  0  0  0
  1 30  2  0  0  0
  1 83  1  0  0  0
  2  3  1  0  0  0
  2 25  1  0  0  0
  2 86  1  0  0  0
  2 87  1  0  0  0
  3  4  1  0  0  0
  3 88  1  0  0  0
  3 89  1  0  0  0
  4  5  1  0  0  0
  4 90  1  0  0  0
  4 91  1  0  0  0
  5  6  1  0  0  0
  5 26  1  0  0  0
  5 92  1  0  0  0
  6 25  1  0  0  0
  6 93  1  0  0  0
  6 94  1  0  0  0
  7  8  2  0  0  0
  7 26  1  0  0  0
  7 29  1  0  0  0
  8  9  1  0  0  0
  8 22  1  0  0  0
  9 10  1  0  0  0
  9 27  2  0  0  0
 10 11  2  0  0  0
 10 15  1  0  0  0
 11 12  1  0  0  0
 11 95  1  0  0  0
 12 13  2  0  0  0
 12 96  1  0  0  0
 13 14  1  0  0  0
 13 31  1  0  0  0
 14 15  2  0  0  0
 14 97  1  0  0  0
 15 98  1  0  0  0
 16 17  2  0  0  0
 16 21  1  0  0  0
 16 31  1  0  0  0
 17 18  1  0  0  0
 17 99  1  0  0  0
 18 19  2  0  0  0
 18100  1  0  0  0
 19 20  1  0  0  0
 19 24  1  0  0  0
 20 21  2  0  0  0
 20101  1  0  0  0
 21 23  1  0  0  0
 22 28  1  0  0  0
 22 32  2  0  0  0
 26 27  1  0  0  0
 28102  1  0  0  0
 28103  1  0  0  0
 29104  1  0  0  0
 29105  1  0  0  0
 33 34  1  0  0  0
 33 66  1  0  0  0
 33 70  2  0  0  0
 34 36  1  0  0  0
 34 59  1  0  0  0
 34106  1  0  0  0
 35 44  2  0  0  0
 35 45  1  0  0  0
 35 68  1  0  0  0
 36 56  1  0  0  0
 36107  1  0  0  0
 37 39  1  0  0  0
 37 47  1  0  0  0
 37 66  1  0  0  0
 37108  1  0  0  0
 38 43  2  0  0  0
 38 46  1  0  0  0
 38 47  1  0  0  0
 39 64  1  0  0  0
 39 67  2  0  0  0
 40 52  1  0  0  0
 40 53  2  0  0  0
 40 58  1  0  0  0
 41109  1  0  0  0
 41110  1  0  0  0
 41111  1  0  0  0
 41 48  1  0  0  0
 42 43  1  0  0  0
 42 66  1  0  0  0
 42112  1  0  0  0
 42113  1  0  0  0
 43 44  1  0  0  0
 44114  1  0  0  0
 45 46  2  0  0  0
 45115  1  0  0  0
 46116  1  0  0  0
 47117  1  0  0  0
 47118  1  0  0  0
 48 56  1  0  0  0
 48 65  1  0  0  0
 48119  1  0  0  0
 49 50  1  0  0  0
 49 53  1  0  0  0
 49 64  1  0  0  0
 49120  1  0  0  0
 50 51  1  0  0  0
 50121  1  0  0  0
 50122  1  0  0  0
 51 52  1  0  0  0
 51123  1  0  0  0
 51124  1  0  0  0
 52125  1  0  0  0
 52126  1  0  0  0
 53 54  1  0  0  0
 54 55  2  0  0  0
 54127  1  0  0  0
 55 57  1  0  0  0
 55128  1  0  0  0
 56 69  2  0  0  0
 57 58  2  0  0  0
 57129  1  0  0  0
 58130  1  0  0  0
 59 60  1  0  0  0
 59 61  1  0  0  0
 59 62  1  0  0  0
 60131  1  0  0  0
 60132  1  0  0  0
 60133  1  0  0  0
 61134  1  0  0  0
 61135  1  0  0  0
 61136  1  0  0  0
 62137  1  0  0  0
 62138  1  0  0  0
 62139  1  0  0  0
 63 65  1  0  0  0
 63140  1  0  0  0
 63141  1  0  0  0
 63142  1  0  0  0
 64143  1  0  0  0
 65144  1  0  0  0
 68 80  1  0  0  0
 71145  1  0  0  0
 71146  1  0  0  0
 71147  1  0  0  0
 71 81  1  0  0  0
 72 85  1  0  0  0
 72148  1  0  0  0
 72149  1  0  0  0
 72150  1  0  0  0
 73 75  1  0  0  0
 73 76  1  0  0  0
 73151  1  0  0  0
 73152  1  0  0  0
 74 77  1  0  0  0
 74 79  1  0  0  0
 74153  1  0  0  0
 74154  1  0  0  0
 75 80  1  0  0  0
 75155  1  0  0  0
 75156  1  0  0  0
 76 81  1  0  0  0
 76157  1  0  0  0
 76158  1  0  0  0
 77159  1  0  0  0
 77160  1  0  0  0
 77 82  1  0  0  0
 78 82  1  0  0  0
 78 83  1  0  0  0
 78161  1  0  0  0
 78162  1  0  0  0
 79 84  1  0  0  0
 79163  1  0  0  0
 79164  1  0  0  0
 80165  1  0  0  0
 80166  1  0  0  0
 81 84  1  0  0  0
 81167  1  0  0  0
 82 85  1  0  0  0
 82168  1  0  0  0
 83169  1  0  0  0
 84170  1  0  0  0
 84171  1  0  0  0
M  CHG  1  84   1
M  ISO  4   1 100  68 101  80 101  83 100
M  END
> <chiral flag>
0

> <version>
0

> <s_m_source_file>
/data/baiqing/PycharmProjects/Reinvent-master-3.2/result/LINK_invent/BTK/process_docking_weight1_custom_sum_contain_oxygen_bond_distance_aromatic_linkinvent_7_9_3/rearranged_h_0105.sdf

> <i_m_source_file_index>
81

> <r_mmod_Potential_Energy-OPLS-2005>
-248.486862182617

> <r_mmod_Stretch_Energy-OPLS-2005>
31.4443435668945

> <r_mmod_Bend_Energy-OPLS-2005>
93.6121597290039

> <r_mmod_Torsional_Energy-OPLS-2005>
267.567993164062

> <r_mmod_Improper_Torsional_Energy-OPLS-2005>
6.04462718963623

> <r_mmod_Van_der_Waal_Energy-OPLS-2005>
130.90185546875

> <r_mmod_Electrostatic_Energy-OPLS-2005>
-321.856567382812

> <r_mmod_Solvation_Energy-OPLS-2005>
-466.424560546875

> <b_mmod_Minimization_Converged-OPLS-2005>
0

> <r_mmod_RMS_Derivative-OPLS-2005>
2.21047353744507

$$$$
81
                    3D
 Structure written by MMmdl.
165173  0  0  1  0            999 V2000
  -30.4247  -15.2940   20.3706 C   0  0  0  0  0  0
  -30.4366  -12.8331   19.5172 C   0  0  0  0  0  0
  -29.5324  -12.5835   18.2836 C   0  0  0  0  0  0
  -28.0837  -12.3007   18.7160 C   0  0  0  0  0  0
  -27.6087  -13.2770   19.8203 C   0  0  2  0  0  0
  -28.6429  -13.4662   20.9498 C   0  0  0  0  0  0
  -25.2384  -13.8245   20.5755 C   0  0  0  0  0  0
  -24.1738  -13.0434   20.9263 C   0  0  0  0  0  0
  -24.6397  -11.6932   20.8768 C   0  0  0  0  0  0
  -23.9093  -10.4290   21.0409 C   0  0  0  0  0  0
  -24.3637   -9.4204   21.9189 C   0  0  0  0  0  0
  -23.6304   -8.2242   22.0757 C   0  0  0  0  0  0
  -22.4286   -8.0284   21.3546 C   0  0  0  0  0  0
  -21.9927   -9.0257   20.4649 C   0  0  0  0  0  0
  -22.7260  -10.2133   20.3058 C   0  0  0  0  0  0
  -21.6859   -6.0740   22.5281 C   0  0  0  0  0  0
  -21.4015   -6.5647   23.8212 C   0  0  0  0  0  0
  -21.3655   -5.6800   24.9177 C   0  0  0  0  0  0
  -21.6039   -4.3061   24.7229 C   0  0  0  0  0  0
  -21.8816   -3.8152   23.4351 C   0  0  0  0  0  0
  -21.9192   -4.6967   22.3407 C   0  0  0  0  0  0
  -22.7755  -13.5188   21.1906 C   0  0  0  0  0  0
  -22.1663   -4.2151   21.0983 F   0  0  0  0  0  0
  -21.5623   -3.4546   25.7741 F   0  0  0  0  0  0
  -29.8659  -13.9828   20.3144 N   0  0  0  0  0  0
  -26.2806  -12.9523   20.3221 N   0  0  0  0  0  0
  -25.9336  -11.6627   20.5724 N   0  0  0  0  0  0
  -22.0414  -12.8168   22.0456 N   0  0  0  0  0  0
  -25.4010  -15.1982   20.4190 N   0  0  0  0  0  0
  -31.6520  -15.2890   20.1927 O   0  0  0  0  0  0
  -21.6647   -6.8883   21.4241 O   0  0  0  0  0  0
  -22.3436  -14.5488   20.6742 O   0  0  0  0  0  0
  -24.6638  -31.8209   23.1671 C   0  0  0  0  0  0
  -25.9316  -32.4573   23.8140 C   0  0  1  0  0  0
  -27.2193  -26.9115   20.1921 C   0  0  0  0  0  0
  -25.5978  -33.8386   24.2048 N   0  0  0  0  0  0
  -23.4789  -30.4313   21.5175 C   0  0  2  0  0  0
  -24.9329  -28.8133   20.1112 C   0  0  0  0  0  0
  -22.7671  -29.4419   22.4772 C   0  0  0  0  0  0
  -18.0317  -28.1399   22.8454 C   0  0  0  0  0  0
  -24.1497  -36.7201   23.2652 C   0  0  0  0  0  0
  -26.0489  -30.6234   21.3985 C   0  0  0  0  0  0
  -26.1164  -29.2110   20.7448 C   0  0  0  0  0  0
  -27.2542  -28.2826   20.7570 C   0  0  0  0  0  0
  -26.0062  -26.6666   19.5103 C   0  0  0  0  0  0
  -24.9034  -27.5619   19.4728 C   0  0  0  0  0  0
  -23.7196  -29.7439   20.1440 C   0  0  0  0  0  0
  -25.4133  -36.2958   24.0300 C   0  0  1  0  0  0
  -20.5940  -28.3742   23.1185 C   0  0  2  0  0  0
  -20.6795  -26.9422   22.5402 C   0  0  0  0  0  0
  -19.5777  -26.6367   21.5211 C   0  0  0  0  0  0
  -18.1952  -26.7930   22.1609 C   0  0  0  0  0  0
  -19.1579  -28.8896   23.2804 C   0  0  0  0  0  0
  -18.9497  -30.1483   23.8842 C   0  0  0  0  0  0
  -17.6492  -30.6592   24.0552 C   0  0  0  0  0  0
  -25.9104  -34.9344   23.4995 C   0  0  0  0  0  0
  -16.5379  -29.9078   23.6345 C   0  0  0  0  0  0
  -16.7303  -28.6501   23.0354 C   0  0  0  0  0  0
  -26.4559  -31.6525   25.0681 C   0  0  0  0  0  0
  -25.3677  -31.3776   26.1332 C   0  0  0  0  0  0
  -27.0466  -30.2893   24.6422 C   0  0  0  0  0  0
  -27.6042  -32.4346   25.7481 C   0  0  0  0  0  0
  -27.5562  -37.1760   24.8463 C   0  0  0  0  0  0
  -21.4341  -29.3031   22.3535 N   0  0  0  0  0  0
  -26.4271  -37.3698   23.9407 N   0  0  0  0  0  0
  -24.7523  -30.9858   22.0813 N   0  0  0  0  0  0
  -23.4218  -28.7989   23.3017 O   0  0  0  0  0  0
  -28.2249  -25.8063   20.2772 O   0  0  0  0  0  0
  -26.5719  -34.8886   22.4597 O   0  0  0  0  0  0
  -23.5713  -32.1187   23.6762 O   0  0  0  0  0  0
  -31.1758  -23.2099   21.8033 C   0  0  0  0  0  0
  -30.3295  -23.5924   20.7622 C   0  0  0  0  0  0
  -30.7967  -22.1711   22.6674 C   0  0  0  0  0  0
  -29.1424  -22.8911   20.4874 C   0  0  0  0  0  0
  -29.2027  -21.3709   20.9503 C   0  0  0  0  0  0
  -29.7771  -21.2545   22.2640 C   0  0  0  0  0  0
  -31.2410  -23.3667   24.8764 C   0  0  0  0  0  0
  -28.3407  -20.8608   24.3259 C   0  0  0  0  0  0
  -30.2007  -19.1921   23.8612 C   0  0  0  0  0  0
  -31.5384  -22.1389   24.0031 C   0  0  0  0  0  0
  -28.9817  -19.7586   20.2827 C   0  0  0  0  0  0
  -27.9965  -24.1625   20.1592 C   0  0  0  0  0  0
  -29.9572  -18.2270   20.5092 C   0  0  0  0  0  0
  -29.2017  -20.1948   23.2402 C   0  0  0  0  0  0
  -29.6568  -16.5727   20.4296 N   0  0  0  0  0  0
  -31.4512  -13.0478   19.1791 H   0  0  0  0  0  0
  -30.5166  -11.9339   20.1303 H   0  0  0  0  0  0
  -29.9170  -11.7548   17.6880 H   0  0  0  0  0  0
  -29.5531  -13.4622   17.6379 H   0  0  0  0  0  0
  -28.0454  -11.2777   19.0921 H   0  0  0  0  0  0
  -27.4126  -12.3356   17.8566 H   0  0  0  0  0  0
  -27.5180  -14.2400   19.3167 H   0  0  0  0  0  0
  -28.8224  -12.5377   21.4935 H   0  0  0  0  0  0
  -28.2785  -14.1903   21.6801 H   0  0  0  0  0  0
  -25.2777   -9.5682   22.4774 H   0  0  0  0  0  0
  -24.0008   -7.4636   22.7484 H   0  0  0  0  0  0
  -21.0855   -8.8779   19.8963 H   0  0  0  0  0  0
  -22.3713  -10.9675   19.6175 H   0  0  0  0  0  0
  -21.2010   -7.6156   23.9717 H   0  0  0  0  0  0
  -21.1476   -6.0533   25.9077 H   0  0  0  0  0  0
  -22.0594   -2.7614   23.2857 H   0  0  0  0  0  0
  -22.4045  -11.9831   22.4836 H   0  0  0  0  0  0
  -21.1027  -13.1178   22.2666 H   0  0  0  0  0  0
  -24.6283  -15.8461   20.5285 H   0  0  0  0  0  0
  -26.2394  -15.6395   20.0654 H   0  0  0  0  0  0
  -26.7380  -32.5103   23.0849 H   0  0  0  0  0  0
  -25.0086  -33.9460   25.0171 H   0  0  0  0  0  0
  -22.7927  -31.2634   21.3451 H   0  0  0  0  0  0
  -23.3771  -35.9522   23.3289 H   0  0  0  0  0  0
  -24.3571  -36.8867   22.2068 H   0  0  0  0  0  0
  -23.7244  -37.6379   23.6722 H   0  0  0  0  0  0
  -26.2291  -31.3621   20.6160 H   0  0  0  0  0  0
  -26.9096  -30.6808   22.0526 H   0  0  0  0  0  0
  -28.1507  -28.5866   21.2785 H   0  0  0  0  0  0
  -25.8779  -25.7096   19.0267 H   0  0  0  0  0  0
  -24.0040  -27.2495   18.9602 H   0  0  0  0  0  0
  -23.8760  -30.5128   19.3863 H   0  0  0  0  0  0
  -22.8287  -29.1998   19.8261 H   0  0  0  0  0  0
  -25.1331  -36.1749   25.0795 H   0  0  0  0  0  0
  -21.0027  -28.3353   24.1310 H   0  0  0  0  0  0
  -20.5667  -26.2361   23.3639 H   0  0  0  0  0  0
  -21.6658  -26.7392   22.1215 H   0  0  0  0  0  0
  -19.6939  -25.6269   21.1259 H   0  0  0  0  0  0
  -19.6723  -27.3166   20.6735 H   0  0  0  0  0  0
  -17.4223  -26.6682   21.4008 H   0  0  0  0  0  0
  -18.0341  -26.0076   22.9009 H   0  0  0  0  0  0
  -19.7979  -30.7304   24.2187 H   0  0  0  0  0  0
  -17.5051  -31.6264   24.5166 H   0  0  0  0  0  0
  -15.5379  -30.2968   23.7702 H   0  0  0  0  0  0
  -15.8697  -28.0811   22.7098 H   0  0  0  0  0  0
  -24.5889  -30.7089   25.7641 H   0  0  0  0  0  0
  -24.8835  -32.2980   26.4611 H   0  0  0  0  0  0
  -25.7910  -30.9042   27.0201 H   0  0  0  0  0  0
  -26.3144  -29.6554   24.1412 H   0  0  0  0  0  0
  -27.3987  -29.7265   25.5077 H   0  0  0  0  0  0
  -27.9080  -30.4075   23.9844 H   0  0  0  0  0  0
  -27.2607  -33.3706   26.1893 H   0  0  0  0  0  0
  -28.3931  -32.6806   25.0362 H   0  0  0  0  0  0
  -28.0615  -31.8576   26.5524 H   0  0  0  0  0  0
  -28.2561  -38.0075   24.7504 H   0  0  0  0  0  0
  -28.1073  -36.2596   24.6296 H   0  0  0  0  0  0
  -27.2278  -37.1406   25.8867 H   0  0  0  0  0  0
  -20.9597  -29.8733   21.6673 H   0  0  0  0  0  0
  -26.0117  -38.2753   24.1422 H   0  0  0  0  0  0
  -31.9960  -23.8631   22.0691 H   0  0  0  0  0  0
  -30.4844  -24.5785   20.3465 H   0  0  0  0  0  0
  -31.7607  -23.2905   25.8316 H   0  0  0  0  0  0
  -30.1756  -23.4573   25.0871 H   0  0  0  0  0  0
  -31.5646  -24.2917   24.4004 H   0  0  0  0  0  0
  -27.5712  -21.4942   23.8824 H   0  0  0  0  0  0
  -28.9327  -21.4807   24.9967 H   0  0  0  0  0  0
  -27.8340  -20.1134   24.9373 H   0  0  0  0  0  0
  -31.1540  -19.1690   23.3334 H   0  0  0  0  0  0
  -29.7859  -18.1832   23.8499 H   0  0  0  0  0  0
  -30.4081  -19.4031   24.9100 H   0  0  0  0  0  0
  -32.6087  -22.0941   23.7975 H   0  0  0  0  0  0
  -31.3316  -21.2614   24.5951 H   0  0  0  0  0  0
  -28.9370  -19.9179   19.2053 H   0  0  0  0  0  0
  -27.9523  -19.5022   20.5347 H   0  0  0  0  0  0
  -27.1347  -23.9414   20.7896 H   0  0  0  0  0  0
  -27.6486  -23.9823   19.1419 H   0  0  0  0  0  0
  -30.3851  -18.3041   21.4977 H   0  0  0  0  0  0
  -30.8293  -18.3634   19.8689 H   0  0  0  0  0  0
  -28.4859  -19.5812   22.6991 H   0  0  0  0  0  0
  -28.6678  -16.3774   20.4867 H   0  0  0  0  0  0
  1 25  1  0  0  0
  1 30  2  0  0  0
  1 85  1  0  0  0
  2  3  1  0  0  0
  2 25  1  0  0  0
  2 86  1  0  0  0
  2 87  1  0  0  0
  3  4  1  0  0  0
  3 88  1  0  0  0
  3 89  1  0  0  0
  4  5  1  0  0  0
  4 90  1  0  0  0
  4 91  1  0  0  0
  5  6  1  0  0  0
  5 26  1  0  0  0
  5 92  1  0  0  0
  6 25  1  0  0  0
  6 93  1  0  0  0
  6 94  1  0  0  0
  7  8  2  0  0  0
  7 26  1  0  0  0
  7 29  1  0  0  0
  8  9  1  0  0  0
  8 22  1  0  0  0
  9 10  1  0  0  0
  9 27  2  0  0  0
 10 11  2  0  0  0
 10 15  1  0  0  0
 11 12  1  0  0  0
 11 95  1  0  0  0
 12 13  2  0  0  0
 12 96  1  0  0  0
 13 14  1  0  0  0
 13 31  1  0  0  0
 14 15  2  0  0  0
 14 97  1  0  0  0
 15 98  1  0  0  0
 16 17  2  0  0  0
 16 21  1  0  0  0
 16 31  1  0  0  0
 17 18  1  0  0  0
 17 99  1  0  0  0
 18 19  2  0  0  0
 18100  1  0  0  0
 19 20  1  0  0  0
 19 24  1  0  0  0
 20 21  2  0  0  0
 20101  1  0  0  0
 21 23  1  0  0  0
 22 28  1  0  0  0
 22 32  2  0  0  0
 26 27  1  0  0  0
 28102  1  0  0  0
 28103  1  0  0  0
 29104  1  0  0  0
 29105  1  0  0  0
 33 34  1  0  0  0
 33 66  1  0  0  0
 33 70  2  0  0  0
 34 36  1  0  0  0
 34 59  1  0  0  0
 34106  1  0  0  0
 35 44  2  0  0  0
 35 45  1  0  0  0
 35 68  1  0  0  0
 36 56  1  0  0  0
 36107  1  0  0  0
 37 39  1  0  0  0
 37 47  1  0  0  0
 37 66  1  0  0  0
 37108  1  0  0  0
 38 43  2  0  0  0
 38 46  1  0  0  0
 38 47  1  0  0  0
 39 64  1  0  0  0
 39 67  2  0  0  0
 40 52  1  0  0  0
 40 53  2  0  0  0
 40 58  1  0  0  0
 41109  1  0  0  0
 41110  1  0  0  0
 41111  1  0  0  0
 41 48  1  0  0  0
 42 43  1  0  0  0
 42 66  1  0  0  0
 42112  1  0  0  0
 42113  1  0  0  0
 43 44  1  0  0  0
 44114  1  0  0  0
 45 46  2  0  0  0
 45115  1  0  0  0
 46116  1  0  0  0
 47117  1  0  0  0
 47118  1  0  0  0
 48 56  1  0  0  0
 48 65  1  0  0  0
 48119  1  0  0  0
 49 50  1  0  0  0
 49 53  1  0  0  0
 49 64  1  0  0  0
 49120  1  0  0  0
 50 51  1  0  0  0
 50121  1  0  0  0
 50122  1  0  0  0
 51 52  1  0  0  0
 51123  1  0  0  0
 51124  1  0  0  0
 52125  1  0  0  0
 52126  1  0  0  0
 53 54  1  0  0  0
 54 55  2  0  0  0
 54127  1  0  0  0
 55 57  1  0  0  0
 55128  1  0  0  0
 56 69  2  0  0  0
 57 58  2  0  0  0
 57129  1  0  0  0
 58130  1  0  0  0
 59 60  1  0  0  0
 59 61  1  0  0  0
 59 62  1  0  0  0
 60131  1  0  0  0
 60132  1  0  0  0
 60133  1  0  0  0
 61134  1  0  0  0
 61135  1  0  0  0
 61136  1  0  0  0
 62137  1  0  0  0
 62138  1  0  0  0
 62139  1  0  0  0
 63 65  1  0  0  0
 63140  1  0  0  0
 63141  1  0  0  0
 63142  1  0  0  0
 64143  1  0  0  0
 65144  1  0  0  0
 68 82  1  0  0  0
 71 72  2  0  0  0
 71 73  1  0  0  0
 71145  1  0  0  0
 72 74  1  0  0  0
 72146  1  0  0  0
 73 76  2  0  0  0
 73 80  1  0  0  0
 74 75  2  0  0  0
 74 82  1  0  0  0
 75 76  1  0  0  0
 75 81  1  0  0  0
 76 84  1  0  0  0
 77 80  1  0  0  0
 77147  1  0  0  0
 77148  1  0  0  0
 77149  1  0  0  0
 78150  1  0  0  0
 78151  1  0  0  0
 78152  1  0  0  0
 78 84  1  0  0  0
 79 84  1  0  0  0
 79153  1  0  0  0
 79154  1  0  0  0
 79155  1  0  0  0
 80156  1  0  0  0
 80157  1  0  0  0
 81 83  1  0  0  0
 81158  1  0  0  0
 81159  1  0  0  0
 82160  1  0  0  0
 82161  1  0  0  0
 83 85  1  0  0  0
 83162  1  0  0  0
 83163  1  0  0  0
 84164  1  0  0  0
 85165  1  0  0  0
M  ISO  4   1 100  68 101  82 101  85 100
M  END
> <chiral flag>
0

> <version>
0

> <s_m_source_file>
/data/baiqing/PycharmProjects/Reinvent-master-3.2/result/LINK_invent/BTK/process_docking_weight1_custom_sum_contain_oxygen_bond_distance_aromatic_linkinvent_7_9_3/rearranged_h_0105.sdf

> <i_m_source_file_index>
82

> <r_mmod_Potential_Energy-OPLS-2005>
1593.64965820312

> <r_mmod_Stretch_Energy-OPLS-2005>
664.996887207031

> <r_mmod_Bend_Energy-OPLS-2005>
475.766235351562

> <r_mmod_Torsional_Energy-OPLS-2005>
414.336456298828

> <r_mmod_Improper_Torsional_Energy-OPLS-2005>
11.3113794326782

> <r_mmod_Van_der_Waal_Energy-OPLS-2005>
138.892044067383

> <r_mmod_Electrostatic_Energy-OPLS-2005>
-389.588470458984

> <r_mmod_Solvation_Energy-OPLS-2005>
-209.102798461914

> <b_mmod_Minimization_Converged-OPLS-2005>
0

> <r_mmod_RMS_Derivative-OPLS-2005>
1.09674203395844

$$$$
82
                    3D
 Structure written by MMmdl.
161169  0  0  1  0            999 V2000
  -30.5952  -14.8633   20.4180 C   0  0  0  0  0  0
  -30.4291  -12.5313   19.4910 C   0  0  0  0  0  0
  -29.5113  -12.5124   18.2491 C   0  0  0  0  0  0
  -28.0441  -12.3132   18.6702 C   0  0  0  0  0  0
  -27.6308  -13.2444   19.8402 C   0  0  2  0  0  0
  -28.6757  -13.2554   20.9770 C   0  0  0  0  0  0
  -25.2472  -13.8220   20.5719 C   0  0  0  0  0  0
  -24.1778  -13.0448   20.9229 C   0  0  0  0  0  0
  -24.6382  -11.6928   20.8757 C   0  0  0  0  0  0
  -23.9064  -10.4296   21.0401 C   0  0  0  0  0  0
  -24.3613   -9.4211   21.9176 C   0  0  0  0  0  0
  -23.6286   -8.2247   22.0749 C   0  0  0  0  0  0
  -22.4269   -8.0282   21.3539 C   0  0  0  0  0  0
  -21.9905   -9.0257   20.4644 C   0  0  0  0  0  0
  -22.7235  -10.2138   20.3050 C   0  0  0  0  0  0
  -21.6859   -6.0730   22.5270 C   0  0  0  0  0  0
  -21.4016   -6.5632   23.8206 C   0  0  0  0  0  0
  -21.3661   -5.6785   24.9168 C   0  0  0  0  0  0
  -21.6045   -4.3048   24.7220 C   0  0  0  0  0  0
  -21.8821   -3.8139   23.4342 C   0  0  0  0  0  0
  -21.9194   -4.6955   22.3397 C   0  0  0  0  0  0
  -22.7803  -13.5229   21.1876 C   0  0  0  0  0  0
  -22.1664   -4.2140   21.0974 F   0  0  0  0  0  0
  -21.5629   -3.4534   25.7735 F   0  0  0  0  0  0
  -29.9601  -13.6315   20.3755 N   0  0  0  0  0  0
  -26.2886  -12.9440   20.3263 N   0  0  0  0  0  0
  -25.9314  -11.6574   20.5756 N   0  0  0  0  0  0
  -22.0458  -12.8218   22.0435 N   0  0  0  0  0  0
  -25.4141  -15.1943   20.4132 N   0  0  0  0  0  0
  -31.7997  -14.8978   20.1492 O   0  0  0  0  0  0
  -21.6641   -6.8875   21.4231 O   0  0  0  0  0  0
  -22.3486  -14.5530   20.6718 O   0  0  0  0  0  0
  -24.6387  -31.8471   23.1925 C   0  0  0  0  0  0
  -25.9185  -32.4706   23.8297 C   0  0  1  0  0  0
  -27.2144  -27.1785   20.1351 C   0  0  0  0  0  0
  -25.5936  -33.8514   24.2203 N   0  0  0  0  0  0
  -23.4398  -30.4671   21.5377 C   0  0  2  0  0  0
  -24.8866  -28.9021   20.1073 C   0  0  0  0  0  0
  -22.7557  -29.4539   22.4881 C   0  0  0  0  0  0
  -18.0303  -28.1385   22.8479 C   0  0  0  0  0  0
  -24.1487  -36.7267   23.2640 C   0  0  0  0  0  0
  -25.9919  -30.7308   21.3870 C   0  0  0  0  0  0
  -26.0611  -29.3467   20.7271 C   0  0  0  0  0  0
  -27.2247  -28.4978   20.7291 C   0  0  0  0  0  0
  -26.0180  -26.8277   19.4713 C   0  0  0  0  0  0
  -24.8752  -27.6542   19.4663 C   0  0  0  0  0  0
  -23.6623  -29.8004   20.1546 C   0  0  0  0  0  0
  -25.4117  -36.3040   24.0314 C   0  0  1  0  0  0
  -20.5906  -28.3711   23.1242 C   0  0  2  0  0  0
  -20.6788  -26.9422   22.5401 C   0  0  0  0  0  0
  -19.5767  -26.6375   21.5214 C   0  0  0  0  0  0
  -18.1945  -26.7928   22.1616 C   0  0  0  0  0  0
  -19.1555  -28.8867   23.2853 C   0  0  0  0  0  0
  -18.9481  -30.1463   23.8879 C   0  0  0  0  0  0
  -17.6485  -30.6592   24.0548 C   0  0  0  0  0  0
  -25.9069  -34.9414   23.5074 C   0  0  0  0  0  0
  -16.5377  -29.9086   23.6331 C   0  0  0  0  0  0
  -16.7292  -28.6499   23.0359 C   0  0  0  0  0  0
  -26.4526  -31.6569   25.0732 C   0  0  0  0  0  0
  -25.3713  -31.3743   26.1430 C   0  0  0  0  0  0
  -27.0406  -30.2970   24.6308 C   0  0  0  0  0  0
  -27.6058  -32.4339   25.7511 C   0  0  0  0  0  0
  -27.5579  -37.1781   24.8466 C   0  0  0  0  0  0
  -21.4252  -29.3035   22.3627 N   0  0  0  0  0  0
  -26.4289  -37.3745   23.9414 N   0  0  0  0  0  0
  -24.7094  -31.0362   22.0943 N   0  0  0  0  0  0
  -23.4219  -28.8089   23.3017 O   0  0  0  0  0  0
  -28.2834  -26.2280   20.2147 O   0  0  0  0  0  0
  -26.5673  -34.8908   22.4665 O   0  0  0  0  0  0
  -23.5514  -32.1327   23.7169 O   0  0  0  0  0  0
  -28.5559  -19.4900   20.8315 C   0  0  0  0  0  0
  -30.5474  -20.0923   19.7493 C   0  0  0  0  0  0
  -29.7881  -19.0077   20.2896 C   0  0  0  0  0  0
  -28.2039  -20.9093   20.8565 C   0  0  0  0  0  0
  -29.0875  -21.9221   20.3379 C   0  0  0  0  0  0
  -25.8338  -19.6072   22.9784 C   0  0  0  0  0  0
  -24.3845  -20.9956   21.4602 C   0  0  0  0  0  0
  -26.8937  -21.3865   21.4849 C   0  0  0  0  0  0
  -30.4524  -17.5035   20.2967 C   0  0  0  0  0  0
  -29.0207  -23.5394   20.6339 C   0  0  0  0  0  0
  -28.0936  -24.7207   19.9344 C   0  0  0  0  0  0
  -25.7641  -20.3388   21.6269 C   0  0  0  0  0  0
  -30.2324  -21.4378   19.7721 N   0  0  0  0  0  0
  -29.8753  -16.0736   20.5266 N   0  0  0  0  0  0
  -31.4671  -12.6617   19.1813 H   0  0  0  0  0  0
  -30.3951  -11.5759   20.0165 H   0  0  0  0  0  0
  -29.8158  -11.7208   17.5632 H   0  0  0  0  0  0
  -29.6124  -13.4505   17.7013 H   0  0  0  0  0  0
  -27.9323  -11.2715   18.9744 H   0  0  0  0  0  0
  -27.3796  -12.4530   17.8171 H   0  0  0  0  0  0
  -27.6012  -14.2495   19.4186 H   0  0  0  0  0  0
  -28.7416  -12.2788   21.4590 H   0  0  0  0  0  0
  -28.3934  -13.9679   21.7539 H   0  0  0  0  0  0
  -25.2753   -9.5695   22.4761 H   0  0  0  0  0  0
  -23.9994   -7.4642   22.7474 H   0  0  0  0  0  0
  -21.0839   -8.8777   19.8958 H   0  0  0  0  0  0
  -22.3681  -10.9676   19.6171 H   0  0  0  0  0  0
  -21.2009   -7.6143   23.9703 H   0  0  0  0  0  0
  -21.1483   -6.0518   25.9072 H   0  0  0  0  0  0
  -22.0600   -2.7601   23.2843 H   0  0  0  0  0  0
  -22.4082  -11.9888   22.4829 H   0  0  0  0  0  0
  -21.1071  -13.1239   22.2635 H   0  0  0  0  0  0
  -24.6414  -15.8430   20.5152 H   0  0  0  0  0  0
  -26.2546  -15.6338   20.0622 H   0  0  0  0  0  0
  -26.7255  -32.5323   23.1027 H   0  0  0  0  0  0
  -25.0034  -33.9631   25.0317 H   0  0  0  0  0  0
  -22.7386  -31.2911   21.3895 H   0  0  0  0  0  0
  -23.3753  -35.9593   23.3286 H   0  0  0  0  0  0
  -24.3567  -36.8925   22.2058 H   0  0  0  0  0  0
  -23.7237  -37.6448   23.6706 H   0  0  0  0  0  0
  -26.1440  -31.4883   20.6168 H   0  0  0  0  0  0
  -26.8624  -30.7766   22.0290 H   0  0  0  0  0  0
  -28.1189  -28.8293   21.2380 H   0  0  0  0  0  0
  -25.9338  -25.8793   18.9619 H   0  0  0  0  0  0
  -23.9795  -27.3120   18.9668 H   0  0  0  0  0  0
  -23.7970  -30.5780   19.4019 H   0  0  0  0  0  0
  -22.7778  -29.2411   19.8441 H   0  0  0  0  0  0
  -25.1295  -36.1870   25.0799 H   0  0  0  0  0  0
  -20.9985  -28.3308   24.1366 H   0  0  0  0  0  0
  -20.5680  -26.2329   23.3616 H   0  0  0  0  0  0
  -21.6658  -26.7430   22.1205 H   0  0  0  0  0  0
  -19.6925  -25.6280   21.1261 H   0  0  0  0  0  0
  -19.6701  -27.3168   20.6729 H   0  0  0  0  0  0
  -17.4210  -26.6670   21.4030 H   0  0  0  0  0  0
  -18.0347  -26.0075   22.9011 H   0  0  0  0  0  0
  -19.7966  -30.7272   24.2242 H   0  0  0  0  0  0
  -17.5049  -31.6269   24.5162 H   0  0  0  0  0  0
  -15.5375  -30.2983   23.7670 H   0  0  0  0  0  0
  -15.8688  -28.0811   22.7082 H   0  0  0  0  0  0
  -24.5882  -30.7110   25.7739 H   0  0  0  0  0  0
  -24.8914  -32.2924   26.4829 H   0  0  0  0  0  0
  -25.7982  -30.8920   27.0230 H   0  0  0  0  0  0
  -26.3036  -29.6669   24.1319 H   0  0  0  0  0  0
  -27.4031  -29.7284   25.4878 H   0  0  0  0  0  0
  -27.8934  -30.4212   23.9630 H   0  0  0  0  0  0
  -27.2654  -33.3661   26.2037 H   0  0  0  0  0  0
  -28.3895  -32.6861   25.0352 H   0  0  0  0  0  0
  -28.0710  -31.8502   26.5466 H   0  0  0  0  0  0
  -28.2569  -38.0098   24.7524 H   0  0  0  0  0  0
  -28.1098  -36.2629   24.6277 H   0  0  0  0  0  0
  -27.2311  -37.1410   25.8869 H   0  0  0  0  0  0
  -20.9459  -29.8755   21.6814 H   0  0  0  0  0  0
  -26.0160  -38.2809   24.1419 H   0  0  0  0  0  0
  -27.8959  -18.7543   21.2635 H   0  0  0  0  0  0
  -31.5084  -19.8740   19.3062 H   0  0  0  0  0  0
  -25.0859  -18.8149   23.0353 H   0  0  0  0  0  0
  -25.6507  -20.2935   23.8062 H   0  0  0  0  0  0
  -26.8077  -19.1498   23.1508 H   0  0  0  0  0  0
  -23.5827  -20.2648   21.5717 H   0  0  0  0  0  0
  -24.2763  -21.4472   20.4730 H   0  0  0  0  0  0
  -24.2257  -21.7783   22.2024 H   0  0  0  0  0  0
  -26.5288  -22.1878   20.8410 H   0  0  0  0  0  0
  -27.1013  -21.8603   22.4454 H   0  0  0  0  0  0
  -31.2723  -17.5821   21.0128 H   0  0  0  0  0  0
  -30.9575  -17.4325   19.3320 H   0  0  0  0  0  0
  -30.0476  -23.8830   20.5084 H   0  0  0  0  0  0
  -28.8514  -23.6218   21.7071 H   0  0  0  0  0  0
  -27.0650  -24.4576   20.1771 H   0  0  0  0  0  0
  -28.1783  -24.6060   18.8537 H   0  0  0  0  0  0
  -25.8397  -19.6129   20.8162 H   0  0  0  0  0  0
  -28.8851  -15.9966   20.7021 H   0  0  0  0  0  0
  1 25  1  0  0  0
  1 30  2  0  0  0
  1 84  1  0  0  0
  2  3  1  0  0  0
  2 25  1  0  0  0
  2 85  1  0  0  0
  2 86  1  0  0  0
  3  4  1  0  0  0
  3 87  1  0  0  0
  3 88  1  0  0  0
  4  5  1  0  0  0
  4 89  1  0  0  0
  4 90  1  0  0  0
  5  6  1  0  0  0
  5 26  1  0  0  0
  5 91  1  0  0  0
  6 25  1  0  0  0
  6 92  1  0  0  0
  6 93  1  0  0  0
  7  8  2  0  0  0
  7 26  1  0  0  0
  7 29  1  0  0  0
  8  9  1  0  0  0
  8 22  1  0  0  0
  9 10  1  0  0  0
  9 27  2  0  0  0
 10 11  2  0  0  0
 10 15  1  0  0  0
 11 12  1  0  0  0
 11 94  1  0  0  0
 12 13  2  0  0  0
 12 95  1  0  0  0
 13 14  1  0  0  0
 13 31  1  0  0  0
 14 15  2  0  0  0
 14 96  1  0  0  0
 15 97  1  0  0  0
 16 17  2  0  0  0
 16 21  1  0  0  0
 16 31  1  0  0  0
 17 18  1  0  0  0
 17 98  1  0  0  0
 18 19  2  0  0  0
 18 99  1  0  0  0
 19 20  1  0  0  0
 19 24  1  0  0  0
 20 21  2  0  0  0
 20100  1  0  0  0
 21 23  1  0  0  0
 22 28  1  0  0  0
 22 32  2  0  0  0
 26 27  1  0  0  0
 28101  1  0  0  0
 28102  1  0  0  0
 29103  1  0  0  0
 29104  1  0  0  0
 33 34  1  0  0  0
 33 66  1  0  0  0
 33 70  2  0  0  0
 34 36  1  0  0  0
 34 59  1  0  0  0
 34105  1  0  0  0
 35 44  2  0  0  0
 35 45  1  0  0  0
 35 68  1  0  0  0
 36 56  1  0  0  0
 36106  1  0  0  0
 37 39  1  0  0  0
 37 47  1  0  0  0
 37 66  1  0  0  0
 37107  1  0  0  0
 38 43  2  0  0  0
 38 46  1  0  0  0
 38 47  1  0  0  0
 39 64  1  0  0  0
 39 67  2  0  0  0
 40 52  1  0  0  0
 40 53  2  0  0  0
 40 58  1  0  0  0
 41108  1  0  0  0
 41109  1  0  0  0
 41110  1  0  0  0
 41 48  1  0  0  0
 42 43  1  0  0  0
 42 66  1  0  0  0
 42111  1  0  0  0
 42112  1  0  0  0
 43 44  1  0  0  0
 44113  1  0  0  0
 45 46  2  0  0  0
 45114  1  0  0  0
 46115  1  0  0  0
 47116  1  0  0  0
 47117  1  0  0  0
 48 56  1  0  0  0
 48 65  1  0  0  0
 48118  1  0  0  0
 49 50  1  0  0  0
 49 53  1  0  0  0
 49 64  1  0  0  0
 49119  1  0  0  0
 50 51  1  0  0  0
 50120  1  0  0  0
 50121  1  0  0  0
 51 52  1  0  0  0
 51122  1  0  0  0
 51123  1  0  0  0
 52124  1  0  0  0
 52125  1  0  0  0
 53 54  1  0  0  0
 54 55  2  0  0  0
 54126  1  0  0  0
 55 57  1  0  0  0
 55127  1  0  0  0
 56 69  2  0  0  0
 57 58  2  0  0  0
 57128  1  0  0  0
 58129  1  0  0  0
 59 60  1  0  0  0
 59 61  1  0  0  0
 59 62  1  0  0  0
 60130  1  0  0  0
 60131  1  0  0  0
 60132  1  0  0  0
 61133  1  0  0  0
 61134  1  0  0  0
 61135  1  0  0  0
 62136  1  0  0  0
 62137  1  0  0  0
 62138  1  0  0  0
 63 65  1  0  0  0
 63139  1  0  0  0
 63140  1  0  0  0
 63141  1  0  0  0
 64142  1  0  0  0
 65143  1  0  0  0
 68 81  1  0  0  0
 71 73  2  0  0  0
 71 74  1  0  0  0
 71144  1  0  0  0
 72 73  1  0  0  0
 72 83  2  0  0  0
 72145  1  0  0  0
 73 79  1  0  0  0
 74 75  2  0  0  0
 74 78  1  0  0  0
 75 80  1  0  0  0
 75 83  1  0  0  0
 76146  1  0  0  0
 76147  1  0  0  0
 76148  1  0  0  0
 76 82  1  0  0  0
 77 82  1  0  0  0
 77149  1  0  0  0
 77150  1  0  0  0
 77151  1  0  0  0
 78 82  1  0  0  0
 78152  1  0  0  0
 78153  1  0  0  0
 79 84  1  0  0  0
 79154  1  0  0  0
 79155  1  0  0  0
 80 81  1  0  0  0
 80156  1  0  0  0
 80157  1  0  0  0
 81158  1  0  0  0
 81159  1  0  0  0
 82160  1  0  0  0
 84161  1  0  0  0
M  ISO  4   1 100  68 101  81 101  84 100
M  END
> <chiral flag>
0

> <version>
0

> <s_m_source_file>
/data/baiqing/PycharmProjects/Reinvent-master-3.2/result/LINK_invent/BTK/process_docking_weight1_custom_sum_contain_oxygen_bond_distance_aromatic_linkinvent_7_9_3/rearranged_h_0105.sdf

> <i_m_source_file_index>
83

> <r_mmod_Potential_Energy-OPLS-2005>
244.761566162109

> <r_mmod_Stretch_Energy-OPLS-2005>
194.127380371094

> <r_mmod_Bend_Energy-OPLS-2005>
261.813720703125

> <r_mmod_Torsional_Energy-OPLS-2005>
208.777435302734

> <r_mmod_Improper_Torsional_Energy-OPLS-2005>
6.96952629089355

> <r_mmod_Van_der_Waal_Energy-OPLS-2005>
138.422714233398

> <r_mmod_Electrostatic_Energy-OPLS-2005>
-489.974578857422

> <r_mmod_Solvation_Energy-OPLS-2005>
-222.502304077148

> <b_mmod_Minimization_Converged-OPLS-2005>
0

> <r_mmod_RMS_Derivative-OPLS-2005>
1.32589972019196

$$$$
83
                    3D
 Structure written by MMmdl.
157165  0  0  1  0            999 V2000
  -30.5502  -14.9653   20.4107 C   0  0  0  0  0  0
  -30.4372  -12.5986   19.4963 C   0  0  0  0  0  0
  -29.5208  -12.5302   18.2537 C   0  0  0  0  0  0
  -28.0561  -12.3103   18.6756 C   0  0  0  0  0  0
  -27.6276  -13.2490   19.8338 C   0  0  2  0  0  0
  -28.6710  -13.2961   20.9704 C   0  0  0  0  0  0
  -25.2465  -13.8211   20.5700 C   0  0  0  0  0  0
  -24.1785  -13.0437   20.9229 C   0  0  0  0  0  0
  -24.6404  -11.6925   20.8760 C   0  0  0  0  0  0
  -23.9089  -10.4295   21.0413 C   0  0  0  0  0  0
  -24.3631   -9.4210   21.9195 C   0  0  0  0  0  0
  -23.6298   -8.2248   22.0761 C   0  0  0  0  0  0
  -22.4284   -8.0284   21.3543 C   0  0  0  0  0  0
  -21.9926   -9.0263   20.4648 C   0  0  0  0  0  0
  -22.7261  -10.2140   20.3060 C   0  0  0  0  0  0
  -21.6854   -6.0744   22.5281 C   0  0  0  0  0  0
  -21.4014   -6.5646   23.8214 C   0  0  0  0  0  0
  -21.3656   -5.6797   24.9173 C   0  0  0  0  0  0
  -21.6040   -4.3061   24.7224 C   0  0  0  0  0  0
  -21.8817   -3.8155   23.4346 C   0  0  0  0  0  0
  -21.9195   -4.6972   22.3404 C   0  0  0  0  0  0
  -22.7805  -13.5212   21.1876 C   0  0  0  0  0  0
  -22.1662   -4.2160   21.0979 F   0  0  0  0  0  0
  -21.5629   -3.4544   25.7737 F   0  0  0  0  0  0
  -29.9420  -13.7088   20.3634 N   0  0  0  0  0  0
  -26.2885  -12.9444   20.3229 N   0  0  0  0  0  0
  -25.9336  -11.6576   20.5735 N   0  0  0  0  0  0
  -22.0438  -12.8205   22.0422 N   0  0  0  0  0  0
  -25.4127  -15.1939   20.4093 N   0  0  0  0  0  0
  -31.7635  -14.9802   20.1680 O   0  0  0  0  0  0
  -21.6641   -6.8887   21.4240 O   0  0  0  0  0  0
  -22.3497  -14.5523   20.6722 O   0  0  0  0  0  0
  -24.6447  -31.8421   23.1873 C   0  0  0  0  0  0
  -25.9209  -32.4694   23.8263 C   0  0  1  0  0  0
  -27.2138  -27.1211   20.1484 C   0  0  0  0  0  0
  -25.5938  -33.8503   24.2168 N   0  0  0  0  0  0
  -23.4484  -30.4624   21.5343 C   0  0  2  0  0  0
  -24.8967  -28.8868   20.1106 C   0  0  0  0  0  0
  -22.7568  -29.4542   22.4869 C   0  0  0  0  0  0
  -18.0303  -28.1394   22.8493 C   0  0  0  0  0  0
  -24.1495  -36.7257   23.2644 C   0  0  0  0  0  0
  -26.0052  -30.7107   21.3870 C   0  0  0  0  0  0
  -26.0760  -29.3210   20.7284 C   0  0  0  0  0  0
  -27.2358  -28.4555   20.7291 C   0  0  0  0  0  0
  -26.0064  -26.7919   19.4940 C   0  0  0  0  0  0
  -24.8756  -27.6362   19.4773 C   0  0  0  0  0  0
  -23.6741  -29.7908   20.1548 C   0  0  0  0  0  0
  -25.4126  -36.3036   24.0317 C   0  0  1  0  0  0
  -20.5914  -28.3726   23.1252 C   0  0  2  0  0  0
  -20.6792  -26.9430   22.5425 C   0  0  0  0  0  0
  -19.5764  -26.6378   21.5236 C   0  0  0  0  0  0
  -18.1935  -26.7942   22.1623 C   0  0  0  0  0  0
  -19.1559  -28.8877   23.2871 C   0  0  0  0  0  0
  -18.9477  -30.1469   23.8904 C   0  0  0  0  0  0
  -17.6475  -30.6603   24.0561 C   0  0  0  0  0  0
  -25.9075  -34.9410   23.5058 C   0  0  0  0  0  0
  -16.5366  -29.9091   23.6341 C   0  0  0  0  0  0
  -16.7288  -28.6502   23.0379 C   0  0  0  0  0  0
  -26.4514  -31.6570   25.0714 C   0  0  0  0  0  0
  -25.3673  -31.3759   26.1388 C   0  0  0  0  0  0
  -27.0375  -30.2968   24.6298 C   0  0  0  0  0  0
  -27.6055  -32.4333   25.7491 C   0  0  0  0  0  0
  -27.5582  -37.1785   24.8459 C   0  0  0  0  0  0
  -21.4257  -29.3056   22.3630 N   0  0  0  0  0  0
  -26.4283  -37.3757   23.9418 N   0  0  0  0  0  0
  -24.7200  -31.0261   22.0917 N   0  0  0  0  0  0
  -23.4211  -28.8085   23.3025 O   0  0  0  0  0  0
  -28.2604  -26.1248   20.2121 O   0  0  0  0  0  0
  -26.5678  -34.8907   22.4644 O   0  0  0  0  0  0
  -23.5570  -32.1297   23.7095 O   0  0  0  0  0  0
  -29.2045  -18.8363   20.3743 C   0  0  0  0  0  0
  -31.8374  -19.2926   20.5823 C   0  0  0  0  0  0
  -29.5994  -20.2800   20.3604 C   0  0  0  0  0  0
  -31.0072  -20.4399   20.4695 C   0  0  0  0  0  0
  -30.1319  -17.6695   20.4800 C   0  0  0  0  0  0
  -32.2631  -21.9812   19.1513 C   0  0  0  0  0  0
  -32.3066  -22.1149   21.6430 C   0  0  0  0  0  0
  -28.6078  -21.6139   20.2062 C   0  0  0  0  0  0
  -29.0062  -23.2723   20.2952 C   0  0  0  0  0  0
  -27.9687  -24.5922   20.0694 C   0  0  0  0  0  0
  -31.4334  -18.0021   20.5884 N   0  0  0  0  0  0
  -29.7796  -16.1718   20.4974 N   0  0  0  0  0  0
  -31.6051  -21.7101   20.4259 N   0  0  0  0  0  0
  -31.4711  -12.7499   19.1822 H   0  0  0  0  0  0
  -30.4287  -11.6511   20.0371 H   0  0  0  0  0  0
  -29.8442  -11.7309   17.5854 H   0  0  0  0  0  0
  -29.6051  -13.4576   17.6849 H   0  0  0  0  0  0
  -27.9613  -11.2710   18.9917 H   0  0  0  0  0  0
  -27.3900  -12.4298   17.8194 H   0  0  0  0  0  0
  -27.5846  -14.2463   19.3952 H   0  0  0  0  0  0
  -28.7635  -12.3272   21.4625 H   0  0  0  0  0  0
  -28.3685  -14.0083   21.7402 H   0  0  0  0  0  0
  -25.2768   -9.5695   22.4782 H   0  0  0  0  0  0
  -24.0005   -7.4645   22.7490 H   0  0  0  0  0  0
  -21.0856   -8.8786   19.8955 H   0  0  0  0  0  0
  -22.3714  -10.9685   19.6175 H   0  0  0  0  0  0
  -21.1999   -7.6152   23.9721 H   0  0  0  0  0  0
  -21.1478   -6.0525   25.9076 H   0  0  0  0  0  0
  -22.0597   -2.7617   23.2841 H   0  0  0  0  0  0
  -22.4039  -11.9861   22.4815 H   0  0  0  0  0  0
  -21.1050  -13.1239   22.2605 H   0  0  0  0  0  0
  -24.6377  -15.8403   20.5088 H   0  0  0  0  0  0
  -26.2415  -15.6309   20.0297 H   0  0  0  0  0  0
  -26.7269  -32.5296   23.0985 H   0  0  0  0  0  0
  -25.0038  -33.9622   25.0282 H   0  0  0  0  0  0
  -22.7518  -31.2890   21.3794 H   0  0  0  0  0  0
  -23.3777  -35.9569   23.3266 H   0  0  0  0  0  0
  -24.3581  -36.8933   22.2068 H   0  0  0  0  0  0
  -23.7229  -37.6430   23.6706 H   0  0  0  0  0  0
  -26.1605  -31.4627   20.6126 H   0  0  0  0  0  0
  -26.8763  -30.7628   22.0286 H   0  0  0  0  0  0
  -28.1324  -28.7827   21.2367 H   0  0  0  0  0  0
  -25.8971  -25.8362   19.0055 H   0  0  0  0  0  0
  -23.9770  -27.2961   18.9821 H   0  0  0  0  0  0
  -23.8092  -30.5638   19.3975 H   0  0  0  0  0  0
  -22.7884  -29.2324   19.8482 H   0  0  0  0  0  0
  -25.1316  -36.1859   25.0811 H   0  0  0  0  0  0
  -21.0007  -28.3315   24.1371 H   0  0  0  0  0  0
  -20.5705  -26.2336   23.3647 H   0  0  0  0  0  0
  -21.6653  -26.7449   22.1204 H   0  0  0  0  0  0
  -19.6932  -25.6284   21.1271 H   0  0  0  0  0  0
  -19.6703  -27.3186   20.6765 H   0  0  0  0  0  0
  -17.4223  -26.6736   21.4000 H   0  0  0  0  0  0
  -18.0290  -26.0071   22.8997 H   0  0  0  0  0  0
  -19.7953  -30.7283   24.2282 H   0  0  0  0  0  0
  -17.5024  -31.6290   24.5148 H   0  0  0  0  0  0
  -15.5366  -30.2994   23.7658 H   0  0  0  0  0  0
  -15.8682  -28.0807   22.7120 H   0  0  0  0  0  0
  -24.5947  -30.6989   25.7717 H   0  0  0  0  0  0
  -24.8730  -32.2917   26.4645 H   0  0  0  0  0  0
  -25.7927  -30.9087   27.0274 H   0  0  0  0  0  0
  -26.2991  -29.6695   24.1291 H   0  0  0  0  0  0
  -27.3976  -29.7275   25.4874 H   0  0  0  0  0  0
  -27.8898  -30.4212   23.9616 H   0  0  0  0  0  0
  -27.2689  -33.3702   26.1947 H   0  0  0  0  0  0
  -28.3917  -32.6780   25.0334 H   0  0  0  0  0  0
  -28.0647  -31.8520   26.5498 H   0  0  0  0  0  0
  -28.2575  -38.0106   24.7535 H   0  0  0  0  0  0
  -28.1098  -36.2637   24.6235 H   0  0  0  0  0  0
  -27.2302  -37.1376   25.8861 H   0  0  0  0  0  0
  -20.9475  -29.8767   21.6804 H   0  0  0  0  0  0
  -26.0146  -38.2825   24.1421 H   0  0  0  0  0  0
  -28.1483  -18.6225   20.2893 H   0  0  0  0  0  0
  -32.9071  -19.4185   20.6585 H   0  0  0  0  0  0
  -31.6619  -21.6261   18.3114 H   0  0  0  0  0  0
  -33.2395  -21.4973   19.0992 H   0  0  0  0  0  0
  -32.4112  -23.0536   19.0167 H   0  0  0  0  0  0
  -32.5629  -21.2721   22.2874 H   0  0  0  0  0  0
  -31.6846  -22.7958   22.2262 H   0  0  0  0  0  0
  -33.2324  -22.6432   21.4075 H   0  0  0  0  0  0
  -27.8133  -21.4530   20.9348 H   0  0  0  0  0  0
  -28.1196  -21.4766   19.2417 H   0  0  0  0  0  0
  -29.8021  -23.4312   19.5690 H   0  0  0  0  0  0
  -29.4776  -23.4205   21.2665 H   0  0  0  0  0  0
  -27.1082  -24.4020   20.7117 H   0  0  0  0  0  0
  -27.5942  -24.4686   19.0532 H   0  0  0  0  0  0
  -28.7924  -15.9920   20.5770 H   0  0  0  0  0  0
  1 25  1  0  0  0
  1 30  2  0  0  0
  1 82  1  0  0  0
  2  3  1  0  0  0
  2 25  1  0  0  0
  2 84  1  0  0  0
  2 85  1  0  0  0
  3  4  1  0  0  0
  3 86  1  0  0  0
  3 87  1  0  0  0
  4  5  1  0  0  0
  4 88  1  0  0  0
  4 89  1  0  0  0
  5  6  1  0  0  0
  5 26  1  0  0  0
  5 90  1  0  0  0
  6 25  1  0  0  0
  6 91  1  0  0  0
  6 92  1  0  0  0
  7  8  2  0  0  0
  7 26  1  0  0  0
  7 29  1  0  0  0
  8  9  1  0  0  0
  8 22  1  0  0  0
  9 10  1  0  0  0
  9 27  2  0  0  0
 10 11  2  0  0  0
 10 15  1  0  0  0
 11 12  1  0  0  0
 11 93  1  0  0  0
 12 13  2  0  0  0
 12 94  1  0  0  0
 13 14  1  0  0  0
 13 31  1  0  0  0
 14 15  2  0  0  0
 14 95  1  0  0  0
 15 96  1  0  0  0
 16 17  2  0  0  0
 16 21  1  0  0  0
 16 31  1  0  0  0
 17 18  1  0  0  0
 17 97  1  0  0  0
 18 19  2  0  0  0
 18 98  1  0  0  0
 19 20  1  0  0  0
 19 24  1  0  0  0
 20 21  2  0  0  0
 20 99  1  0  0  0
 21 23  1  0  0  0
 22 28  1  0  0  0
 22 32  2  0  0  0
 26 27  1  0  0  0
 28100  1  0  0  0
 28101  1  0  0  0
 29102  1  0  0  0
 29103  1  0  0  0
 33 34  1  0  0  0
 33 66  1  0  0  0
 33 70  2  0  0  0
 34 36  1  0  0  0
 34 59  1  0  0  0
 34104  1  0  0  0
 35 44  2  0  0  0
 35 45  1  0  0  0
 35 68  1  0  0  0
 36 56  1  0  0  0
 36105  1  0  0  0
 37 39  1  0  0  0
 37 47  1  0  0  0
 37 66  1  0  0  0
 37106  1  0  0  0
 38 43  2  0  0  0
 38 46  1  0  0  0
 38 47  1  0  0  0
 39 64  1  0  0  0
 39 67  2  0  0  0
 40 52  1  0  0  0
 40 53  2  0  0  0
 40 58  1  0  0  0
 41107  1  0  0  0
 41108  1  0  0  0
 41109  1  0  0  0
 41 48  1  0  0  0
 42 43  1  0  0  0
 42 66  1  0  0  0
 42110  1  0  0  0
 42111  1  0  0  0
 43 44  1  0  0  0
 44112  1  0  0  0
 45 46  2  0  0  0
 45113  1  0  0  0
 46114  1  0  0  0
 47115  1  0  0  0
 47116  1  0  0  0
 48 56  1  0  0  0
 48 65  1  0  0  0
 48117  1  0  0  0
 49 50  1  0  0  0
 49 53  1  0  0  0
 49 64  1  0  0  0
 49118  1  0  0  0
 50 51  1  0  0  0
 50119  1  0  0  0
 50120  1  0  0  0
 51 52  1  0  0  0
 51121  1  0  0  0
 51122  1  0  0  0
 52123  1  0  0  0
 52124  1  0  0  0
 53 54  1  0  0  0
 54 55  2  0  0  0
 54125  1  0  0  0
 55 57  1  0  0  0
 55126  1  0  0  0
 56 69  2  0  0  0
 57 58  2  0  0  0
 57127  1  0  0  0
 58128  1  0  0  0
 59 60  1  0  0  0
 59 61  1  0  0  0
 59 62  1  0  0  0
 60129  1  0  0  0
 60130  1  0  0  0
 60131  1  0  0  0
 61132  1  0  0  0
 61133  1  0  0  0
 61134  1  0  0  0
 62135  1  0  0  0
 62136  1  0  0  0
 62137  1  0  0  0
 63 65  1  0  0  0
 63138  1  0  0  0
 63139  1  0  0  0
 63140  1  0  0  0
 64141  1  0  0  0
 65142  1  0  0  0
 68 80  1  0  0  0
 71 73  2  0  0  0
 71 75  1  0  0  0
 71143  1  0  0  0
 72 74  2  0  0  0
 72 81  1  0  0  0
 72144  1  0  0  0
 73 74  1  0  0  0
 73 78  1  0  0  0
 74 83  1  0  0  0
 75 81  2  0  0  0
 75 82  1  0  0  0
 76 83  1  0  0  0
 76145  1  0  0  0
 76146  1  0  0  0
 76147  1  0  0  0
 77 83  1  0  0  0
 77148  1  0  0  0
 77149  1  0  0  0
 77150  1  0  0  0
 78 79  1  0  0  0
 78151  1  0  0  0
 78152  1  0  0  0
 79 80  1  0  0  0
 79153  1  0  0  0
 79154  1  0  0  0
 80155  1  0  0  0
 80156  1  0  0  0
 82157  1  0  0  0
M  ISO  4   1 100  68 101  80 101  82 100
M  END
> <chiral flag>
0

> <version>
0

> <s_m_source_file>
/data/baiqing/PycharmProjects/Reinvent-master-3.2/result/LINK_invent/BTK/process_docking_weight1_custom_sum_contain_oxygen_bond_distance_aromatic_linkinvent_7_9_3/rearranged_h_0105.sdf

> <i_m_source_file_index>
84

> <r_mmod_Potential_Energy-OPLS-2005>
474.486083984375

> <r_mmod_Stretch_Energy-OPLS-2005>
283.468811035156

> <r_mmod_Bend_Energy-OPLS-2005>
259.383422851562

> <r_mmod_Torsional_Energy-OPLS-2005>
221.494125366211

> <r_mmod_Improper_Torsional_Energy-OPLS-2005>
8.84381103515625

> <r_mmod_Van_der_Waal_Energy-OPLS-2005>
141.183975219727

> <r_mmod_Electrostatic_Energy-OPLS-2005>
-398.376007080078

> <r_mmod_Solvation_Energy-OPLS-2005>
-245.200531005859

> <b_mmod_Minimization_Converged-OPLS-2005>
0

> <r_mmod_RMS_Derivative-OPLS-2005>
1.4399573802948

$$$$
84
                    3D
 Structure written by MMmdl.
160168  0  0  1  0            999 V2000
  -30.4938  -15.0624   20.3850 C   0  0  0  0  0  0
  -30.4511  -12.6588   19.5173 C   0  0  0  0  0  0
  -29.5339  -12.5440   18.2755 C   0  0  0  0  0  0
  -28.0752  -12.2888   18.6981 C   0  0  0  0  0  0
  -27.6286  -13.2348   19.8407 C   0  0  2  0  0  0
  -28.6702  -13.3226   20.9788 C   0  0  0  0  0  0
  -25.2459  -13.8106   20.5830 C   0  0  0  0  0  0
  -24.1750  -13.0350   20.9262 C   0  0  0  0  0  0
  -24.6378  -11.6848   20.8762 C   0  0  0  0  0  0
  -23.9062  -10.4248   21.0422 C   0  0  0  0  0  0
  -24.3618   -9.4165   21.9198 C   0  0  0  0  0  0
  -23.6275   -8.2219   22.0762 C   0  0  0  0  0  0
  -22.4258   -8.0270   21.3550 C   0  0  0  0  0  0
  -21.9897   -9.0243   20.4651 C   0  0  0  0  0  0
  -22.7240  -10.2103   20.3062 C   0  0  0  0  0  0
  -21.6837   -6.0729   22.5296 C   0  0  0  0  0  0
  -21.3993   -6.5633   23.8224 C   0  0  0  0  0  0
  -21.3652   -5.6784   24.9188 C   0  0  0  0  0  0
  -21.6051   -4.3047   24.7233 C   0  0  0  0  0  0
  -21.8808   -3.8141   23.4353 C   0  0  0  0  0  0
  -21.9176   -4.6960   22.3402 C   0  0  0  0  0  0
  -22.7782  -13.5157   21.1896 C   0  0  0  0  0  0
  -22.1648   -4.2150   21.0983 F   0  0  0  0  0  0
  -21.5641   -3.4524   25.7742 F   0  0  0  0  0  0
  -29.9397  -13.7700   20.3808 N   0  0  0  0  0  0
  -26.2881  -12.9344   20.3284 N   0  0  0  0  0  0
  -25.9314  -11.6479   20.5732 N   0  0  0  0  0  0
  -22.0401  -12.8182   22.0463 N   0  0  0  0  0  0
  -25.4060  -15.1832   20.4465 N   0  0  0  0  0  0
  -31.6868  -15.1393   20.0638 O   0  0  0  0  0  0
  -21.6614   -6.8883   21.4262 O   0  0  0  0  0  0
  -22.3496  -14.5474   20.6723 O   0  0  0  0  0  0
  -24.6482  -31.8377   23.1846 C   0  0  0  0  0  0
  -25.9232  -32.4655   23.8259 C   0  0  1  0  0  0
  -27.2239  -27.0728   20.1538 C   0  0  0  0  0  0
  -25.5960  -33.8470   24.2172 N   0  0  0  0  0  0
  -23.4578  -30.4551   21.5277 C   0  0  2  0  0  0
  -24.9144  -28.8778   20.1002 C   0  0  0  0  0  0
  -22.7601  -29.4514   22.4804 C   0  0  0  0  0  0
  -18.0312  -28.1416   22.8463 C   0  0  0  0  0  0
  -24.1494  -36.7251   23.2644 C   0  0  0  0  0  0
  -26.0175  -30.6846   21.4027 C   0  0  0  0  0  0
  -26.0861  -29.2902   20.7464 C   0  0  0  0  0  0
  -27.2325  -28.3989   20.7697 C   0  0  0  0  0  0
  -26.0581  -26.8245   19.3956 C   0  0  0  0  0  0
  -24.9177  -27.6597   19.4059 C   0  0  0  0  0  0
  -23.6916  -29.7848   20.1466 C   0  0  0  0  0  0
  -25.4122  -36.3013   24.0315 C   0  0  1  0  0  0
  -20.5930  -28.3753   23.1204 C   0  0  2  0  0  0
  -20.6797  -26.9446   22.5398 C   0  0  0  0  0  0
  -19.5773  -26.6388   21.5210 C   0  0  0  0  0  0
  -18.1955  -26.7949   22.1617 C   0  0  0  0  0  0
  -19.1572  -28.8902   23.2830 C   0  0  0  0  0  0
  -18.9489  -30.1487   23.8876 C   0  0  0  0  0  0
  -17.6485  -30.6599   24.0571 C   0  0  0  0  0  0
  -25.9078  -34.9385   23.5058 C   0  0  0  0  0  0
  -16.5376  -29.9101   23.6331 C   0  0  0  0  0  0
  -16.7297  -28.6522   23.0346 C   0  0  0  0  0  0
  -26.4539  -31.6548   25.0727 C   0  0  0  0  0  0
  -25.3708  -31.3765   26.1412 C   0  0  0  0  0  0
  -27.0406  -30.2923   24.6371 C   0  0  0  0  0  0
  -27.6062  -32.4324   25.7504 C   0  0  0  0  0  0
  -27.5577  -37.1777   24.8461 C   0  0  0  0  0  0
  -21.4287  -29.3061   22.3560 N   0  0  0  0  0  0
  -26.4283  -37.3728   23.9409 N   0  0  0  0  0  0
  -24.7270  -31.0167   22.0921 N   0  0  0  0  0  0
  -23.4211  -28.8065   23.2984 O   0  0  0  0  0  0
  -28.2422  -26.0293   20.2844 O   0  0  0  0  0  0
  -26.5672  -34.8887   22.4640 O   0  0  0  0  0  0
  -23.5582  -32.1298   23.7013 O   0  0  0  0  0  0
  -28.3595  -19.5128   19.3097 C   0  0  0  0  0  0
  -30.0410  -18.9943   20.6356 C   0  0  0  0  0  0
  -28.4327  -18.1280   19.3670 C   0  0  0  0  0  0
  -29.5138  -17.7222   20.2300 C   0  0  0  0  0  0
  -28.0933  -16.9545   17.1895 C   0  0  0  0  0  0
  -26.0778  -17.7676   18.5001 C   0  0  0  0  0  0
  -26.6796  -24.0328   20.6516 C   0  0  0  0  0  0
  -29.0439  -23.1697   20.6241 C   0  0  0  0  0  0
  -29.6215  -21.7326   19.8792 C   0  0  0  0  0  0
  -27.5146  -17.2236   18.5827 C   0  0  0  0  0  0
  -28.0471  -24.4558   20.0627 C   0  0  2  0  0  0
  -29.3385  -20.1535   20.0517 N   0  0  0  0  0  0
  -29.6895  -16.2244   20.6649 N   0  0  0  0  0  0
  -31.4814  -12.8337   19.2023 H   0  0  0  0  0  0
  -30.4690  -11.7200   20.0735 H   0  0  0  0  0  0
  -29.8771  -11.7417   17.6218 H   0  0  0  0  0  0
  -29.5905  -13.4629   17.6897 H   0  0  0  0  0  0
  -28.0068  -11.2543   19.0379 H   0  0  0  0  0  0
  -27.4069  -12.3785   17.8414 H   0  0  0  0  0  0
  -27.5706  -14.2096   19.3722 H   0  0  0  0  0  0
  -28.7856  -12.3598   21.4803 H   0  0  0  0  0  0
  -28.3383  -14.0286   21.7414 H   0  0  0  0  0  0
  -25.2774   -9.5611   22.4760 H   0  0  0  0  0  0
  -23.9964   -7.4600   22.7471 H   0  0  0  0  0  0
  -21.0822   -8.8768   19.8967 H   0  0  0  0  0  0
  -22.3723  -10.9645   19.6156 H   0  0  0  0  0  0
  -21.1982   -7.6139   23.9718 H   0  0  0  0  0  0
  -21.1488   -6.0526   25.9088 H   0  0  0  0  0  0
  -22.0595   -2.7605   23.2854 H   0  0  0  0  0  0
  -22.3978  -11.9845   22.4896 H   0  0  0  0  0  0
  -21.1031  -13.1255   22.2644 H   0  0  0  0  0  0
  -24.6268  -15.8209   20.5686 H   0  0  0  0  0  0
  -26.2418  -15.6439   20.1195 H   0  0  0  0  0  0
  -26.7301  -32.5252   23.0985 H   0  0  0  0  0  0
  -25.0062  -33.9576   25.0290 H   0  0  0  0  0  0
  -22.7644  -31.2840   21.3691 H   0  0  0  0  0  0
  -23.3751  -35.9588   23.3276 H   0  0  0  0  0  0
  -24.3584  -36.8915   22.2064 H   0  0  0  0  0  0
  -23.7255  -37.6440   23.6702 H   0  0  0  0  0  0
  -26.1847  -31.4319   20.6262 H   0  0  0  0  0  0
  -26.8843  -30.7380   22.0492 H   0  0  0  0  0  0
  -28.1095  -28.6976   21.3268 H   0  0  0  0  0  0
  -26.0026  -25.9362   18.7862 H   0  0  0  0  0  0
  -24.0431  -27.3577   18.8462 H   0  0  0  0  0  0
  -23.8339  -30.5620   19.3944 H   0  0  0  0  0  0
  -22.8063  -29.2309   19.8291 H   0  0  0  0  0  0
  -25.1306  -36.1836   25.0806 H   0  0  0  0  0  0
  -21.0027  -28.3363   24.1324 H   0  0  0  0  0  0
  -20.5682  -26.2377   23.3631 H   0  0  0  0  0  0
  -21.6666  -26.7433   22.1211 H   0  0  0  0  0  0
  -19.6937  -25.6289   21.1269 H   0  0  0  0  0  0
  -19.6712  -27.3172   20.6719 H   0  0  0  0  0  0
  -17.4220  -26.6682   21.4028 H   0  0  0  0  0  0
  -18.0357  -26.0106   22.9026 H   0  0  0  0  0  0
  -19.7969  -30.7306   24.2241 H   0  0  0  0  0  0
  -17.5041  -31.6271   24.5188 H   0  0  0  0  0  0
  -15.5379  -30.3003   23.7661 H   0  0  0  0  0  0
  -15.8696  -28.0835   22.7069 H   0  0  0  0  0  0
  -24.5887  -30.7112   25.7736 H   0  0  0  0  0  0
  -24.8903  -32.2957   26.4769 H   0  0  0  0  0  0
  -25.7977  -30.8981   27.0234 H   0  0  0  0  0  0
  -26.3036  -29.6619   24.1379 H   0  0  0  0  0  0
  -27.3975  -29.7256   25.4984 H   0  0  0  0  0  0
  -27.8973  -30.4121   23.9734 H   0  0  0  0  0  0
  -27.2649  -33.3641   26.2021 H   0  0  0  0  0  0
  -28.3894  -32.6852   25.0347 H   0  0  0  0  0  0
  -28.0703  -31.8493   26.5465 H   0  0  0  0  0  0
  -28.2573  -38.0091   24.7498 H   0  0  0  0  0  0
  -28.1092  -36.2618   24.6286 H   0  0  0  0  0  0
  -27.2301  -37.1420   25.8865 H   0  0  0  0  0  0
  -20.9510  -29.8786   21.6740 H   0  0  0  0  0  0
  -26.0145  -38.2794   24.1405 H   0  0  0  0  0  0
  -27.6920  -20.1232   18.7164 H   0  0  0  0  0  0
  -30.8834  -19.1930   21.2861 H   0  0  0  0  0  0
  -29.0755  -16.4864   17.2587 H   0  0  0  0  0  0
  -28.2071  -17.8812   16.6263 H   0  0  0  0  0  0
  -27.4519  -16.2913   16.6086 H   0  0  0  0  0  0
  -25.6727  -17.9768   19.4923 H   0  0  0  0  0  0
  -25.4144  -17.0443   18.0255 H   0  0  0  0  0  0
  -26.0234  -18.6867   17.9168 H   0  0  0  0  0  0
  -26.5611  -22.9488   20.6132 H   0  0  0  0  0  0
  -25.8074  -24.4099   20.1316 H   0  0  0  0  0  0
  -26.5973  -24.3315   21.6968 H   0  0  0  0  0  0
  -29.9761  -23.7044   20.8090 H   0  0  0  0  0  0
  -28.7383  -22.9034   21.6364 H   0  0  0  0  0  0
  -30.7007  -21.7927   20.0233 H   0  0  0  0  0  0
  -29.5195  -21.9181   18.8095 H   0  0  0  0  0  0
  -27.4771  -16.2838   19.1149 H   0  0  0  0  0  0
  -28.0005  -24.3381   18.9786 H   0  0  0  0  0  0
  -28.8113  -15.8709   21.0139 H   0  0  0  0  0  0
  1 25  1  0  0  0
  1 30  2  0  0  0
  1 83  1  0  0  0
  2  3  1  0  0  0
  2 25  1  0  0  0
  2 84  1  0  0  0
  2 85  1  0  0  0
  3  4  1  0  0  0
  3 86  1  0  0  0
  3 87  1  0  0  0
  4  5  1  0  0  0
  4 88  1  0  0  0
  4 89  1  0  0  0
  5  6  1  0  0  0
  5 26  1  0  0  0
  5 90  1  0  0  0
  6 25  1  0  0  0
  6 91  1  0  0  0
  6 92  1  0  0  0
  7  8  2  0  0  0
  7 26  1  0  0  0
  7 29  1  0  0  0
  8  9  1  0  0  0
  8 22  1  0  0  0
  9 10  1  0  0  0
  9 27  2  0  0  0
 10 11  2  0  0  0
 10 15  1  0  0  0
 11 12  1  0  0  0
 11 93  1  0  0  0
 12 13  2  0  0  0
 12 94  1  0  0  0
 13 14  1  0  0  0
 13 31  1  0  0  0
 14 15  2  0  0  0
 14 95  1  0  0  0
 15 96  1  0  0  0
 16 17  2  0  0  0
 16 21  1  0  0  0
 16 31  1  0  0  0
 17 18  1  0  0  0
 17 97  1  0  0  0
 18 19  2  0  0  0
 18 98  1  0  0  0
 19 20  1  0  0  0
 19 24  1  0  0  0
 20 21  2  0  0  0
 20 99  1  0  0  0
 21 23  1  0  0  0
 22 28  1  0  0  0
 22 32  2  0  0  0
 26 27  1  0  0  0
 28100  1  0  0  0
 28101  1  0  0  0
 29102  1  0  0  0
 29103  1  0  0  0
 33 34  1  0  0  0
 33 66  1  0  0  0
 33 70  2  0  0  0
 34 36  1  0  0  0
 34 59  1  0  0  0
 34104  1  0  0  0
 35 44  2  0  0  0
 35 45  1  0  0  0
 35 68  1  0  0  0
 36 56  1  0  0  0
 36105  1  0  0  0
 37 39  1  0  0  0
 37 47  1  0  0  0
 37 66  1  0  0  0
 37106  1  0  0  0
 38 43  2  0  0  0
 38 46  1  0  0  0
 38 47  1  0  0  0
 39 64  1  0  0  0
 39 67  2  0  0  0
 40 52  1  0  0  0
 40 53  2  0  0  0
 40 58  1  0  0  0
 41107  1  0  0  0
 41108  1  0  0  0
 41109  1  0  0  0
 41 48  1  0  0  0
 42 43  1  0  0  0
 42 66  1  0  0  0
 42110  1  0  0  0
 42111  1  0  0  0
 43 44  1  0  0  0
 44112  1  0  0  0
 45 46  2  0  0  0
 45113  1  0  0  0
 46114  1  0  0  0
 47115  1  0  0  0
 47116  1  0  0  0
 48 56  1  0  0  0
 48 65  1  0  0  0
 48117  1  0  0  0
 49 50  1  0  0  0
 49 53  1  0  0  0
 49 64  1  0  0  0
 49118  1  0  0  0
 50 51  1  0  0  0
 50119  1  0  0  0
 50120  1  0  0  0
 51 52  1  0  0  0
 51121  1  0  0  0
 51122  1  0  0  0
 52123  1  0  0  0
 52124  1  0  0  0
 53 54  1  0  0  0
 54 55  2  0  0  0
 54125  1  0  0  0
 55 57  1  0  0  0
 55126  1  0  0  0
 56 69  2  0  0  0
 57 58  2  0  0  0
 57127  1  0  0  0
 58128  1  0  0  0
 59 60  1  0  0  0
 59 61  1  0  0  0
 59 62  1  0  0  0
 60129  1  0  0  0
 60130  1  0  0  0
 60131  1  0  0  0
 61132  1  0  0  0
 61133  1  0  0  0
 61134  1  0  0  0
 62135  1  0  0  0
 62136  1  0  0  0
 62137  1  0  0  0
 63 65  1  0  0  0
 63138  1  0  0  0
 63139  1  0  0  0
 63140  1  0  0  0
 64141  1  0  0  0
 65142  1  0  0  0
 68 81  1  0  0  0
 71 73  2  0  0  0
 71 82  1  0  0  0
 71143  1  0  0  0
 72 74  2  0  0  0
 72 82  1  0  0  0
 72144  1  0  0  0
 73 74  1  0  0  0
 73 80  1  0  0  0
 74 83  1  0  0  0
 75145  1  0  0  0
 75146  1  0  0  0
 75147  1  0  0  0
 75 80  1  0  0  0
 76 80  1  0  0  0
 76148  1  0  0  0
 76149  1  0  0  0
 76150  1  0  0  0
 77151  1  0  0  0
 77152  1  0  0  0
 77153  1  0  0  0
 77 81  1  0  0  0
 78 79  1  0  0  0
 78 81  1  0  0  0
 78154  1  0  0  0
 78155  1  0  0  0
 79 82  1  0  0  0
 79156  1  0  0  0
 79157  1  0  0  0
 80158  1  0  0  0
 81159  1  0  0  0
 83160  1  0  0  0
M  ISO  4   1 100  68 101  81 101  83 100
M  END
> <chiral flag>
0

> <version>
0

> <s_m_source_file>
/data/baiqing/PycharmProjects/Reinvent-master-3.2/result/LINK_invent/BTK/process_docking_weight1_custom_sum_contain_oxygen_bond_distance_aromatic_linkinvent_7_9_3/rearranged_h_0105.sdf

> <i_m_source_file_index>
85

> <r_mmod_Potential_Energy-OPLS-2005>
817.44677734375

> <r_mmod_Stretch_Energy-OPLS-2005>
339.984283447266

> <r_mmod_Bend_Energy-OPLS-2005>
389.965301513672

> <r_mmod_Torsional_Energy-OPLS-2005>
285.880432128906

> <r_mmod_Improper_Torsional_Energy-OPLS-2005>
8.31249713897705

> <r_mmod_Van_der_Waal_Energy-OPLS-2005>
109.824653625488

> <r_mmod_Electrostatic_Energy-OPLS-2005>
-386.7041015625

> <r_mmod_Solvation_Energy-OPLS-2005>
-206.48957824707

> <b_mmod_Minimization_Converged-OPLS-2005>
0

> <r_mmod_RMS_Derivative-OPLS-2005>
2.13341546058655

$$$$
85
                    3D
 Structure written by MMmdl.
179187  0  0  1  0            999 V2000
  -30.8274  -14.5485   20.4501 C   0  0  0  0  0  0
  -30.3680  -12.3232   19.4926 C   0  0  0  0  0  0
  -29.4965  -12.4744   18.2373 C   0  0  0  0  0  0
  -28.0166  -12.3685   18.6367 C   0  0  0  0  0  0
  -27.6454  -13.2580   19.8572 C   0  0  2  0  0  0
  -28.6953  -13.2097   20.9946 C   0  0  0  0  0  0
  -25.2491  -13.8319   20.5730 C   0  0  0  0  0  0
  -24.1818  -13.0461   20.9213 C   0  0  0  0  0  0
  -24.6459  -11.6958   20.8756 C   0  0  0  0  0  0
  -23.9138  -10.4299   21.0410 C   0  0  0  0  0  0
  -24.3674   -9.4202   21.9187 C   0  0  0  0  0  0
  -23.6332   -8.2241   22.0764 C   0  0  0  0  0  0
  -22.4316   -8.0274   21.3531 C   0  0  0  0  0  0
  -21.9949   -9.0256   20.4640 C   0  0  0  0  0  0
  -22.7303  -10.2139   20.3055 C   0  0  0  0  0  0
  -21.6842   -6.0736   22.5278 C   0  0  0  0  0  0
  -21.4007   -6.5650   23.8210 C   0  0  0  0  0  0
  -21.3652   -5.6805   24.9176 C   0  0  0  0  0  0
  -21.6052   -4.3074   24.7224 C   0  0  0  0  0  0
  -21.8840   -3.8146   23.4349 C   0  0  0  0  0  0
  -21.9191   -4.6956   22.3399 C   0  0  0  0  0  0
  -22.7822  -13.5171   21.1821 C   0  0  0  0  0  0
  -22.1660   -4.2141   21.0974 F   0  0  0  0  0  0
  -21.5606   -3.4558   25.7741 F   0  0  0  0  0  0
  -30.0206  -13.4381   20.4127 N   0  0  0  0  0  0
  -26.2974  -12.9578   20.3366 N   0  0  0  0  0  0
  -25.9431  -11.6682   20.5853 N   0  0  0  0  0  0
  -22.0506  -12.8129   22.0426 N   0  0  0  0  0  0
  -25.4078  -15.2037   20.4106 N   0  0  0  0  0  0
  -31.9623  -14.4032   20.0225 O   0  0  0  0  0  0
  -21.6652   -6.8876   21.4240 O   0  0  0  0  0  0
  -22.3474  -14.5444   20.6654 O   0  0  0  0  0  0
  -24.6148  -31.8635   23.2141 C   0  0  0  0  0  0
  -25.9029  -32.4786   23.8409 C   0  0  1  0  0  0
  -27.2083  -27.3897   20.1077 C   0  0  0  0  0  0
  -25.5865  -33.8589   24.2311 N   0  0  0  0  0  0
  -23.3958  -30.4981   21.5604 C   0  0  2  0  0  0
  -24.8357  -28.9605   20.1240 C   0  0  0  0  0  0
  -22.7385  -29.4661   22.5038 C   0  0  0  0  0  0
  -18.0232  -28.1361   22.8534 C   0  0  0  0  0  0
  -24.1473  -36.7327   23.2651 C   0  0  0  0  0  0
  -25.9323  -30.8255   21.3626 C   0  0  0  0  0  0
  -26.0039  -29.4566   20.7104 C   0  0  0  0  0  0
  -27.1924  -28.6828   20.6981 C   0  0  0  0  0  0
  -26.0104  -26.9149   19.5245 C   0  0  0  0  0  0
  -24.8346  -27.6874   19.5304 C   0  0  0  0  0  0
  -23.5986  -29.8334   20.1763 C   0  0  0  0  0  0
  -25.4098  -36.3092   24.0309 C   0  0  1  0  0  0
  -20.5858  -28.3633   23.1371 C   0  0  2  0  0  0
  -20.6763  -26.9368   22.5474 C   0  0  0  0  0  0
  -19.5726  -26.6382   21.5266 C   0  0  0  0  0  0
  -18.1881  -26.7914   22.1654 C   0  0  0  0  0  0
  -19.1504  -28.8815   23.2942 C   0  0  0  0  0  0
  -18.9444  -30.1460   23.8879 C   0  0  0  0  0  0
  -17.6456  -30.6592   24.0557 C   0  0  0  0  0  0
  -25.9026  -34.9446   23.5113 C   0  0  0  0  0  0
  -16.5335  -29.9073   23.6351 C   0  0  0  0  0  0
  -16.7240  -28.6510   23.0330 C   0  0  0  0  0  0
  -26.4477  -31.6568   25.0732 C   0  0  0  0  0  0
  -25.3778  -31.3671   26.1520 C   0  0  0  0  0  0
  -27.0331  -30.3001   24.6120 C   0  0  0  0  0  0
  -27.6005  -32.4350   25.7518 C   0  0  0  0  0  0
  -27.5552  -37.1811   24.8452 C   0  0  0  0  0  0
  -21.4135  -29.2973   22.3757 N   0  0  0  0  0  0
  -26.4260  -37.3789   23.9407 N   0  0  0  0  0  0
  -24.6663  -31.0736   22.1043 N   0  0  0  0  0  0
  -23.4194  -28.8202   23.3051 O   0  0  0  0  0  0
  -28.3749  -26.6365   20.1340 O   0  0  0  0  0  0
  -26.5634  -34.8902   22.4704 O   0  0  0  0  0  0
  -23.5340  -32.1398   23.7560 O   0  0  0  0  0  0
  -29.3419  -16.6811   20.5982 C   0  0  0  0  0  0
  -30.5285  -16.0042   20.8097 C   0  0  0  0  0  0
  -31.5152  -17.0430   21.0554 C   0  0  0  0  0  0
  -30.8813  -18.2655   21.0241 C   0  0  0  0  0  0
  -31.4695  -19.6484   21.1510 C   0  0  0  0  0  0
  -35.2782  -15.9100   24.0791 C   0  0  0  0  0  0
  -33.7254  -16.8515   19.7572 C   0  0  0  0  0  0
  -28.1182  -19.7119   22.5663 C   0  0  0  0  0  0
  -26.4946  -20.3336   20.7901 C   0  0  0  0  0  0
  -33.9618  -16.4853   23.5303 C   0  0  0  0  0  0
  -33.5858  -15.8900   22.1590 C   0  0  0  0  0  0
  -28.6154  -19.1148   20.1446 C   0  0  0  0  0  0
  -28.1094  -24.1611   20.7355 C   0  0  0  0  0  0
  -28.6430  -21.6895   21.0502 C   0  0  0  0  0  0
  -28.3880  -25.2615   19.6575 C   0  0  0  0  0  0
  -33.0480  -16.9265   21.1460 C   0  0  2  0  0  0
  -28.0063  -20.2227   21.1107 C   0  0  0  0  0  0
  -29.5590  -18.0677   20.6423 N   0  0  0  0  0  0
  -27.9947  -22.7508   20.2049 N   0  3  0  0  0  0
  -31.4218  -12.2657   19.2163 H   0  0  0  0  0  0
  -30.1641  -11.3643   19.9726 H   0  0  0  0  0  0
  -29.7405  -11.6992   17.5111 H   0  0  0  0  0  0
  -29.6947  -13.4293   17.7462 H   0  0  0  0  0  0
  -27.8138  -11.3208   18.8671 H   0  0  0  0  0  0
  -27.3851  -12.6205   17.7856 H   0  0  0  0  0  0
  -27.6341  -14.2801   19.4793 H   0  0  0  0  0  0
  -28.6789  -12.2441   21.5027 H   0  0  0  0  0  0
  -28.4815  -13.9641   21.7523 H   0  0  0  0  0  0
  -25.2843   -9.5659   22.4749 H   0  0  0  0  0  0
  -24.0009   -7.4633   22.7527 H   0  0  0  0  0  0
  -21.0854   -8.8773   19.8977 H   0  0  0  0  0  0
  -22.3756  -10.9646   19.6134 H   0  0  0  0  0  0
  -21.2030   -7.6165   23.9695 H   0  0  0  0  0  0
  -21.1438   -6.0543   25.9062 H   0  0  0  0  0  0
  -22.0640   -2.7604   23.2862 H   0  0  0  0  0  0
  -22.4094  -11.9784   22.4801 H   0  0  0  0  0  0
  -21.1107  -13.1091   22.2593 H   0  0  0  0  0  0
  -24.6478  -15.8625   20.5448 H   0  0  0  0  0  0
  -26.2532  -15.6447   20.0764 H   0  0  0  0  0  0
  -26.7059  -32.5496   23.1136 H   0  0  0  0  0  0
  -24.9923  -33.9754   25.0381 H   0  0  0  0  0  0
  -22.6792  -31.3119   21.4311 H   0  0  0  0  0  0
  -23.3698  -35.9688   23.3311 H   0  0  0  0  0  0
  -24.3550  -36.8988   22.2072 H   0  0  0  0  0  0
  -23.7288  -37.6539   23.6716 H   0  0  0  0  0  0
  -26.0317  -31.5862   20.5905 H   0  0  0  0  0  0
  -26.8268  -30.8868   21.9745 H   0  0  0  0  0  0
  -28.0918  -29.0705   21.1553 H   0  0  0  0  0  0
  -25.9331  -25.9430   19.0659 H   0  0  0  0  0  0
  -23.9309  -27.2898   19.0875 H   0  0  0  0  0  0
  -23.6996  -30.6136   19.4232 H   0  0  0  0  0  0
  -22.7169  -29.2583   19.8880 H   0  0  0  0  0  0
  -25.1254  -36.1941   25.0787 H   0  0  0  0  0  0
  -20.9917  -28.3248   24.1501 H   0  0  0  0  0  0
  -20.5736  -26.2217   23.3662 H   0  0  0  0  0  0
  -21.6612  -26.7451   22.1190 H   0  0  0  0  0  0
  -19.6900  -25.6303   21.1257 H   0  0  0  0  0  0
  -19.6701  -27.3230   20.6831 H   0  0  0  0  0  0
  -17.4174  -26.6690   21.4018 H   0  0  0  0  0  0
  -18.0234  -26.0045   22.9045 H   0  0  0  0  0  0
  -19.7935  -30.7309   24.2188 H   0  0  0  0  0  0
  -17.4994  -31.6274   24.5168 H   0  0  0  0  0  0
  -15.5319  -30.2932   23.7752 H   0  0  0  0  0  0
  -15.8637  -28.0868   22.6952 H   0  0  0  0  0  0
  -24.5960  -30.6957   25.7963 H   0  0  0  0  0  0
  -24.8940  -32.2790   26.5016 H   0  0  0  0  0  0
  -25.8197  -30.8911   27.0271 H   0  0  0  0  0  0
  -26.2902  -29.6746   24.1162 H   0  0  0  0  0  0
  -27.4062  -29.7252   25.4602 H   0  0  0  0  0  0
  -27.8711  -30.4293   23.9273 H   0  0  0  0  0  0
  -27.2562  -33.3653   26.2065 H   0  0  0  0  0  0
  -28.3860  -32.6931   25.0396 H   0  0  0  0  0  0
  -28.0598  -31.8504   26.5511 H   0  0  0  0  0  0
  -28.2544  -38.0134   24.7459 H   0  0  0  0  0  0
  -28.1076  -36.2640   24.6301 H   0  0  0  0  0  0
  -27.2249  -37.1457   25.8855 H   0  0  0  0  0  0
  -20.9289  -29.8702   21.6996 H   0  0  0  0  0  0
  -26.0127  -38.2845   24.1461 H   0  0  0  0  0  0
  -28.3820  -16.2983   20.2860 H   0  0  0  0  0  0
  -32.4520  -19.6610   21.6140 H   0  0  0  0  0  0
  -30.8864  -20.2851   21.8060 H   0  0  0  0  0  0
  -31.5595  -20.1319   20.1762 H   0  0  0  0  0  0
  -35.5008  -16.3139   25.0660 H   0  0  0  0  0  0
  -36.1247  -16.1620   23.4389 H   0  0  0  0  0  0
  -35.2327  -14.8237   24.1678 H   0  0  0  0  0  0
  -33.5914  -15.9039   19.2441 H   0  0  0  0  0  0
  -34.8019  -16.9933   19.8468 H   0  0  0  0  0  0
  -33.3499  -17.6319   19.0951 H   0  0  0  0  0  0
  -27.6796  -18.7208   22.6754 H   0  0  0  0  0  0
  -27.6054  -20.3700   23.2664 H   0  0  0  0  0  0
  -29.1519  -19.6295   22.9014 H   0  0  0  0  0  0
  -25.9851  -19.3893   20.9866 H   0  0  0  0  0  0
  -26.3227  -20.5607   19.7358 H   0  0  0  0  0  0
  -26.0048  -21.0984   21.3966 H   0  0  0  0  0  0
  -34.0682  -17.5711   23.4883 H   0  0  0  0  0  0
  -33.1448  -16.3048   24.2297 H   0  0  0  0  0  0
  -32.8955  -15.0598   22.3012 H   0  0  0  0  0  0
  -34.4760  -15.4337   21.7264 H   0  0  0  0  0  0
  -29.0727  -19.5915   19.2779 H   0  0  0  0  0  0
  -27.7816  -18.5556   19.7178 H   0  0  0  0  0  0
  -27.2097  -24.3910   21.3139 H   0  0  0  0  0  0
  -28.9344  -24.2153   21.4468 H   0  0  0  0  0  0
  -29.6905  -21.6656   20.7684 H   0  0  0  0  0  0
  -28.6209  -22.0907   22.0642 H   0  0  0  0  0  0
  -27.7790  -25.1295   18.7638 H   0  0  0  0  0  0
  -29.4039  -25.0907   19.3030 H   0  0  0  0  0  0
  -33.4208  -17.8772   21.5025 H   0  0  0  0  0  0
  -28.3990  -22.7101   19.2808 H   0  0  0  0  0  0
  -27.0159  -22.5342   20.1072 H   0  0  0  0  0  0
  1 25  1  0  0  0
  1 30  2  0  0  0
  1 72  1  0  0  0
  2  3  1  0  0  0
  2 25  1  0  0  0
  2 90  1  0  0  0
  2 91  1  0  0  0
  3  4  1  0  0  0
  3 92  1  0  0  0
  3 93  1  0  0  0
  4  5  1  0  0  0
  4 94  1  0  0  0
  4 95  1  0  0  0
  5  6  1  0  0  0
  5 26  1  0  0  0
  5 96  1  0  0  0
  6 25  1  0  0  0
  6 97  1  0  0  0
  6 98  1  0  0  0
  7  8  2  0  0  0
  7 26  1  0  0  0
  7 29  1  0  0  0
  8  9  1  0  0  0
  8 22  1  0  0  0
  9 10  1  0  0  0
  9 27  2  0  0  0
 10 11  2  0  0  0
 10 15  1  0  0  0
 11 12  1  0  0  0
 11 99  1  0  0  0
 12 13  2  0  0  0
 12100  1  0  0  0
 13 14  1  0  0  0
 13 31  1  0  0  0
 14 15  2  0  0  0
 14101  1  0  0  0
 15102  1  0  0  0
 16 17  2  0  0  0
 16 21  1  0  0  0
 16 31  1  0  0  0
 17 18  1  0  0  0
 17103  1  0  0  0
 18 19  2  0  0  0
 18104  1  0  0  0
 19 20  1  0  0  0
 19 24  1  0  0  0
 20 21  2  0  0  0
 20105  1  0  0  0
 21 23  1  0  0  0
 22 28  1  0  0  0
 22 32  2  0  0  0
 26 27  1  0  0  0
 28106  1  0  0  0
 28107  1  0  0  0
 29108  1  0  0  0
 29109  1  0  0  0
 33 34  1  0  0  0
 33 66  1  0  0  0
 33 70  2  0  0  0
 34 36  1  0  0  0
 34 59  1  0  0  0
 34110  1  0  0  0
 35 44  2  0  0  0
 35 45  1  0  0  0
 35 68  1  0  0  0
 36 56  1  0  0  0
 36111  1  0  0  0
 37 39  1  0  0  0
 37 47  1  0  0  0
 37 66  1  0  0  0
 37112  1  0  0  0
 38 43  2  0  0  0
 38 46  1  0  0  0
 38 47  1  0  0  0
 39 64  1  0  0  0
 39 67  2  0  0  0
 40 52  1  0  0  0
 40 53  2  0  0  0
 40 58  1  0  0  0
 41113  1  0  0  0
 41114  1  0  0  0
 41115  1  0  0  0
 41 48  1  0  0  0
 42 43  1  0  0  0
 42 66  1  0  0  0
 42116  1  0  0  0
 42117  1  0  0  0
 43 44  1  0  0  0
 44118  1  0  0  0
 45 46  2  0  0  0
 45119  1  0  0  0
 46120  1  0  0  0
 47121  1  0  0  0
 47122  1  0  0  0
 48 56  1  0  0  0
 48 65  1  0  0  0
 48123  1  0  0  0
 49 50  1  0  0  0
 49 53  1  0  0  0
 49 64  1  0  0  0
 49124  1  0  0  0
 50 51  1  0  0  0
 50125  1  0  0  0
 50126  1  0  0  0
 51 52  1  0  0  0
 51127  1  0  0  0
 51128  1  0  0  0
 52129  1  0  0  0
 52130  1  0  0  0
 53 54  1  0  0  0
 54 55  2  0  0  0
 54131  1  0  0  0
 55 57  1  0  0  0
 55132  1  0  0  0
 56 69  2  0  0  0
 57 58  2  0  0  0
 57133  1  0  0  0
 58134  1  0  0  0
 59 60  1  0  0  0
 59 61  1  0  0  0
 59 62  1  0  0  0
 60135  1  0  0  0
 60136  1  0  0  0
 60137  1  0  0  0
 61138  1  0  0  0
 61139  1  0  0  0
 61140  1  0  0  0
 62141  1  0  0  0
 62142  1  0  0  0
 62143  1  0  0  0
 63 65  1  0  0  0
 63144  1  0  0  0
 63145  1  0  0  0
 63146  1  0  0  0
 64147  1  0  0  0
 65148  1  0  0  0
 68 85  1  0  0  0
 71 72  2  0  0  0
 71 88  1  0  0  0
 71149  1  0  0  0
 72 73  1  0  0  0
 73 74  2  0  0  0
 73 86  1  0  0  0
 74 75  1  0  0  0
 74 88  1  0  0  0
 75150  1  0  0  0
 75151  1  0  0  0
 75152  1  0  0  0
 76 80  1  0  0  0
 76153  1  0  0  0
 76154  1  0  0  0
 76155  1  0  0  0
 77156  1  0  0  0
 77157  1  0  0  0
 77158  1  0  0  0
 77 86  1  0  0  0
 78159  1  0  0  0
 78160  1  0  0  0
 78161  1  0  0  0
 78 87  1  0  0  0
 79 87  1  0  0  0
 79162  1  0  0  0
 79163  1  0  0  0
 79164  1  0  0  0
 80 81  1  0  0  0
 80165  1  0  0  0
 80166  1  0  0  0
 81 86  1  0  0  0
 81167  1  0  0  0
 81168  1  0  0  0
 82 87  1  0  0  0
 82 88  1  0  0  0
 82169  1  0  0  0
 82170  1  0  0  0
 83 85  1  0  0  0
 83 89  1  0  0  0
 83171  1  0  0  0
 83172  1  0  0  0
 84 87  1  0  0  0
 84 89  1  0  0  0
 84173  1  0  0  0
 84174  1  0  0  0
 85175  1  0  0  0
 85176  1  0  0  0
 86177  1  0  0  0
 89178  1  0  0  0
 89179  1  0  0  0
M  CHG  1  89   1
M  ISO  4   1 100  68 101  72 100  85 101
M  END
> <chiral flag>
0

> <version>
0

> <s_m_source_file>
/data/baiqing/PycharmProjects/Reinvent-master-3.2/result/LINK_invent/BTK/process_docking_weight1_custom_sum_contain_oxygen_bond_distance_aromatic_linkinvent_7_9_3/rearranged_h_0105.sdf

> <i_m_source_file_index>
86

> <r_mmod_Potential_Energy-OPLS-2005>
132.850769042969

> <r_mmod_Stretch_Energy-OPLS-2005>
69.25244140625

> <r_mmod_Bend_Energy-OPLS-2005>
198.694458007812

> <r_mmod_Torsional_Energy-OPLS-2005>
267.210601806641

> <r_mmod_Improper_Torsional_Energy-OPLS-2005>
8.58450031280518

> <r_mmod_Van_der_Waal_Energy-OPLS-2005>
150.874099731445

> <r_mmod_Electrostatic_Energy-OPLS-2005>
-166.933395385742

> <r_mmod_Solvation_Energy-OPLS-2005>
-441.571105957031

> <b_mmod_Minimization_Converged-OPLS-2005>
0

> <r_mmod_RMS_Derivative-OPLS-2005>
5.84518671035767

$$$$
86
                    3D
 Structure written by MMmdl.
152160  0  0  1  0            999 V2000
  -30.4745  -15.1985   20.3791 C   0  0  0  0  0  0
  -30.4383  -12.7633   19.5162 C   0  0  0  0  0  0
  -29.5302  -12.5610   18.2786 C   0  0  0  0  0  0
  -28.0758  -12.2998   18.7075 C   0  0  0  0  0  0
  -27.6143  -13.2706   19.8236 C   0  0  2  0  0  0
  -28.6520  -13.4227   20.9559 C   0  0  0  0  0  0
  -25.2399  -13.8244   20.5742 C   0  0  0  0  0  0
  -24.1748  -13.0437   20.9258 C   0  0  0  0  0  0
  -24.6399  -11.6934   20.8767 C   0  0  0  0  0  0
  -23.9096  -10.4294   21.0410 C   0  0  0  0  0  0
  -24.3639   -9.4205   21.9186 C   0  0  0  0  0  0
  -23.6306   -8.2244   22.0756 C   0  0  0  0  0  0
  -22.4287   -8.0285   21.3546 C   0  0  0  0  0  0
  -21.9930   -9.0260   20.4646 C   0  0  0  0  0  0
  -22.7267  -10.2135   20.3055 C   0  0  0  0  0  0
  -21.6855   -6.0740   22.5278 C   0  0  0  0  0  0
  -21.4016   -6.5642   23.8213 C   0  0  0  0  0  0
  -21.3659   -5.6792   24.9173 C   0  0  0  0  0  0
  -21.6044   -4.3056   24.7221 C   0  0  0  0  0  0
  -21.8819   -3.8149   23.4342 C   0  0  0  0  0  0
  -21.9194   -4.6967   22.3399 C   0  0  0  0  0  0
  -22.7764  -13.5192   21.1900 C   0  0  0  0  0  0
  -22.1662   -4.2152   21.0977 F   0  0  0  0  0  0
  -21.5628   -3.4539   25.7735 F   0  0  0  0  0  0
  -29.8911  -13.9071   20.3285 N   0  0  0  0  0  0
  -26.2829  -12.9515   20.3228 N   0  0  0  0  0  0
  -25.9337  -11.6625   20.5734 N   0  0  0  0  0  0
  -22.0424  -12.8172   22.0455 N   0  0  0  0  0  0
  -25.4031  -15.1979   20.4168 N   0  0  0  0  0  0
  -31.6960  -15.1934   20.1765 O   0  0  0  0  0  0
  -21.6646   -6.8885   21.4241 O   0  0  0  0  0  0
  -22.3442  -14.5490   20.6736 O   0  0  0  0  0  0
  -24.6601  -31.8279   23.1752 C   0  0  0  0  0  0
  -25.9299  -32.4613   23.8198 C   0  0  1  0  0  0
  -27.2138  -26.9641   20.1750 C   0  0  0  0  0  0
  -25.5984  -33.8425   24.2106 N   0  0  0  0  0  0
  -23.4725  -30.4433   21.5242 C   0  0  2  0  0  0
  -24.9247  -28.8413   20.1127 C   0  0  0  0  0  0
  -22.7651  -29.4473   22.4801 C   0  0  0  0  0  0
  -18.0319  -28.1413   22.8472 C   0  0  0  0  0  0
  -24.1489  -36.7214   23.2645 C   0  0  0  0  0  0
  -26.0410  -30.6469   21.4001 C   0  0  0  0  0  0
  -26.1094  -29.2409   20.7437 C   0  0  0  0  0  0
  -27.2509  -28.3236   20.7517 C   0  0  0  0  0  0
  -25.9992  -26.7148   19.4941 C   0  0  0  0  0  0
  -24.8932  -27.5972   19.4681 C   0  0  0  0  0  0
  -23.7097  -29.7643   20.1486 C   0  0  0  0  0  0
  -25.4128  -36.2981   24.0304 C   0  0  1  0  0  0
  -20.5943  -28.3754   23.1196 C   0  0  2  0  0  0
  -20.6799  -26.9441   22.5402 C   0  0  0  0  0  0
  -19.5770  -26.6383   21.5218 C   0  0  0  0  0  0
  -18.1951  -26.7949   22.1624 C   0  0  0  0  0  0
  -19.1580  -28.8903   23.2823 C   0  0  0  0  0  0
  -18.9493  -30.1495   23.8857 C   0  0  0  0  0  0
  -17.6486  -30.6604   24.0557 C   0  0  0  0  0  0
  -25.9094  -34.9363   23.5021 C   0  0  0  0  0  0
  -16.5376  -29.9092   23.6345 C   0  0  0  0  0  0
  -16.7300  -28.6511   23.0367 C   0  0  0  0  0  0
  -26.4564  -31.6542   25.0708 C   0  0  0  0  0  0
  -25.3698  -31.3782   26.1368 C   0  0  0  0  0  0
  -27.0458  -30.2916   24.6410 C   0  0  0  0  0  0
  -27.6061  -32.4344   25.7509 C   0  0  0  0  0  0
  -27.5571  -37.1760   24.8464 C   0  0  0  0  0  0
  -21.4323  -29.3054   22.3549 N   0  0  0  0  0  0
  -26.4273  -37.3718   23.9416 N   0  0  0  0  0  0
  -24.7459  -30.9980   22.0870 N   0  0  0  0  0  0
  -23.4215  -28.8033   23.3020 O   0  0  0  0  0  0
  -28.2050  -25.8585   20.2466 O   0  0  0  0  0  0
  -26.5697  -34.8893   22.4612 O   0  0  0  0  0  0
  -23.5678  -32.1228   23.6867 O   0  0  0  0  0  0
  -28.8530  -21.8594   19.0760 C   0  0  0  0  0  0
  -29.2337  -20.4298   19.1249 C   0  0  0  0  0  0
  -29.4100  -19.6398   20.3345 C   0  0  0  0  0  0
  -28.6068  -22.7376   20.2029 C   0  0  0  0  0  0
  -29.1324  -20.5836   21.4222 C   0  0  0  0  0  0
  -29.4842  -19.7395   17.7977 C   0  0  0  0  0  0
  -29.2901  -20.0878   22.8451 C   0  0  0  0  0  0
  -30.1639  -18.0644   20.4412 C   0  0  0  0  0  0
  -27.8028  -24.2822   20.1205 C   0  0  0  0  0  0
  -28.7472  -21.9593   21.3560 N   0  0  0  0  0  0
  -29.7330  -16.4712   20.4544 N   0  0  0  0  0  0
  -31.4600  -12.9550   19.1849 H   0  0  0  0  0  0
  -30.4915  -11.8515   20.1136 H   0  0  0  0  0  0
  -29.8961  -11.7340   17.6688 H   0  0  0  0  0  0
  -29.5713  -13.4503   17.6475 H   0  0  0  0  0  0
  -28.0207  -11.2730   19.0713 H   0  0  0  0  0  0
  -27.4063  -12.3558   17.8482 H   0  0  0  0  0  0
  -27.5366  -14.2430   19.3357 H   0  0  0  0  0  0
  -28.8059  -12.4825   21.4875 H   0  0  0  0  0  0
  -28.3058  -14.1468   21.6950 H   0  0  0  0  0  0
  -25.2782   -9.5678   22.4766 H   0  0  0  0  0  0
  -24.0009   -7.4634   22.7478 H   0  0  0  0  0  0
  -21.0862   -8.8785   19.8951 H   0  0  0  0  0  0
  -22.3728  -10.9676   19.6165 H   0  0  0  0  0  0
  -21.2010   -7.6151   23.9715 H   0  0  0  0  0  0
  -21.1480   -6.0524   25.9076 H   0  0  0  0  0  0
  -22.0599   -2.7612   23.2840 H   0  0  0  0  0  0
  -22.4060  -11.9841   22.4842 H   0  0  0  0  0  0
  -21.1033  -13.1172   22.2659 H   0  0  0  0  0  0
  -24.6311  -15.8461   20.5292 H   0  0  0  0  0  0
  -26.2409  -15.6404   20.0633 H   0  0  0  0  0  0
  -26.7365  -32.5165   23.0912 H   0  0  0  0  0  0
  -25.0096  -33.9512   25.0233 H   0  0  0  0  0  0
  -22.7843  -31.2747   21.3577 H   0  0  0  0  0  0
  -23.3766  -35.9528   23.3275 H   0  0  0  0  0  0
  -24.3571  -36.8886   22.2066 H   0  0  0  0  0  0
  -23.7226  -37.6388   23.6716 H   0  0  0  0  0  0
  -26.2163  -31.3898   20.6207 H   0  0  0  0  0  0
  -26.9037  -30.7035   22.0521 H   0  0  0  0  0  0
  -28.1465  -28.6271   21.2753 H   0  0  0  0  0  0
  -25.8561  -25.7715   18.9912 H   0  0  0  0  0  0
  -23.9934  -27.2866   18.9550 H   0  0  0  0  0  0
  -23.8629  -30.5350   19.3923 H   0  0  0  0  0  0
  -22.8197  -29.2182   19.8306 H   0  0  0  0  0  0
  -25.1321  -36.1781   25.0794 H   0  0  0  0  0  0
  -21.0033  -28.3359   24.1319 H   0  0  0  0  0  0
  -20.5691  -26.2374   23.3639 H   0  0  0  0  0  0
  -21.6662  -26.7429   22.1201 H   0  0  0  0  0  0
  -19.6930  -25.6283   21.1276 H   0  0  0  0  0  0
  -19.6707  -27.3169   20.6728 H   0  0  0  0  0  0
  -17.4222  -26.6695   21.4026 H   0  0  0  0  0  0
  -18.0343  -26.0104   22.9030 H   0  0  0  0  0  0
  -19.7968  -30.7324   24.2208 H   0  0  0  0  0  0
  -17.5038  -31.6281   24.5166 H   0  0  0  0  0  0
  -15.5376  -30.2982   23.7698 H   0  0  0  0  0  0
  -15.8698  -28.0815   22.7111 H   0  0  0  0  0  0
  -24.5905  -30.7103   25.7682 H   0  0  0  0  0  0
  -24.8861  -32.2978   26.4670 H   0  0  0  0  0  0
  -25.7939  -30.9038   27.0227 H   0  0  0  0  0  0
  -26.3122  -29.6600   24.1388 H   0  0  0  0  0  0
  -27.3981  -29.7269   25.5052 H   0  0  0  0  0  0
  -27.9063  -30.4116   23.9824 H   0  0  0  0  0  0
  -27.2636  -33.3688   26.1970 H   0  0  0  0  0  0
  -28.3935  -32.6834   25.0381 H   0  0  0  0  0  0
  -28.0659  -31.8546   26.5522 H   0  0  0  0  0  0
  -28.2558  -38.0086   24.7540 H   0  0  0  0  0  0
  -28.1095  -36.2615   24.6250 H   0  0  0  0  0  0
  -27.2293  -37.1353   25.8867 H   0  0  0  0  0  0
  -20.9569  -29.8742   21.6682 H   0  0  0  0  0  0
  -26.0120  -38.2769   24.1450 H   0  0  0  0  0  0
  -28.7104  -22.3024   18.0989 H   0  0  0  0  0  0
  -28.9763  -20.2519   16.9803 H   0  0  0  0  0  0
  -29.1194  -18.7123   17.8173 H   0  0  0  0  0  0
  -30.5511  -19.7204   17.5749 H   0  0  0  0  0  0
  -30.3137  -20.2401   23.1873 H   0  0  0  0  0  0
  -29.0577  -19.0255   22.9184 H   0  0  0  0  0  0
  -28.6215  -20.6167   23.5246 H   0  0  0  0  0  0
  -30.7751  -18.1469   21.3402 H   0  0  0  0  0  0
  -30.9087  -18.0979   19.6455 H   0  0  0  0  0  0
  -26.9698  -24.1711   20.8151 H   0  0  0  0  0  0
  -27.3416  -24.2211   19.1362 H   0  0  0  0  0  0
  -28.7395  -16.3260   20.5543 H   0  0  0  0  0  0
  1 25  1  0  0  0
  1 30  2  0  0  0
  1 81  1  0  0  0
  2  3  1  0  0  0
  2 25  1  0  0  0
  2 82  1  0  0  0
  2 83  1  0  0  0
  3  4  1  0  0  0
  3 84  1  0  0  0
  3 85  1  0  0  0
  4  5  1  0  0  0
  4 86  1  0  0  0
  4 87  1  0  0  0
  5  6  1  0  0  0
  5 26  1  0  0  0
  5 88  1  0  0  0
  6 25  1  0  0  0
  6 89  1  0  0  0
  6 90  1  0  0  0
  7  8  2  0  0  0
  7 26  1  0  0  0
  7 29  1  0  0  0
  8  9  1  0  0  0
  8 22  1  0  0  0
  9 10  1  0  0  0
  9 27  2  0  0  0
 10 11  2  0  0  0
 10 15  1  0  0  0
 11 12  1  0  0  0
 11 91  1  0  0  0
 12 13  2  0  0  0
 12 92  1  0  0  0
 13 14  1  0  0  0
 13 31  1  0  0  0
 14 15  2  0  0  0
 14 93  1  0  0  0
 15 94  1  0  0  0
 16 17  2  0  0  0
 16 21  1  0  0  0
 16 31  1  0  0  0
 17 18  1  0  0  0
 17 95  1  0  0  0
 18 19  2  0  0  0
 18 96  1  0  0  0
 19 20  1  0  0  0
 19 24  1  0  0  0
 20 21  2  0  0  0
 20 97  1  0  0  0
 21 23  1  0  0  0
 22 28  1  0  0  0
 22 32  2  0  0  0
 26 27  1  0  0  0
 28 98  1  0  0  0
 28 99  1  0  0  0
 29100  1  0  0  0
 29101  1  0  0  0
 33 34  1  0  0  0
 33 66  1  0  0  0
 33 70  2  0  0  0
 34 36  1  0  0  0
 34 59  1  0  0  0
 34102  1  0  0  0
 35 44  2  0  0  0
 35 45  1  0  0  0
 35 68  1  0  0  0
 36 56  1  0  0  0
 36103  1  0  0  0
 37 39  1  0  0  0
 37 47  1  0  0  0
 37 66  1  0  0  0
 37104  1  0  0  0
 38 43  2  0  0  0
 38 46  1  0  0  0
 38 47  1  0  0  0
 39 64  1  0  0  0
 39 67  2  0  0  0
 40 52  1  0  0  0
 40 53  2  0  0  0
 40 58  1  0  0  0
 41105  1  0  0  0
 41106  1  0  0  0
 41107  1  0  0  0
 41 48  1  0  0  0
 42 43  1  0  0  0
 42 66  1  0  0  0
 42108  1  0  0  0
 42109  1  0  0  0
 43 44  1  0  0  0
 44110  1  0  0  0
 45 46  2  0  0  0
 45111  1  0  0  0
 46112  1  0  0  0
 47113  1  0  0  0
 47114  1  0  0  0
 48 56  1  0  0  0
 48 65  1  0  0  0
 48115  1  0  0  0
 49 50  1  0  0  0
 49 53  1  0  0  0
 49 64  1  0  0  0
 49116  1  0  0  0
 50 51  1  0  0  0
 50117  1  0  0  0
 50118  1  0  0  0
 51 52  1  0  0  0
 51119  1  0  0  0
 51120  1  0  0  0
 52121  1  0  0  0
 52122  1  0  0  0
 53 54  1  0  0  0
 54 55  2  0  0  0
 54123  1  0  0  0
 55 57  1  0  0  0
 55124  1  0  0  0
 56 69  2  0  0  0
 57 58  2  0  0  0
 57125  1  0  0  0
 58126  1  0  0  0
 59 60  1  0  0  0
 59 61  1  0  0  0
 59 62  1  0  0  0
 60127  1  0  0  0
 60128  1  0  0  0
 60129  1  0  0  0
 61130  1  0  0  0
 61131  1  0  0  0
 61132  1  0  0  0
 62133  1  0  0  0
 62134  1  0  0  0
 62135  1  0  0  0
 63 65  1  0  0  0
 63136  1  0  0  0
 63137  1  0  0  0
 63138  1  0  0  0
 64139  1  0  0  0
 65140  1  0  0  0
 68 79  1  0  0  0
 71 72  2  0  0  0
 71 74  1  0  0  0
 71141  1  0  0  0
 72 73  1  0  0  0
 72 76  1  0  0  0
 73 75  2  0  0  0
 73 78  1  0  0  0
 74 79  1  0  0  0
 74 80  2  0  0  0
 75 77  1  0  0  0
 75 80  1  0  0  0
 76142  1  0  0  0
 76143  1  0  0  0
 76144  1  0  0  0
 77145  1  0  0  0
 77146  1  0  0  0
 77147  1  0  0  0
 78 81  1  0  0  0
 78148  1  0  0  0
 78149  1  0  0  0
 79150  1  0  0  0
 79151  1  0  0  0
 81152  1  0  0  0
M  ISO  4   1 100  68 101  79 101  81 100
M  END
> <chiral flag>
0

> <version>
0

> <s_m_source_file>
/data/baiqing/PycharmProjects/Reinvent-master-3.2/result/LINK_invent/BTK/process_docking_weight1_custom_sum_contain_oxygen_bond_distance_aromatic_linkinvent_7_9_3/rearranged_h_0105.sdf

> <i_m_source_file_index>
87

> <r_mmod_Potential_Energy-OPLS-2005>
956.262268066406

> <r_mmod_Stretch_Energy-OPLS-2005>
469.4150390625

> <r_mmod_Bend_Energy-OPLS-2005>
420.689422607422

> <r_mmod_Torsional_Energy-OPLS-2005>
226.635269165039

> <r_mmod_Improper_Torsional_Energy-OPLS-2005>
9.87947177886963

> <r_mmod_Van_der_Waal_Energy-OPLS-2005>
133.180572509766

> <r_mmod_Electrostatic_Energy-OPLS-2005>
-471.0263671875

> <r_mmod_Solvation_Energy-OPLS-2005>
-231.963500976562

> <b_mmod_Minimization_Converged-OPLS-2005>
0

> <r_mmod_RMS_Derivative-OPLS-2005>
0.527208030223846

$$$$
87
                    3D
 Structure written by MMmdl.
149156  0  0  1  0            999 V2000
  -30.2909  -15.5468   20.3700 C   0  0  0  0  0  0
  -30.4273  -13.0087   19.5700 C   0  0  0  0  0  0
  -29.5586  -12.6454   18.3337 C   0  0  0  0  0  0
  -28.1215  -12.2972   18.7586 C   0  0  0  0  0  0
  -27.5936  -13.2972   19.8132 C   0  0  2  0  0  0
  -28.5975  -13.5857   20.9471 C   0  0  0  0  0  0
  -25.2303  -13.8291   20.5729 C   0  0  0  0  0  0
  -24.1678  -13.0442   20.9286 C   0  0  0  0  0  0
  -24.6377  -11.6966   20.8768 C   0  0  0  0  0  0
  -23.9102  -10.4297   21.0413 C   0  0  0  0  0  0
  -24.3631   -9.4217   21.9216 C   0  0  0  0  0  0
  -23.6295   -8.2252   22.0773 C   0  0  0  0  0  0
  -22.4271   -8.0277   21.3562 C   0  0  0  0  0  0
  -21.9925   -9.0255   20.4659 C   0  0  0  0  0  0
  -22.7269  -10.2142   20.3076 C   0  0  0  0  0  0
  -21.6849   -6.0743   22.5288 C   0  0  0  0  0  0
  -21.4012   -6.5654   23.8229 C   0  0  0  0  0  0
  -21.3657   -5.6801   24.9184 C   0  0  0  0  0  0
  -21.6031   -4.3062   24.7220 C   0  0  0  0  0  0
  -21.8819   -3.8165   23.4337 C   0  0  0  0  0  0
  -21.9193   -4.6975   22.3402 C   0  0  0  0  0  0
  -22.7702  -13.5192   21.1902 C   0  0  0  0  0  0
  -22.1656   -4.2178   21.0964 F   0  0  0  0  0  0
  -21.5625   -3.4525   25.7730 F   0  0  0  0  0  0
  -29.7884  -14.1845   20.3129 N   0  0  0  0  0  0
  -26.2711  -12.9591   20.3132 N   0  0  0  0  0  0
  -25.9309  -11.6681   20.5657 N   0  0  0  0  0  0
  -22.0289  -12.8226   22.0449 N   0  0  0  0  0  0
  -25.3868  -15.2018   20.4214 N   0  0  0  0  0  0
  -31.5258  -15.5178   20.2096 O   0  0  0  0  0  0
  -21.6628   -6.8876   21.4245 O   0  0  0  0  0  0
  -22.3412  -14.5464   20.6686 O   0  0  0  0  0  0
  -24.6854  -31.8023   23.1516 C   0  0  0  0  0  0
  -25.9437  -32.4474   23.8085 C   0  0  1  0  0  0
  -27.2046  -26.7196   20.2329 C   0  0  0  0  0  0
  -25.6033  -33.8292   24.2019 N   0  0  0  0  0  0
  -23.5082  -30.4055   21.5045 C   0  0  2  0  0  0
  -24.9610  -28.7482   20.1224 C   0  0  0  0  0  0
  -22.7762  -29.4342   22.4728 C   0  0  0  0  0  0
  -18.0325  -28.1484   22.8462 C   0  0  0  0  0  0
  -24.1483  -36.7136   23.2636 C   0  0  0  0  0  0
  -26.0855  -30.5486   21.4014 C   0  0  0  0  0  0
  -26.1504  -29.1093   20.7657 C   0  0  0  0  0  0
  -27.2648  -28.1227   20.7841 C   0  0  0  0  0  0
  -25.9879  -26.5602   19.5282 C   0  0  0  0  0  0
  -24.9168  -27.5010   19.4797 C   0  0  0  0  0  0
  -23.7593  -29.7023   20.1386 C   0  0  0  0  0  0
  -25.4118  -36.2875   24.0295 C   0  0  1  0  0  0
  -20.5983  -28.3796   23.1165 C   0  0  2  0  0  0
  -20.6802  -26.9470   22.5402 C   0  0  0  0  0  0
  -19.5773  -26.6431   21.5230 C   0  0  0  0  0  0
  -18.1961  -26.8028   22.1634 C   0  0  0  0  0  0
  -19.1607  -28.8975   23.2787 C   0  0  0  0  0  0
  -18.9522  -30.1566   23.8845 C   0  0  0  0  0  0
  -17.6513  -30.6646   24.0613 C   0  0  0  0  0  0
  -25.9099  -34.9272   23.4974 C   0  0  0  0  0  0
  -16.5397  -29.9159   23.6372 C   0  0  0  0  0  0
  -16.7307  -28.6587   23.0372 C   0  0  0  0  0  0
  -26.4638  -31.6451   25.0680 C   0  0  0  0  0  0
  -25.3732  -31.3765   26.1318 C   0  0  0  0  0  0
  -27.0469  -30.2789   24.6457 C   0  0  0  0  0  0
  -27.6129  -32.4230   25.7517 C   0  0  0  0  0  0
  -27.5533  -37.1724   24.8479 C   0  0  0  0  0  0
  -21.4411  -29.3062   22.3498 N   0  0  0  0  0  0
  -26.4247  -37.3626   23.9408 N   0  0  0  0  0  0
  -24.7841  -30.9499   22.0751 N   0  0  0  0  0  0
  -23.4225  -28.7884   23.2996 O   0  0  0  0  0  0
  -28.1618  -25.5105   20.3141 O   0  0  0  0  0  0
  -26.5695  -34.8861   22.4565 O   0  0  0  0  0  0
  -23.5882  -32.1069   23.6489 O   0  0  0  0  0  0
  -27.3941  -20.0074   21.2821 C   0  0  0  0  0  0
  -27.9857  -20.0093   18.9027 C   0  0  0  0  0  0
  -28.8670  -22.1060   20.3928 C   0  0  0  0  0  0
  -29.6595  -18.6284   20.4690 C   0  0  0  0  0  0
  -27.9170  -23.7806   20.2937 C   0  0  0  0  0  0
  -28.5760  -20.2087   20.3072 C   0  0  0  0  0  0
  -29.4924  -16.8727   20.4329 N   0  0  0  0  0  0
  -31.4384  -13.2492   19.2394 H   0  0  0  0  0  0
  -30.5433  -12.1455   20.2292 H   0  0  0  0  0  0
  -30.0055  -11.8183   17.7827 H   0  0  0  0  0  0
  -29.5433  -13.4946   17.6503 H   0  0  0  0  0  0
  -28.1363  -11.2943   19.1810 H   0  0  0  0  0  0
  -27.4644  -12.2565   17.8897 H   0  0  0  0  0  0
  -27.4741  -14.2291   19.2605 H   0  0  0  0  0  0
  -28.8255  -12.6896   21.5293 H   0  0  0  0  0  0
  -28.1658  -14.3003   21.6481 H   0  0  0  0  0  0
  -25.2772   -9.5673   22.4805 H   0  0  0  0  0  0
  -23.9991   -7.4645   22.7514 H   0  0  0  0  0  0
  -21.0864   -8.8793   19.8982 H   0  0  0  0  0  0
  -22.3742  -10.9667   19.6176 H   0  0  0  0  0  0
  -21.2015   -7.6167   23.9742 H   0  0  0  0  0  0
  -21.1468   -6.0515   25.9082 H   0  0  0  0  0  0
  -22.0600   -2.7617   23.2823 H   0  0  0  0  0  0
  -22.3864  -11.9873   22.4879 H   0  0  0  0  0  0
  -21.0875  -13.1269   22.2584 H   0  0  0  0  0  0
  -24.6078  -15.8367   20.5509 H   0  0  0  0  0  0
  -26.1978  -15.6475   20.0150 H   0  0  0  0  0  0
  -26.7520  -32.4977   23.0816 H   0  0  0  0  0  0
  -25.0280  -33.9325   25.0253 H   0  0  0  0  0  0
  -22.8301  -31.2396   21.3095 H   0  0  0  0  0  0
  -23.3744  -35.9451   23.3297 H   0  0  0  0  0  0
  -24.3562  -36.8784   22.2039 H   0  0  0  0  0  0
  -23.7260  -37.6335   23.6713 H   0  0  0  0  0  0
  -26.2629  -31.2576   20.5924 H   0  0  0  0  0  0
  -26.9505  -30.6397   22.0456 H   0  0  0  0  0  0
  -28.1703  -28.4035   21.3080 H   0  0  0  0  0  0
  -25.8206  -25.6132   19.0338 H   0  0  0  0  0  0
  -24.0136  -27.2127   18.9632 H   0  0  0  0  0  0
  -23.9461  -30.4569   19.3733 H   0  0  0  0  0  0
  -22.8662  -29.1654   19.8142 H   0  0  0  0  0  0
  -25.1325  -36.1649   25.0778 H   0  0  0  0  0  0
  -21.0076  -28.3438   24.1298 H   0  0  0  0  0  0
  -20.5709  -26.2418   23.3640 H   0  0  0  0  0  0
  -21.6654  -26.7458   22.1212 H   0  0  0  0  0  0
  -19.6920  -25.6333   21.1287 H   0  0  0  0  0  0
  -19.6754  -27.3220   20.6752 H   0  0  0  0  0  0
  -17.4231  -26.6788   21.4039 H   0  0  0  0  0  0
  -18.0343  -26.0211   22.9065 H   0  0  0  0  0  0
  -19.7991  -30.7413   24.2203 H   0  0  0  0  0  0
  -17.5054  -31.6319   24.5237 H   0  0  0  0  0  0
  -15.5397  -30.3057   23.7718 H   0  0  0  0  0  0
  -15.8706  -28.0894   22.7117 H   0  0  0  0  0  0
  -24.6030  -30.6947   25.7711 H   0  0  0  0  0  0
  -24.8778  -32.2942   26.4460 H   0  0  0  0  0  0
  -25.7970  -30.9210   27.0269 H   0  0  0  0  0  0
  -26.3110  -29.6496   24.1437 H   0  0  0  0  0  0
  -27.3925  -29.7147   25.5128 H   0  0  0  0  0  0
  -27.9109  -30.3920   23.9906 H   0  0  0  0  0  0
  -27.2764  -33.3624   26.1904 H   0  0  0  0  0  0
  -28.4104  -32.6587   25.0464 H   0  0  0  0  0  0
  -28.0612  -31.8428   26.5591 H   0  0  0  0  0  0
  -28.2568  -38.0001   24.7458 H   0  0  0  0  0  0
  -28.1022  -36.2529   24.6406 H   0  0  0  0  0  0
  -27.2238  -37.1469   25.8880 H   0  0  0  0  0  0
  -20.9689  -29.8724   21.6591 H   0  0  0  0  0  0
  -26.0090  -38.2667   24.1433 H   0  0  0  0  0  0
  -27.0081  -18.9856   21.2663 H   0  0  0  0  0  0
  -26.5550  -20.6577   21.0183 H   0  0  0  0  0  0
  -27.6594  -20.2527   22.3100 H   0  0  0  0  0  0
  -27.4500  -19.0610   18.8330 H   0  0  0  0  0  0
  -28.7740  -19.9932   18.1509 H   0  0  0  0  0  0
  -27.2758  -20.7926   18.6323 H   0  0  0  0  0  0
  -29.6406  -22.2510   19.6423 H   0  0  0  0  0  0
  -29.4028  -22.1900   21.3386 H   0  0  0  0  0  0
  -30.1969  -18.7848   21.4075 H   0  0  0  0  0  0
  -30.4228  -18.7844   19.7095 H   0  0  0  0  0  0
  -27.2874  -23.6535   19.4154 H   0  0  0  0  0  0
  -27.2087  -23.6801   21.1192 H   0  0  0  0  0  0
  -28.5167  -16.6291   20.5106 H   0  0  0  0  0  0
  1 25  1  0  0  0
  1 30  2  0  0  0
  1 77  1  0  0  0
  2  3  1  0  0  0
  2 25  1  0  0  0
  2 78  1  0  0  0
  2 79  1  0  0  0
  3  4  1  0  0  0
  3 80  1  0  0  0
  3 81  1  0  0  0
  4  5  1  0  0  0
  4 82  1  0  0  0
  4 83  1  0  0  0
  5  6  1  0  0  0
  5 26  1  0  0  0
  5 84  1  0  0  0
  6 25  1  0  0  0
  6 85  1  0  0  0
  6 86  1  0  0  0
  7  8  2  0  0  0
  7 26  1  0  0  0
  7 29  1  0  0  0
  8  9  1  0  0  0
  8 22  1  0  0  0
  9 10  1  0  0  0
  9 27  2  0  0  0
 10 11  2  0  0  0
 10 15  1  0  0  0
 11 12  1  0  0  0
 11 87  1  0  0  0
 12 13  2  0  0  0
 12 88  1  0  0  0
 13 14  1  0  0  0
 13 31  1  0  0  0
 14 15  2  0  0  0
 14 89  1  0  0  0
 15 90  1  0  0  0
 16 17  2  0  0  0
 16 21  1  0  0  0
 16 31  1  0  0  0
 17 18  1  0  0  0
 17 91  1  0  0  0
 18 19  2  0  0  0
 18 92  1  0  0  0
 19 20  1  0  0  0
 19 24  1  0  0  0
 20 21  2  0  0  0
 20 93  1  0  0  0
 21 23  1  0  0  0
 22 28  1  0  0  0
 22 32  2  0  0  0
 26 27  1  0  0  0
 28 94  1  0  0  0
 28 95  1  0  0  0
 29 96  1  0  0  0
 29 97  1  0  0  0
 33 34  1  0  0  0
 33 66  1  0  0  0
 33 70  2  0  0  0
 34 36  1  0  0  0
 34 59  1  0  0  0
 34 98  1  0  0  0
 35 44  2  0  0  0
 35 45  1  0  0  0
 35 68  1  0  0  0
 36 56  1  0  0  0
 36 99  1  0  0  0
 37 39  1  0  0  0
 37 47  1  0  0  0
 37 66  1  0  0  0
 37100  1  0  0  0
 38 43  2  0  0  0
 38 46  1  0  0  0
 38 47  1  0  0  0
 39 64  1  0  0  0
 39 67  2  0  0  0
 40 52  1  0  0  0
 40 53  2  0  0  0
 40 58  1  0  0  0
 41101  1  0  0  0
 41102  1  0  0  0
 41103  1  0  0  0
 41 48  1  0  0  0
 42 43  1  0  0  0
 42 66  1  0  0  0
 42104  1  0  0  0
 42105  1  0  0  0
 43 44  1  0  0  0
 44106  1  0  0  0
 45 46  2  0  0  0
 45107  1  0  0  0
 46108  1  0  0  0
 47109  1  0  0  0
 47110  1  0  0  0
 48 56  1  0  0  0
 48 65  1  0  0  0
 48111  1  0  0  0
 49 50  1  0  0  0
 49 53  1  0  0  0
 49 64  1  0  0  0
 49112  1  0  0  0
 50 51  1  0  0  0
 50113  1  0  0  0
 50114  1  0  0  0
 51 52  1  0  0  0
 51115  1  0  0  0
 51116  1  0  0  0
 52117  1  0  0  0
 52118  1  0  0  0
 53 54  1  0  0  0
 54 55  2  0  0  0
 54119  1  0  0  0
 55 57  1  0  0  0
 55120  1  0  0  0
 56 69  2  0  0  0
 57 58  2  0  0  0
 57121  1  0  0  0
 58122  1  0  0  0
 59 60  1  0  0  0
 59 61  1  0  0  0
 59 62  1  0  0  0
 60123  1  0  0  0
 60124  1  0  0  0
 60125  1  0  0  0
 61126  1  0  0  0
 61127  1  0  0  0
 61128  1  0  0  0
 62129  1  0  0  0
 62130  1  0  0  0
 62131  1  0  0  0
 63 65  1  0  0  0
 63132  1  0  0  0
 63133  1  0  0  0
 63134  1  0  0  0
 64135  1  0  0  0
 65136  1  0  0  0
 68 75  1  0  0  0
 71137  1  0  0  0
 71138  1  0  0  0
 71139  1  0  0  0
 71 76  1  0  0  0
 72 76  1  0  0  0
 72140  1  0  0  0
 72141  1  0  0  0
 72142  1  0  0  0
 73 75  1  0  0  0
 73 76  1  0  0  0
 73143  1  0  0  0
 73144  1  0  0  0
 74 76  1  0  0  0
 74 77  1  0  0  0
 74145  1  0  0  0
 74146  1  0  0  0
 75147  1  0  0  0
 75148  1  0  0  0
 77149  1  0  0  0
M  ISO  4   1 100  68 101  75 101  77 100
M  END
> <chiral flag>
0

> <version>
0

> <s_m_source_file>
/data/baiqing/PycharmProjects/Reinvent-master-3.2/result/LINK_invent/BTK/process_docking_weight1_custom_sum_contain_oxygen_bond_distance_aromatic_linkinvent_7_9_3/rearranged_h_0105.sdf

> <i_m_source_file_index>
88

> <r_mmod_Potential_Energy-OPLS-2005>
2263.390625

> <r_mmod_Stretch_Energy-OPLS-2005>
1094.16040039062

> <r_mmod_Bend_Energy-OPLS-2005>
604.043151855469

> <r_mmod_Torsional_Energy-OPLS-2005>
227.648651123047

> <r_mmod_Improper_Torsional_Energy-OPLS-2005>
3.4969596862793

> <r_mmod_Van_der_Waal_Energy-OPLS-2005>
105.44490814209

> <r_mmod_Electrostatic_Energy-OPLS-2005>
-385.550170898438

> <r_mmod_Solvation_Energy-OPLS-2005>
-207.854522705078

> <b_mmod_Minimization_Converged-OPLS-2005>
0

> <r_mmod_RMS_Derivative-OPLS-2005>
5.92256784439087

$$$$
88
                    3D
 Structure written by MMmdl.
166174  0  0  1  0            999 V2000
  -30.5327  -15.0154   20.3412 C   0  0  0  0  0  0
  -30.4474  -12.6063   19.5388 C   0  0  0  0  0  0
  -29.5410  -12.4171   18.2994 C   0  0  0  0  0  0
  -28.0665  -12.2660   18.7105 C   0  0  0  0  0  0
  -27.6270  -13.2439   19.8323 C   0  0  2  0  0  0
  -28.6636  -13.3425   20.9698 C   0  0  0  0  0  0
  -25.2486  -13.8207   20.5742 C   0  0  0  0  0  0
  -24.1785  -13.0454   20.9247 C   0  0  0  0  0  0
  -24.6377  -11.6925   20.8801 C   0  0  0  0  0  0
  -23.9061  -10.4310   21.0426 C   0  0  0  0  0  0
  -24.3611   -9.4214   21.9203 C   0  0  0  0  0  0
  -23.6291   -8.2260   22.0777 C   0  0  0  0  0  0
  -22.4285   -8.0287   21.3547 C   0  0  0  0  0  0
  -21.9904   -9.0267   20.4672 C   0  0  0  0  0  0
  -22.7235  -10.2143   20.3066 C   0  0  0  0  0  0
  -21.6872   -6.0722   22.5276 C   0  0  0  0  0  0
  -21.4016   -6.5625   23.8203 C   0  0  0  0  0  0
  -21.3661   -5.6782   24.9173 C   0  0  0  0  0  0
  -21.6039   -4.3042   24.7215 C   0  0  0  0  0  0
  -21.8820   -3.8130   23.4338 C   0  0  0  0  0  0
  -21.9199   -4.6951   22.3399 C   0  0  0  0  0  0
  -22.7804  -13.5226   21.1869 C   0  0  0  0  0  0
  -22.1675   -4.2119   21.0977 F   0  0  0  0  0  0
  -21.5628   -3.4537   25.7730 F   0  0  0  0  0  0
  -29.9328  -13.7506   20.3550 N   0  0  0  0  0  0
  -26.2889  -12.9418   20.3259 N   0  0  0  0  0  0
  -25.9306  -11.6553   20.5784 N   0  0  0  0  0  0
  -22.0417  -12.8277   22.0431 N   0  0  0  0  0  0
  -25.4153  -15.1958   20.4162 N   0  0  0  0  0  0
  -31.7462  -15.0275   20.1030 O   0  0  0  0  0  0
  -21.6649   -6.8886   21.4253 O   0  0  0  0  0  0
  -22.3515  -14.5536   20.6689 O   0  0  0  0  0  0
  -24.6459  -31.8413   23.1874 C   0  0  0  0  0  0
  -25.9211  -32.4684   23.8282 C   0  0  1  0  0  0
  -27.2161  -27.1088   20.1621 C   0  0  0  0  0  0
  -25.5964  -33.8488   24.2189 N   0  0  0  0  0  0
  -23.4507  -30.4617   21.5285 C   0  0  2  0  0  0
  -24.9048  -28.8847   20.1105 C   0  0  0  0  0  0
  -22.7574  -29.4542   22.4812 C   0  0  0  0  0  0
  -18.0302  -28.1413   22.8486 C   0  0  0  0  0  0
  -24.1476  -36.7240   23.2635 C   0  0  0  0  0  0
  -26.0099  -30.7108   21.3899 C   0  0  0  0  0  0
  -26.0827  -29.3169   20.7326 C   0  0  0  0  0  0
  -27.2413  -28.4474   20.7375 C   0  0  0  0  0  0
  -26.0079  -26.7824   19.5048 C   0  0  0  0  0  0
  -24.8813  -27.6323   19.4788 C   0  0  0  0  0  0
  -23.6823  -29.7873   20.1504 C   0  0  0  0  0  0
  -25.4117  -36.3019   24.0307 C   0  0  1  0  0  0
  -20.5915  -28.3726   23.1226 C   0  0  2  0  0  0
  -20.6783  -26.9431   22.5389 C   0  0  0  0  0  0
  -19.5755  -26.6391   21.5202 C   0  0  0  0  0  0
  -18.1940  -26.7954   22.1617 C   0  0  0  0  0  0
  -19.1565  -28.8891   23.2851 C   0  0  0  0  0  0
  -18.9474  -30.1491   23.8884 C   0  0  0  0  0  0
  -17.6471  -30.6608   24.0560 C   0  0  0  0  0  0
  -25.9066  -34.9402   23.5052 C   0  0  0  0  0  0
  -16.5360  -29.9094   23.6363 C   0  0  0  0  0  0
  -16.7289  -28.6515   23.0377 C   0  0  0  0  0  0
  -26.4555  -31.6548   25.0718 C   0  0  0  0  0  0
  -25.3749  -31.3764   26.1417 C   0  0  0  0  0  0
  -27.0423  -30.2938   24.6322 C   0  0  0  0  0  0
  -27.6083  -32.4316   25.7499 C   0  0  0  0  0  0
  -27.5566  -37.1772   24.8469 C   0  0  0  0  0  0
  -21.4267  -29.3050   22.3586 N   0  0  0  0  0  0
  -26.4282  -37.3738   23.9402 N   0  0  0  0  0  0
  -24.7216  -31.0254   22.0910 N   0  0  0  0  0  0
  -23.4217  -28.8105   23.2963 O   0  0  0  0  0  0
  -28.2573  -26.1032   20.2383 O   0  0  0  0  0  0
  -26.5652  -34.8912   22.4626 O   0  0  0  0  0  0
  -23.5573  -32.1260   23.7106 O   0  0  0  0  0  0
  -29.9544  -18.2397   17.4075 C   0  0  0  0  0  0
  -29.9704  -19.3176   18.2262 C   0  0  0  0  0  0
  -29.6784  -18.8863   19.5769 C   0  0  0  0  0  0
  -29.8123  -17.4105   19.5106 C   0  0  0  0  0  0
  -29.6165  -23.3850   21.8117 C   0  0  0  0  0  0
  -29.7381  -15.8196   17.4700 C   0  0  0  0  0  0
  -31.3056  -21.9226   15.7927 C   0  0  0  0  0  0
  -29.4102  -20.1593   20.6045 C   0  0  0  0  0  0
  -30.2027  -20.7197   17.6727 C   0  0  0  0  0  0
  -28.5440  -21.5922   20.2204 C   0  0  0  0  0  0
  -27.9598  -24.5638   20.1391 C   0  0  0  0  0  0
  -28.9853  -23.2276   20.4200 C   0  0  1  0  0  0
  -29.8392  -17.1010   18.1409 N   0  0  0  0  0  0
  -29.7917  -16.2541   20.3872 N   0  0  0  0  0  0
  -31.2764  -20.7277   16.6575 N   0  3  0  0  0  0
  -31.4748  -12.7683   19.2076 H   0  0  0  0  0  0
  -30.4694  -11.6948   20.1396 H   0  0  0  0  0  0
  -29.8558  -11.5300   17.7484 H   0  0  0  0  0  0
  -29.6628  -13.2312   17.5941 H   0  0  0  0  0  0
  -27.9633  -11.2455   19.0771 H   0  0  0  0  0  0
  -27.4125  -12.3467   17.8428 H   0  0  0  0  0  0
  -27.5666  -14.2265   19.3681 H   0  0  0  0  0  0
  -28.7672  -12.3923   21.4941 H   0  0  0  0  0  0
  -28.3519  -14.0787   21.7133 H   0  0  0  0  0  0
  -25.2754   -9.5670   22.4794 H   0  0  0  0  0  0
  -23.9967   -7.4652   22.7525 H   0  0  0  0  0  0
  -21.0796   -8.8796   19.9027 H   0  0  0  0  0  0
  -22.3679  -10.9685   19.6180 H   0  0  0  0  0  0
  -21.2010   -7.6127   23.9693 H   0  0  0  0  0  0
  -21.1498   -6.0516   25.9069 H   0  0  0  0  0  0
  -22.0595   -2.7587   23.2849 H   0  0  0  0  0  0
  -22.3933  -11.9874   22.4778 H   0  0  0  0  0  0
  -21.1055  -13.1389   22.2620 H   0  0  0  0  0  0
  -24.6392  -15.8420   20.5179 H   0  0  0  0  0  0
  -26.2562  -15.6438   20.0765 H   0  0  0  0  0  0
  -26.7259  -32.5304   23.1008 H   0  0  0  0  0  0
  -25.0127  -33.9600   25.0348 H   0  0  0  0  0  0
  -22.7537  -31.2863   21.3687 H   0  0  0  0  0  0
  -23.3752  -35.9556   23.3307 H   0  0  0  0  0  0
  -24.3557  -36.8863   22.2047 H   0  0  0  0  0  0
  -23.7217  -37.6434   23.6672 H   0  0  0  0  0  0
  -26.1596  -31.4666   20.6172 H   0  0  0  0  0  0
  -26.8837  -30.7691   22.0274 H   0  0  0  0  0  0
  -28.1392  -28.7768   21.2425 H   0  0  0  0  0  0
  -25.8964  -25.8238   19.0231 H   0  0  0  0  0  0
  -23.9804  -27.2979   18.9823 H   0  0  0  0  0  0
  -23.8164  -30.5569   19.3900 H   0  0  0  0  0  0
  -22.8009  -29.2223   19.8432 H   0  0  0  0  0  0
  -25.1299  -36.1856   25.0800 H   0  0  0  0  0  0
  -21.0014  -28.3325   24.1340 H   0  0  0  0  0  0
  -20.5658  -26.2344   23.3606 H   0  0  0  0  0  0
  -21.6642  -26.7418   22.1194 H   0  0  0  0  0  0
  -19.6907  -25.6292   21.1254 H   0  0  0  0  0  0
  -19.6713  -27.3186   20.6726 H   0  0  0  0  0  0
  -17.4192  -26.6711   21.4034 H   0  0  0  0  0  0
  -18.0353  -26.0109   22.9035 H   0  0  0  0  0  0
  -19.7946  -30.7315   24.2261 H   0  0  0  0  0  0
  -17.5012  -31.6295   24.5140 H   0  0  0  0  0  0
  -15.5362  -30.2974   23.7703 H   0  0  0  0  0  0
  -15.8691  -28.0822   22.7104 H   0  0  0  0  0  0
  -24.5923  -30.7117   25.7758 H   0  0  0  0  0  0
  -24.8966  -32.2963   26.4783 H   0  0  0  0  0  0
  -25.8038  -30.8983   27.0228 H   0  0  0  0  0  0
  -26.3062  -29.6640   24.1323 H   0  0  0  0  0  0
  -27.4010  -29.7265   25.4917 H   0  0  0  0  0  0
  -27.8976  -30.4158   23.9675 H   0  0  0  0  0  0
  -27.2685  -33.3648   26.2006 H   0  0  0  0  0  0
  -28.3950  -32.6808   25.0363 H   0  0  0  0  0  0
  -28.0688  -31.8480   26.5477 H   0  0  0  0  0  0
  -28.2585  -38.0062   24.7498 H   0  0  0  0  0  0
  -28.1057  -36.2595   24.6324 H   0  0  0  0  0  0
  -27.2287  -37.1448   25.8872 H   0  0  0  0  0  0
  -20.9474  -29.8733   21.6756 H   0  0  0  0  0  0
  -26.0153  -38.2799   24.1440 H   0  0  0  0  0  0
  -30.0337  -18.1798   16.3304 H   0  0  0  0  0  0
  -30.4050  -22.6504   21.9808 H   0  0  0  0  0  0
  -28.8776  -23.2636   22.6027 H   0  0  0  0  0  0
  -30.0736  -24.3674   21.9284 H   0  0  0  0  0  0
  -29.5327  -15.9543   16.4075 H   0  0  0  0  0  0
  -28.9016  -15.2622   17.8837 H   0  0  0  0  0  0
  -30.6731  -15.2675   17.5600 H   0  0  0  0  0  0
  -32.1220  -21.8424   15.0748 H   0  0  0  0  0  0
  -31.4575  -22.8320   16.3747 H   0  0  0  0  0  0
  -30.3759  -22.0174   15.2292 H   0  0  0  0  0  0
  -30.4037  -20.4728   20.9249 H   0  0  0  0  0  0
  -28.9726  -19.7397   21.5121 H   0  0  0  0  0  0
  -30.4799  -21.4182   18.4619 H   0  0  0  0  0  0
  -29.2694  -21.0666   17.2255 H   0  0  0  0  0  0
  -27.6155  -21.4945   20.7859 H   0  0  0  0  0  0
  -28.1838  -21.4988   19.1978 H   0  0  0  0  0  0
  -27.0880  -24.4014   20.7730 H   0  0  0  0  0  0
  -27.5936  -24.4135   19.1234 H   0  0  0  0  0  0
  -29.7991  -23.3764   19.7123 H   0  0  0  0  0  0
  -28.9163  -16.1511   20.8802 H   0  0  0  0  0  0
  -32.1660  -20.6327   17.1193 H   0  0  0  0  0  0
  -31.1569  -19.9210   16.0678 H   0  0  0  0  0  0
  1 25  1  0  0  0
  1 30  2  0  0  0
  1 84  1  0  0  0
  2  3  1  0  0  0
  2 25  1  0  0  0
  2 86  1  0  0  0
  2 87  1  0  0  0
  3  4  1  0  0  0
  3 88  1  0  0  0
  3 89  1  0  0  0
  4  5  1  0  0  0
  4 90  1  0  0  0
  4 91  1  0  0  0
  5  6  1  0  0  0
  5 26  1  0  0  0
  5 92  1  0  0  0
  6 25  1  0  0  0
  6 93  1  0  0  0
  6 94  1  0  0  0
  7  8  2  0  0  0
  7 26  1  0  0  0
  7 29  1  0  0  0
  8  9  1  0  0  0
  8 22  1  0  0  0
  9 10  1  0  0  0
  9 27  2  0  0  0
 10 11  2  0  0  0
 10 15  1  0  0  0
 11 12  1  0  0  0
 11 95  1  0  0  0
 12 13  2  0  0  0
 12 96  1  0  0  0
 13 14  1  0  0  0
 13 31  1  0  0  0
 14 15  2  0  0  0
 14 97  1  0  0  0
 15 98  1  0  0  0
 16 17  2  0  0  0
 16 21  1  0  0  0
 16 31  1  0  0  0
 17 18  1  0  0  0
 17 99  1  0  0  0
 18 19  2  0  0  0
 18100  1  0  0  0
 19 20  1  0  0  0
 19 24  1  0  0  0
 20 21  2  0  0  0
 20101  1  0  0  0
 21 23  1  0  0  0
 22 28  1  0  0  0
 22 32  2  0  0  0
 26 27  1  0  0  0
 28102  1  0  0  0
 28103  1  0  0  0
 29104  1  0  0  0
 29105  1  0  0  0
 33 34  1  0  0  0
 33 66  1  0  0  0
 33 70  2  0  0  0
 34 36  1  0  0  0
 34 59  1  0  0  0
 34106  1  0  0  0
 35 44  2  0  0  0
 35 45  1  0  0  0
 35 68  1  0  0  0
 36 56  1  0  0  0
 36107  1  0  0  0
 37 39  1  0  0  0
 37 47  1  0  0  0
 37 66  1  0  0  0
 37108  1  0  0  0
 38 43  2  0  0  0
 38 46  1  0  0  0
 38 47  1  0  0  0
 39 64  1  0  0  0
 39 67  2  0  0  0
 40 52  1  0  0  0
 40 53  2  0  0  0
 40 58  1  0  0  0
 41109  1  0  0  0
 41110  1  0  0  0
 41111  1  0  0  0
 41 48  1  0  0  0
 42 43  1  0  0  0
 42 66  1  0  0  0
 42112  1  0  0  0
 42113  1  0  0  0
 43 44  1  0  0  0
 44114  1  0  0  0
 45 46  2  0  0  0
 45115  1  0  0  0
 46116  1  0  0  0
 47117  1  0  0  0
 47118  1  0  0  0
 48 56  1  0  0  0
 48 65  1  0  0  0
 48119  1  0  0  0
 49 50  1  0  0  0
 49 53  1  0  0  0
 49 64  1  0  0  0
 49120  1  0  0  0
 50 51  1  0  0  0
 50121  1  0  0  0
 50122  1  0  0  0
 51 52  1  0  0  0
 51123  1  0  0  0
 51124  1  0  0  0
 52125  1  0  0  0
 52126  1  0  0  0
 53 54  1  0  0  0
 54 55  2  0  0  0
 54127  1  0  0  0
 55 57  1  0  0  0
 55128  1  0  0  0
 56 69  2  0  0  0
 57 58  2  0  0  0
 57129  1  0  0  0
 58130  1  0  0  0
 59 60  1  0  0  0
 59 61  1  0  0  0
 59 62  1  0  0  0
 60131  1  0  0  0
 60132  1  0  0  0
 60133  1  0  0  0
 61134  1  0  0  0
 61135  1  0  0  0
 61136  1  0  0  0
 62137  1  0  0  0
 62138  1  0  0  0
 62139  1  0  0  0
 63 65  1  0  0  0
 63140  1  0  0  0
 63141  1  0  0  0
 63142  1  0  0  0
 64143  1  0  0  0
 65144  1  0  0  0
 68 81  1  0  0  0
 71 72  2  0  0  0
 71 83  1  0  0  0
 71145  1  0  0  0
 72 73  1  0  0  0
 72 79  1  0  0  0
 73 74  2  0  0  0
 73 78  1  0  0  0
 74 83  1  0  0  0
 74 84  1  0  0  0
 75146  1  0  0  0
 75147  1  0  0  0
 75148  1  0  0  0
 75 82  1  0  0  0
 76 83  1  0  0  0
 76149  1  0  0  0
 76150  1  0  0  0
 76151  1  0  0  0
 77 85  1  0  0  0
 77152  1  0  0  0
 77153  1  0  0  0
 77154  1  0  0  0
 78 80  1  0  0  0
 78155  1  0  0  0
 78156  1  0  0  0
 79 85  1  0  0  0
 79157  1  0  0  0
 79158  1  0  0  0
 80 82  1  0  0  0
 80159  1  0  0  0
 80160  1  0  0  0
 81 82  1  0  0  0
 81161  1  0  0  0
 81162  1  0  0  0
 82163  1  0  0  0
 84164  1  0  0  0
 85165  1  0  0  0
 85166  1  0  0  0
M  CHG  1  85   1
M  ISO  4   1 100  68 101  81 101  84 100
M  END
> <chiral flag>
0

> <version>
0

> <s_m_source_file>
/data/baiqing/PycharmProjects/Reinvent-master-3.2/result/LINK_invent/BTK/process_docking_weight1_custom_sum_contain_oxygen_bond_distance_aromatic_linkinvent_7_9_3/rearranged_h_0105.sdf

> <i_m_source_file_index>
89

> <r_mmod_Potential_Energy-OPLS-2005>
492.667816162109

> <r_mmod_Stretch_Energy-OPLS-2005>
324.877807617188

> <r_mmod_Bend_Energy-OPLS-2005>
336.791137695312

> <r_mmod_Torsional_Energy-OPLS-2005>
269.944915771484

> <r_mmod_Improper_Torsional_Energy-OPLS-2005>
6.80069828033447

> <r_mmod_Van_der_Waal_Energy-OPLS-2005>
120.175643920898

> <r_mmod_Electrostatic_Energy-OPLS-2005>
-337.511901855469

> <r_mmod_Solvation_Energy-OPLS-2005>
-465.890258789062

> <b_mmod_Minimization_Converged-OPLS-2005>
0

> <r_mmod_RMS_Derivative-OPLS-2005>
4.29984140396118

$$$$
89
                    3D
 Structure written by MMmdl.
159167  0  0  1  0            999 V2000
  -30.5925  -14.7503   20.4285 C   0  0  0  0  0  0
  -30.4332  -12.4435   19.4858 C   0  0  0  0  0  0
  -29.5142  -12.5031   18.2441 C   0  0  0  0  0  0
  -28.0367  -12.3316   18.6479 C   0  0  0  0  0  0
  -27.6376  -13.2316   19.8486 C   0  0  2  0  0  0
  -28.6808  -13.1710   20.9864 C   0  0  0  0  0  0
  -25.2480  -13.8216   20.5679 C   0  0  0  0  0  0
  -24.1779  -13.0451   20.9188 C   0  0  0  0  0  0
  -24.6393  -11.6936   20.8751 C   0  0  0  0  0  0
  -23.9071  -10.4310   21.0415 C   0  0  0  0  0  0
  -24.3627   -9.4222   21.9174 C   0  0  0  0  0  0
  -23.6294   -8.2265   22.0754 C   0  0  0  0  0  0
  -22.4285   -8.0312   21.3562 C   0  0  0  0  0  0
  -21.9923   -9.0262   20.4645 C   0  0  0  0  0  0
  -22.7266  -10.2136   20.3060 C   0  0  0  0  0  0
  -21.6864   -6.0744   22.5267 C   0  0  0  0  0  0
  -21.4038   -6.5637   23.8214 C   0  0  0  0  0  0
  -21.3693   -5.6787   24.9168 C   0  0  0  0  0  0
  -21.6041   -4.3044   24.7214 C   0  0  0  0  0  0
  -21.8818   -3.8146   23.4321 C   0  0  0  0  0  0
  -21.9201   -4.6968   22.3387 C   0  0  0  0  0  0
  -22.7800  -13.5211   21.1837 C   0  0  0  0  0  0
  -22.1654   -4.2149   21.0958 F   0  0  0  0  0  0
  -21.5635   -3.4536   25.7726 F   0  0  0  0  0  0
  -29.9888  -13.5137   20.4071 N   0  0  0  0  0  0
  -26.2904  -12.9422   20.3272 N   0  0  0  0  0  0
  -25.9326  -11.6561   20.5753 N   0  0  0  0  0  0
  -22.0462  -12.8233   22.0427 N   0  0  0  0  0  0
  -25.4145  -15.1944   20.4088 N   0  0  0  0  0  0
  -31.7819  -14.8662   20.1162 O   0  0  0  0  0  0
  -21.6665   -6.8891   21.4245 O   0  0  0  0  0  0
  -22.3502  -14.5507   20.6661 O   0  0  0  0  0  0
  -24.6257  -31.8574   23.1955 C   0  0  0  0  0  0
  -25.9083  -32.4774   23.8316 C   0  0  1  0  0  0
  -27.2328  -27.2880   20.1449 C   0  0  0  0  0  0
  -25.5868  -33.8573   24.2237 N   0  0  0  0  0  0
  -23.4248  -30.4719   21.5393 C   0  0  2  0  0  0
  -24.8771  -28.9152   20.1176 C   0  0  0  0  0  0
  -22.7494  -29.4594   22.4946 C   0  0  0  0  0  0
  -18.0283  -28.1380   22.8494 C   0  0  0  0  0  0
  -24.1482  -36.7307   23.2636 C   0  0  0  0  0  0
  -25.9660  -30.7813   21.3679 C   0  0  0  0  0  0
  -26.0462  -29.4027   20.7177 C   0  0  0  0  0  0
  -27.2297  -28.6023   20.7140 C   0  0  0  0  0  0
  -26.0500  -26.8627   19.5064 C   0  0  0  0  0  0
  -24.8821  -27.6522   19.5017 C   0  0  0  0  0  0
  -23.6421  -29.7935   20.1600 C   0  0  0  0  0  0
  -25.4119  -36.3087   24.0313 C   0  0  1  0  0  0
  -20.5888  -28.3677   23.1284 C   0  0  2  0  0  0
  -20.6766  -26.9390   22.5410 C   0  0  0  0  0  0
  -19.5737  -26.6375   21.5221 C   0  0  0  0  0  0
  -18.1925  -26.7938   22.1632 C   0  0  0  0  0  0
  -19.1541  -28.8857   23.2887 C   0  0  0  0  0  0
  -18.9468  -30.1459   23.8893 C   0  0  0  0  0  0
  -17.6471  -30.6583   24.0564 C   0  0  0  0  0  0
  -25.9048  -34.9450   23.5092 C   0  0  0  0  0  0
  -16.5355  -29.9084   23.6315 C   0  0  0  0  0  0
  -16.7284  -28.6498   23.0354 C   0  0  0  0  0  0
  -26.4451  -31.6624   25.0715 C   0  0  0  0  0  0
  -25.3648  -31.3792   26.1421 C   0  0  0  0  0  0
  -27.0284  -30.3035   24.6200 C   0  0  0  0  0  0
  -27.5990  -32.4375   25.7499 C   0  0  0  0  0  0
  -27.5586  -37.1798   24.8457 C   0  0  0  0  0  0
  -21.4206  -29.3029   22.3685 N   0  0  0  0  0  0
  -26.4293  -37.3785   23.9402 N   0  0  0  0  0  0
  -24.6913  -31.0548   22.0924 N   0  0  0  0  0  0
  -23.4217  -28.8139   23.3036 O   0  0  0  0  0  0
  -28.3425  -26.4201   20.1612 O   0  0  0  0  0  0
  -26.5656  -34.8922   22.4679 O   0  0  0  0  0  0
  -23.5396  -32.1388   23.7250 O   0  0  0  0  0  0
  -30.8075  -19.6525   24.0014 C   0  0  0  0  0  0
  -30.9707  -18.2746   23.8843 C   0  0  0  0  0  0
  -30.3104  -20.3930   22.9190 C   0  0  0  0  0  0
  -30.6299  -17.6515   22.6833 C   0  0  0  0  0  0
  -29.9691  -19.8265   21.6575 C   0  0  0  0  0  0
  -30.1534  -18.3538   21.5460 C   0  0  0  0  0  0
  -27.0945  -24.9302   21.8008 C   0  0  0  0  0  0
  -29.5129  -20.9209   20.5712 C   0  0  0  0  0  0
  -29.9949  -17.3653   20.3224 C   0  0  0  0  0  0
  -29.0032  -22.4050   21.0772 C   0  0  0  0  0  0
  -28.7030  -23.7041   20.1475 C   0  0  0  0  0  0
  -28.3218  -25.0995   20.8846 C   0  0  1  0  0  0
  -29.7814  -15.8605   20.5872 N   0  0  0  0  0  0
  -31.4791  -12.5602   19.1954 H   0  0  0  0  0  0
  -30.3603  -11.4701   19.9752 H   0  0  0  0  0  0
  -29.7934  -11.7334   17.5242 H   0  0  0  0  0  0
  -29.6429  -13.4638   17.7407 H   0  0  0  0  0  0
  -27.8886  -11.2820   18.9040 H   0  0  0  0  0  0
  -27.3885  -12.5295   17.7935 H   0  0  0  0  0  0
  -27.6254  -14.2490   19.4597 H   0  0  0  0  0  0
  -28.7134  -12.1781   21.4353 H   0  0  0  0  0  0
  -28.4136  -13.8647   21.7872 H   0  0  0  0  0  0
  -25.2776   -9.5706   22.4731 H   0  0  0  0  0  0
  -24.0020   -7.4678   22.7483 H   0  0  0  0  0  0
  -21.0862   -8.8779   19.8934 H   0  0  0  0  0  0
  -22.3729  -10.9666   19.6157 H   0  0  0  0  0  0
  -21.2040   -7.6153   23.9714 H   0  0  0  0  0  0
  -21.1519   -6.0517   25.9074 H   0  0  0  0  0  0
  -22.0566   -2.7611   23.2815 H   0  0  0  0  0  0
  -22.4119  -11.9919   22.4820 H   0  0  0  0  0  0
  -21.1063  -13.1256   22.2594 H   0  0  0  0  0  0
  -24.6385  -15.8402   20.5075 H   0  0  0  0  0  0
  -26.2515  -15.6404   20.0591 H   0  0  0  0  0  0
  -26.7170  -32.5458   23.1083 H   0  0  0  0  0  0
  -24.9909  -33.9731   25.0302 H   0  0  0  0  0  0
  -22.7180  -31.2893   21.3838 H   0  0  0  0  0  0
  -23.3745  -35.9636   23.3295 H   0  0  0  0  0  0
  -24.3556  -36.8945   22.2049 H   0  0  0  0  0  0
  -23.7243  -37.6500   23.6682 H   0  0  0  0  0  0
  -26.0952  -31.5401   20.5956 H   0  0  0  0  0  0
  -26.8464  -30.8401   21.9981 H   0  0  0  0  0  0
  -28.1314  -28.9749   21.1788 H   0  0  0  0  0  0
  -26.0250  -25.8882   19.0395 H   0  0  0  0  0  0
  -23.9857  -27.2677   19.0345 H   0  0  0  0  0  0
  -23.7593  -30.5601   19.3908 H   0  0  0  0  0  0
  -22.7669  -29.2076   19.8666 H   0  0  0  0  0  0
  -25.1302  -36.1927   25.0803 H   0  0  0  0  0  0
  -20.9984  -28.3239   24.1407 H   0  0  0  0  0  0
  -20.5640  -26.2287   23.3619 H   0  0  0  0  0  0
  -21.6632  -26.7398   22.1223 H   0  0  0  0  0  0
  -19.6883  -25.6278   21.1263 H   0  0  0  0  0  0
  -19.6687  -27.3168   20.6735 H   0  0  0  0  0  0
  -17.4197  -26.6686   21.4041 H   0  0  0  0  0  0
  -18.0318  -26.0084   22.9034 H   0  0  0  0  0  0
  -19.7938  -30.7279   24.2268 H   0  0  0  0  0  0
  -17.5012  -31.6262   24.5169 H   0  0  0  0  0  0
  -15.5351  -30.2986   23.7642 H   0  0  0  0  0  0
  -15.8684  -28.0810   22.7080 H   0  0  0  0  0  0
  -24.5775  -30.7223   25.7718 H   0  0  0  0  0  0
  -24.8884  -32.2977   26.4864 H   0  0  0  0  0  0
  -25.7894  -30.8917   27.0204 H   0  0  0  0  0  0
  -26.2870  -29.6830   24.1167 H   0  0  0  0  0  0
  -27.3899  -29.7270   25.4723 H   0  0  0  0  0  0
  -27.8765  -30.4322   23.9481 H   0  0  0  0  0  0
  -27.2576  -33.3661   26.2100 H   0  0  0  0  0  0
  -28.3782  -32.6992   25.0330 H   0  0  0  0  0  0
  -28.0696  -31.8512   26.5412 H   0  0  0  0  0  0
  -28.2593  -38.0101   24.7503 H   0  0  0  0  0  0
  -28.1089  -36.2633   24.6282 H   0  0  0  0  0  0
  -27.2299  -37.1439   25.8855 H   0  0  0  0  0  0
  -20.9393  -29.8740   21.6876 H   0  0  0  0  0  0
  -26.0179  -38.2849   24.1415 H   0  0  0  0  0  0
  -31.0756  -20.1443   24.9266 H   0  0  0  0  0  0
  -31.3650  -17.6863   24.7023 H   0  0  0  0  0  0
  -30.2349  -21.4450   23.1192 H   0  0  0  0  0  0
  -30.7921  -16.5853   22.6598 H   0  0  0  0  0  0
  -27.2464  -24.1203   22.5113 H   0  0  0  0  0  0
  -26.1853  -24.7077   21.2448 H   0  0  0  0  0  0
  -26.9198  -25.8236   22.3985 H   0  0  0  0  0  0
  -28.7499  -20.4684   19.9379 H   0  0  0  0  0  0
  -30.3765  -21.0770   19.9249 H   0  0  0  0  0  0
  -30.8925  -17.4767   19.7105 H   0  0  0  0  0  0
  -29.1717  -17.7219   19.7058 H   0  0  0  0  0  0
  -29.7345  -22.8109   21.7711 H   0  0  0  0  0  0
  -28.1118  -22.2234   21.6735 H   0  0  0  0  0  0
  -27.9157  -23.4661   19.4311 H   0  0  0  0  0  0
  -29.5924  -23.9010   19.5467 H   0  0  0  0  0  0
  -29.1510  -25.2413   21.5779 H   0  0  0  0  0  0
  -28.8240  -15.6239   20.8070 H   0  0  0  0  0  0
  1 25  1  0  0  0
  1 30  2  0  0  0
  1 83  1  0  0  0
  2  3  1  0  0  0
  2 25  1  0  0  0
  2 84  1  0  0  0
  2 85  1  0  0  0
  3  4  1  0  0  0
  3 86  1  0  0  0
  3 87  1  0  0  0
  4  5  1  0  0  0
  4 88  1  0  0  0
  4 89  1  0  0  0
  5  6  1  0  0  0
  5 26  1  0  0  0
  5 90  1  0  0  0
  6 25  1  0  0  0
  6 91  1  0  0  0
  6 92  1  0  0  0
  7  8  2  0  0  0
  7 26  1  0  0  0
  7 29  1  0  0  0
  8  9  1  0  0  0
  8 22  1  0  0  0
  9 10  1  0  0  0
  9 27  2  0  0  0
 10 11  2  0  0  0
 10 15  1  0  0  0
 11 12  1  0  0  0
 11 93  1  0  0  0
 12 13  2  0  0  0
 12 94  1  0  0  0
 13 14  1  0  0  0
 13 31  1  0  0  0
 14 15  2  0  0  0
 14 95  1  0  0  0
 15 96  1  0  0  0
 16 17  2  0  0  0
 16 21  1  0  0  0
 16 31  1  0  0  0
 17 18  1  0  0  0
 17 97  1  0  0  0
 18 19  2  0  0  0
 18 98  1  0  0  0
 19 20  1  0  0  0
 19 24  1  0  0  0
 20 21  2  0  0  0
 20 99  1  0  0  0
 21 23  1  0  0  0
 22 28  1  0  0  0
 22 32  2  0  0  0
 26 27  1  0  0  0
 28100  1  0  0  0
 28101  1  0  0  0
 29102  1  0  0  0
 29103  1  0  0  0
 33 34  1  0  0  0
 33 66  1  0  0  0
 33 70  2  0  0  0
 34 36  1  0  0  0
 34 59  1  0  0  0
 34104  1  0  0  0
 35 44  2  0  0  0
 35 45  1  0  0  0
 35 68  1  0  0  0
 36 56  1  0  0  0
 36105  1  0  0  0
 37 39  1  0  0  0
 37 47  1  0  0  0
 37 66  1  0  0  0
 37106  1  0  0  0
 38 43  2  0  0  0
 38 46  1  0  0  0
 38 47  1  0  0  0
 39 64  1  0  0  0
 39 67  2  0  0  0
 40 52  1  0  0  0
 40 53  2  0  0  0
 40 58  1  0  0  0
 41107  1  0  0  0
 41108  1  0  0  0
 41109  1  0  0  0
 41 48  1  0  0  0
 42 43  1  0  0  0
 42 66  1  0  0  0
 42110  1  0  0  0
 42111  1  0  0  0
 43 44  1  0  0  0
 44112  1  0  0  0
 45 46  2  0  0  0
 45113  1  0  0  0
 46114  1  0  0  0
 47115  1  0  0  0
 47116  1  0  0  0
 48 56  1  0  0  0
 48 65  1  0  0  0
 48117  1  0  0  0
 49 50  1  0  0  0
 49 53  1  0  0  0
 49 64  1  0  0  0
 49118  1  0  0  0
 50 51  1  0  0  0
 50119  1  0  0  0
 50120  1  0  0  0
 51 52  1  0  0  0
 51121  1  0  0  0
 51122  1  0  0  0
 52123  1  0  0  0
 52124  1  0  0  0
 53 54  1  0  0  0
 54 55  2  0  0  0
 54125  1  0  0  0
 55 57  1  0  0  0
 55126  1  0  0  0
 56 69  2  0  0  0
 57 58  2  0  0  0
 57127  1  0  0  0
 58128  1  0  0  0
 59 60  1  0  0  0
 59 61  1  0  0  0
 59 62  1  0  0  0
 60129  1  0  0  0
 60130  1  0  0  0
 60131  1  0  0  0
 61132  1  0  0  0
 61133  1  0  0  0
 61134  1  0  0  0
 62135  1  0  0  0
 62136  1  0  0  0
 62137  1  0  0  0
 63 65  1  0  0  0
 63138  1  0  0  0
 63139  1  0  0  0
 63140  1  0  0  0
 64141  1  0  0  0
 65142  1  0  0  0
 68 82  1  0  0  0
 71 72  2  0  0  0
 71 73  1  0  0  0
 71143  1  0  0  0
 72 74  1  0  0  0
 72144  1  0  0  0
 73 75  2  0  0  0
 73145  1  0  0  0
 74 76  2  0  0  0
 74146  1  0  0  0
 75 76  1  0  0  0
 75 78  1  0  0  0
 76 79  1  0  0  0
 77147  1  0  0  0
 77148  1  0  0  0
 77149  1  0  0  0
 77 82  1  0  0  0
 78 80  1  0  0  0
 78150  1  0  0  0
 78151  1  0  0  0
 79 83  1  0  0  0
 79152  1  0  0  0
 79153  1  0  0  0
 80 81  1  0  0  0
 80154  1  0  0  0
 80155  1  0  0  0
 81 82  1  0  0  0
 81156  1  0  0  0
 81157  1  0  0  0
 82158  1  0  0  0
 83159  1  0  0  0
M  ISO  4   1 100  68 101  82 101  83 100
M  END
> <chiral flag>
0

> <version>
0

> <s_m_source_file>
/data/baiqing/PycharmProjects/Reinvent-master-3.2/result/LINK_invent/BTK/process_docking_weight1_custom_sum_contain_oxygen_bond_distance_aromatic_linkinvent_7_9_3/rearranged_h_0105.sdf

> <i_m_source_file_index>
90

> <r_mmod_Potential_Energy-OPLS-2005>
194.291076660156

> <r_mmod_Stretch_Energy-OPLS-2005>
143.704284667969

> <r_mmod_Bend_Energy-OPLS-2005>
208.915054321289

> <r_mmod_Torsional_Energy-OPLS-2005>
224.065490722656

> <r_mmod_Improper_Torsional_Energy-OPLS-2005>
5.64863634109497

> <r_mmod_Van_der_Waal_Energy-OPLS-2005>
147.358993530273

> <r_mmod_Electrostatic_Energy-OPLS-2005>
-411.013641357422

> <r_mmod_Solvation_Energy-OPLS-2005>
-204.452239990234

> <b_mmod_Minimization_Converged-OPLS-2005>
0

> <r_mmod_RMS_Derivative-OPLS-2005>
4.3282732963562

$$$$
90
                    3D
 Structure written by MMmdl.
171178  0  0  1  0            999 V2000
  -30.7826  -14.4281   20.7294 C   0  0  0  0  0  0
  -30.4120  -12.3369   19.4304 C   0  0  0  0  0  0
  -29.4913  -12.5311   18.2063 C   0  0  0  0  0  0
  -28.0157  -12.3635   18.6140 C   0  0  0  0  0  0
  -27.6617  -13.2006   19.8676 C   0  0  2  0  0  0
  -28.6893  -12.9981   21.0012 C   0  0  0  0  0  0
  -25.2622  -13.8139   20.5644 C   0  0  0  0  0  0
  -24.1891  -13.0422   20.9185 C   0  0  0  0  0  0
  -24.6429  -11.6902   20.8757 C   0  0  0  0  0  0
  -23.9102  -10.4287   21.0467 C   0  0  0  0  0  0
  -24.3633   -9.4198   21.9242 C   0  0  0  0  0  0
  -23.6299   -8.2214   22.0759 C   0  0  0  0  0  0
  -22.4291   -8.0287   21.3535 C   0  0  0  0  0  0
  -21.9940   -9.0277   20.4651 C   0  0  0  0  0  0
  -22.7280  -10.2157   20.3098 C   0  0  0  0  0  0
  -21.6866   -6.0755   22.5286 C   0  0  0  0  0  0
  -21.4015   -6.5654   23.8232 C   0  0  0  0  0  0
  -21.3646   -5.6809   24.9194 C   0  0  0  0  0  0
  -21.6043   -4.3068   24.7243 C   0  0  0  0  0  0
  -21.8815   -3.8172   23.4361 C   0  0  0  0  0  0
  -21.9187   -4.6972   22.3421 C   0  0  0  0  0  0
  -22.7922  -13.5235   21.1920 C   0  0  0  0  0  0
  -22.1686   -4.2164   21.0993 F   0  0  0  0  0  0
  -21.5618   -3.4541   25.7736 F   0  0  0  0  0  0
  -30.0339  -13.3063   20.4883 N   0  0  0  0  0  0
  -26.3032  -12.9280   20.3281 N   0  0  0  0  0  0
  -25.9334  -11.6458   20.5713 N   0  0  0  0  0  0
  -22.0645  -12.8140   22.0498 N   0  0  0  0  0  0
  -25.4380  -15.1829   20.4008 N   0  0  0  0  0  0
  -31.7704  -14.6459   20.0174 O   0  0  0  0  0  0
  -21.6630   -6.8901   21.4266 O   0  0  0  0  0  0
  -22.3592  -14.5549   20.6836 O   0  0  0  0  0  0
  -24.6191  -31.8658   23.2072 C   0  0  0  0  0  0
  -25.9082  -32.4798   23.8349 C   0  0  1  0  0  0
  -27.2065  -27.3842   20.0841 C   0  0  0  0  0  0
  -25.5922  -33.8588   24.2237 N   0  0  0  0  0  0
  -23.4069  -30.4971   21.5485 C   0  0  2  0  0  0
  -24.8486  -28.9688   20.1019 C   0  0  0  0  0  0
  -22.7421  -29.4665   22.4905 C   0  0  0  0  0  0
  -18.0280  -28.1418   22.8481 C   0  0  0  0  0  0
  -24.1511  -36.7330   23.2622 C   0  0  0  0  0  0
  -25.9455  -30.8146   21.3719 C   0  0  0  0  0  0
  -26.0161  -29.4516   20.7047 C   0  0  0  0  0  0
  -27.2013  -28.6694   20.6892 C   0  0  0  0  0  0
  -26.0192  -26.9453   19.4544 C   0  0  0  0  0  0
  -24.8476  -27.7184   19.4697 C   0  0  0  0  0  0
  -23.6179  -29.8454   20.1577 C   0  0  0  0  0  0
  -25.4127  -36.3071   24.0288 C   0  0  1  0  0  0
  -20.5889  -28.3707   23.1311 C   0  0  2  0  0  0
  -20.6784  -26.9428   22.5436 C   0  0  0  0  0  0
  -19.5757  -26.6411   21.5235 C   0  0  0  0  0  0
  -18.1936  -26.7965   22.1634 C   0  0  0  0  0  0
  -19.1536  -28.8870   23.2900 C   0  0  0  0  0  0
  -18.9459  -30.1481   23.8901 C   0  0  0  0  0  0
  -17.6461  -30.6609   24.0586 C   0  0  0  0  0  0
  -25.9063  -34.9454   23.5048 C   0  0  0  0  0  0
  -16.5351  -29.9117   23.6333 C   0  0  0  0  0  0
  -16.7272  -28.6560   23.0307 C   0  0  0  0  0  0
  -26.4463  -31.6596   25.0708 C   0  0  0  0  0  0
  -25.3699  -31.3785   26.1432 C   0  0  0  0  0  0
  -27.0252  -30.2986   24.6171 C   0  0  0  0  0  0
  -27.5986  -32.4331   25.7540 C   0  0  0  0  0  0
  -27.5578  -37.1810   24.8429 C   0  0  0  0  0  0
  -21.4140  -29.3063   22.3682 N   0  0  0  0  0  0
  -26.4277  -37.3784   23.9393 N   0  0  0  0  0  0
  -24.6753  -31.0732   22.0993 N   0  0  0  0  0  0
  -23.4179  -28.8172   23.2929 O   0  0  0  0  0  0
  -28.3362  -26.5720   20.1244 O   0  0  0  0  0  0
  -26.5647  -34.8910   22.4622 O   0  0  0  0  0  0
  -23.5371  -32.1424   23.7449 O   0  0  0  0  0  0
  -27.5439  -18.0167   22.0545 C   0  0  0  0  0  0
  -30.0063  -14.8983   23.2135 C   0  0  0  0  0  0
  -31.8807  -16.1388   22.2346 C   0  0  0  0  0  0
  -30.5741  -24.5757   20.0139 C   0  0  0  0  0  0
  -29.2049  -24.5389   22.1222 C   0  0  0  0  0  0
  -28.9130  -22.6768   20.3452 C   0  0  0  0  0  0
  -29.5359  -16.6039   21.2923 C   0  0  0  0  0  0
  -29.4379  -21.6289   21.3947 C   0  0  0  0  0  0
  -29.8367  -19.1823   21.9510 C   0  0  0  0  0  0
  -28.1238  -25.1368   19.9538 C   0  0  0  0  0  0
  -29.0746  -17.8222   22.1718 C   0  0  1  0  0  0
  -30.5065  -15.5030   21.8688 C   0  0  0  0  0  0
  -29.2040  -24.2157   20.6137 C   0  0  0  0  0  0
  -29.1333  -20.1920   21.0897 N   0  3  0  0  0  0
  -31.4620  -12.4095   19.1325 H   0  0  0  0  0  0
  -30.3038  -11.3183   19.8108 H   0  0  0  0  0  0
  -29.7400  -11.8136   17.4203 H   0  0  0  0  0  0
  -29.6414  -13.5241   17.7799 H   0  0  0  0  0  0
  -27.8381  -11.3043   18.8136 H   0  0  0  0  0  0
  -27.3547  -12.6289   17.7864 H   0  0  0  0  0  0
  -27.7124  -14.2479   19.5680 H   0  0  0  0  0  0
  -28.6711  -11.9720   21.3684 H   0  0  0  0  0  0
  -28.3772  -13.6112   21.8374 H   0  0  0  0  0  0
  -25.2805   -9.5622   22.4793 H   0  0  0  0  0  0
  -24.0031   -7.4576   22.7422 H   0  0  0  0  0  0
  -21.0892   -8.8813   19.8924 H   0  0  0  0  0  0
  -22.3813  -10.9693   19.6176 H   0  0  0  0  0  0
  -21.2044   -7.6169   23.9741 H   0  0  0  0  0  0
  -21.1477   -6.0545   25.9097 H   0  0  0  0  0  0
  -22.0615   -2.7633   23.2849 H   0  0  0  0  0  0
  -22.4265  -11.9699   22.4695 H   0  0  0  0  0  0
  -21.1281  -13.1137   22.2830 H   0  0  0  0  0  0
  -24.6696  -15.8360   20.5036 H   0  0  0  0  0  0
  -26.2820  -15.6094   20.0386 H   0  0  0  0  0  0
  -26.7152  -32.5478   23.1101 H   0  0  0  0  0  0
  -24.9983  -33.9755   25.0315 H   0  0  0  0  0  0
  -22.6966  -31.3164   21.4166 H   0  0  0  0  0  0
  -23.3744  -35.9695   23.3252 H   0  0  0  0  0  0
  -24.3610  -36.8994   22.2043 H   0  0  0  0  0  0
  -23.7305  -37.6523   23.6704 H   0  0  0  0  0  0
  -26.0740  -31.5845   20.6116 H   0  0  0  0  0  0
  -26.8282  -30.8525   21.9976 H   0  0  0  0  0  0
  -28.1012  -29.0319   21.1658 H   0  0  0  0  0  0
  -25.9653  -25.9964   18.9434 H   0  0  0  0  0  0
  -23.9541  -27.3476   18.9860 H   0  0  0  0  0  0
  -23.7373  -30.6309   19.4110 H   0  0  0  0  0  0
  -22.7373  -29.2806   19.8471 H   0  0  0  0  0  0
  -25.1316  -36.1877   25.0777 H   0  0  0  0  0  0
  -20.9995  -28.3296   24.1430 H   0  0  0  0  0  0
  -20.5731  -26.2281   23.3624 H   0  0  0  0  0  0
  -21.6648  -26.7505   22.1193 H   0  0  0  0  0  0
  -19.6921  -25.6325   21.1244 H   0  0  0  0  0  0
  -19.6716  -27.3230   20.6778 H   0  0  0  0  0  0
  -17.4208  -26.6706   21.4036 H   0  0  0  0  0  0
  -18.0327  -26.0131   22.9050 H   0  0  0  0  0  0
  -19.7933  -30.7316   24.2242 H   0  0  0  0  0  0
  -17.5019  -31.6286   24.5212 H   0  0  0  0  0  0
  -15.5348  -30.3028   23.7686 H   0  0  0  0  0  0
  -15.8667  -28.0930   22.6950 H   0  0  0  0  0  0
  -24.5871  -30.7125   25.7786 H   0  0  0  0  0  0
  -24.8928  -32.2994   26.4793 H   0  0  0  0  0  0
  -25.8027  -30.9014   27.0231 H   0  0  0  0  0  0
  -26.2818  -29.6821   24.1099 H   0  0  0  0  0  0
  -27.3772  -29.7162   25.4697 H   0  0  0  0  0  0
  -27.8781  -30.4193   23.9490 H   0  0  0  0  0  0
  -27.2506  -33.3572   26.2168 H   0  0  0  0  0  0
  -28.3823  -32.6967   25.0434 H   0  0  0  0  0  0
  -28.0627  -31.8427   26.5446 H   0  0  0  0  0  0
  -28.2526  -38.0167   24.7509 H   0  0  0  0  0  0
  -28.1132  -36.2682   24.6209 H   0  0  0  0  0  0
  -27.2304  -37.1394   25.8828 H   0  0  0  0  0  0
  -20.9262  -29.8810   21.6948 H   0  0  0  0  0  0
  -26.0125  -38.2823   24.1469 H   0  0  0  0  0  0
  -27.0037  -17.0965   22.2840 H   0  0  0  0  0  0
  -27.2436  -18.3023   21.0452 H   0  0  0  0  0  0
  -27.1837  -18.7826   22.7439 H   0  0  0  0  0  0
  -28.9259  -14.9651   23.3339 H   0  0  0  0  0  0
  -30.4090  -15.4291   24.0762 H   0  0  0  0  0  0
  -30.3153  -13.8587   23.3350 H   0  0  0  0  0  0
  -31.8045  -16.8579   23.0511 H   0  0  0  0  0  0
  -32.3393  -16.6599   21.3944 H   0  0  0  0  0  0
  -32.5906  -15.3702   22.5620 H   0  0  0  0  0  0
  -31.3520  -23.8960   20.3635 H   0  0  0  0  0  0
  -30.8712  -25.5918   20.2821 H   0  0  0  0  0  0
  -30.5535  -24.5167   18.9233 H   0  0  0  0  0  0
  -30.0625  -24.1037   22.6355 H   0  0  0  0  0  0
  -28.2976  -24.1817   22.6108 H   0  0  0  0  0  0
  -29.2514  -25.6160   22.2944 H   0  0  0  0  0  0
  -27.8393  -22.5224   20.2328 H   0  0  0  0  0  0
  -29.3295  -22.4150   19.3692 H   0  0  0  0  0  0
  -29.9276  -16.9852   20.3499 H   0  0  0  0  0  0
  -28.6369  -16.0592   21.0076 H   0  0  0  0  0  0
  -28.9776  -21.8421   22.3610 H   0  0  0  0  0  0
  -30.5140  -21.7500   21.5268 H   0  0  0  0  0  0
  -30.8406  -19.0025   21.5640 H   0  0  0  0  0  0
  -29.9756  -19.6419   22.9331 H   0  0  0  0  0  0
  -27.1689  -24.8492   20.4004 H   0  0  0  0  0  0
  -28.0458  -24.9124   18.8875 H   0  0  0  0  0  0
  -29.2552  -17.5384   23.2119 H   0  0  0  0  0  0
  -29.3252  -19.9884   20.1219 H   0  0  0  0  0  0
  -28.1461  -20.0532   21.2326 H   0  0  0  0  0  0
  1 25  1  0  0  0
  1 30  2  0  0  0
  1 82  1  0  0  0
  2  3  1  0  0  0
  2 25  1  0  0  0
  2 85  1  0  0  0
  2 86  1  0  0  0
  3  4  1  0  0  0
  3 87  1  0  0  0
  3 88  1  0  0  0
  4  5  1  0  0  0
  4 89  1  0  0  0
  4 90  1  0  0  0
  5  6  1  0  0  0
  5 26  1  0  0  0
  5 91  1  0  0  0
  6 25  1  0  0  0
  6 92  1  0  0  0
  6 93  1  0  0  0
  7  8  2  0  0  0
  7 26  1  0  0  0
  7 29  1  0  0  0
  8  9  1  0  0  0
  8 22  1  0  0  0
  9 10  1  0  0  0
  9 27  2  0  0  0
 10 11  2  0  0  0
 10 15  1  0  0  0
 11 12  1  0  0  0
 11 94  1  0  0  0
 12 13  2  0  0  0
 12 95  1  0  0  0
 13 14  1  0  0  0
 13 31  1  0  0  0
 14 15  2  0  0  0
 14 96  1  0  0  0
 15 97  1  0  0  0
 16 17  2  0  0  0
 16 21  1  0  0  0
 16 31  1  0  0  0
 17 18  1  0  0  0
 17 98  1  0  0  0
 18 19  2  0  0  0
 18 99  1  0  0  0
 19 20  1  0  0  0
 19 24  1  0  0  0
 20 21  2  0  0  0
 20100  1  0  0  0
 21 23  1  0  0  0
 22 28  1  0  0  0
 22 32  2  0  0  0
 26 27  1  0  0  0
 28101  1  0  0  0
 28102  1  0  0  0
 29103  1  0  0  0
 29104  1  0  0  0
 33 34  1  0  0  0
 33 66  1  0  0  0
 33 70  2  0  0  0
 34 36  1  0  0  0
 34 59  1  0  0  0
 34105  1  0  0  0
 35 44  2  0  0  0
 35 45  1  0  0  0
 35 68  1  0  0  0
 36 56  1  0  0  0
 36106  1  0  0  0
 37 39  1  0  0  0
 37 47  1  0  0  0
 37 66  1  0  0  0
 37107  1  0  0  0
 38 43  2  0  0  0
 38 46  1  0  0  0
 38 47  1  0  0  0
 39 64  1  0  0  0
 39 67  2  0  0  0
 40 52  1  0  0  0
 40 53  2  0  0  0
 40 58  1  0  0  0
 41108  1  0  0  0
 41109  1  0  0  0
 41110  1  0  0  0
 41 48  1  0  0  0
 42 43  1  0  0  0
 42 66  1  0  0  0
 42111  1  0  0  0
 42112  1  0  0  0
 43 44  1  0  0  0
 44113  1  0  0  0
 45 46  2  0  0  0
 45114  1  0  0  0
 46115  1  0  0  0
 47116  1  0  0  0
 47117  1  0  0  0
 48 56  1  0  0  0
 48 65  1  0  0  0
 48118  1  0  0  0
 49 50  1  0  0  0
 49 53  1  0  0  0
 49 64  1  0  0  0
 49119  1  0  0  0
 50 51  1  0  0  0
 50120  1  0  0  0
 50121  1  0  0  0
 51 52  1  0  0  0
 51122  1  0  0  0
 51123  1  0  0  0
 52124  1  0  0  0
 52125  1  0  0  0
 53 54  1  0  0  0
 54 55  2  0  0  0
 54126  1  0  0  0
 55 57  1  0  0  0
 55127  1  0  0  0
 56 69  2  0  0  0
 57 58  2  0  0  0
 57128  1  0  0  0
 58129  1  0  0  0
 59 60  1  0  0  0
 59 61  1  0  0  0
 59 62  1  0  0  0
 60130  1  0  0  0
 60131  1  0  0  0
 60132  1  0  0  0
 61133  1  0  0  0
 61134  1  0  0  0
 61135  1  0  0  0
 62136  1  0  0  0
 62137  1  0  0  0
 62138  1  0  0  0
 63 65  1  0  0  0
 63139  1  0  0  0
 63140  1  0  0  0
 63141  1  0  0  0
 64142  1  0  0  0
 65143  1  0  0  0
 68 80  1  0  0  0
 71144  1  0  0  0
 71145  1  0  0  0
 71146  1  0  0  0
 71 81  1  0  0  0
 72147  1  0  0  0
 72148  1  0  0  0
 72149  1  0  0  0
 72 82  1  0  0  0
 73 82  1  0  0  0
 73150  1  0  0  0
 73151  1  0  0  0
 73152  1  0  0  0
 74153  1  0  0  0
 74154  1  0  0  0
 74155  1  0  0  0
 74 83  1  0  0  0
 75 83  1  0  0  0
 75156  1  0  0  0
 75157  1  0  0  0
 75158  1  0  0  0
 76 78  1  0  0  0
 76 83  1  0  0  0
 76159  1  0  0  0
 76160  1  0  0  0
 77 81  1  0  0  0
 77 82  1  0  0  0
 77161  1  0  0  0
 77162  1  0  0  0
 78 84  1  0  0  0
 78163  1  0  0  0
 78164  1  0  0  0
 79 81  1  0  0  0
 79 84  1  0  0  0
 79165  1  0  0  0
 79166  1  0  0  0
 80 83  1  0  0  0
 80167  1  0  0  0
 80168  1  0  0  0
 81169  1  0  0  0
 84170  1  0  0  0
 84171  1  0  0  0
M  CHG  1  84   1
M  ISO  4   1 100  68 101  80 101  82 100
M  END
> <chiral flag>
0

> <version>
0

> <s_m_source_file>
/data/baiqing/PycharmProjects/Reinvent-master-3.2/result/LINK_invent/BTK/process_docking_weight1_custom_sum_contain_oxygen_bond_distance_aromatic_linkinvent_7_9_3/rearranged_h_0105.sdf

> <i_m_source_file_index>
91

> <r_mmod_Potential_Energy-OPLS-2005>
-22.9756889343262

> <r_mmod_Stretch_Energy-OPLS-2005>
63.2088279724121

> <r_mmod_Bend_Energy-OPLS-2005>
137.691024780273

> <r_mmod_Torsional_Energy-OPLS-2005>
246.587142944336

> <r_mmod_Improper_Torsional_Energy-OPLS-2005>
1.67132234573364

> <r_mmod_Van_der_Waal_Energy-OPLS-2005>
147.000991821289

> <r_mmod_Electrostatic_Energy-OPLS-2005>
-213.447189331055

> <r_mmod_Solvation_Energy-OPLS-2005>
-425.084747314453

> <b_mmod_Minimization_Converged-OPLS-2005>
0

> <r_mmod_RMS_Derivative-OPLS-2005>
6.07504940032959

$$$$
91
                    3D
 Structure written by MMmdl.
165173  0  0  1  0            999 V2000
  -30.6581  -14.5712   20.5123 C   0  0  0  0  0  0
  -30.4284  -12.3415   19.4501 C   0  0  0  0  0  0
  -29.5033  -12.4816   18.2209 C   0  0  0  0  0  0
  -28.0243  -12.3357   18.6319 C   0  0  0  0  0  0
  -27.6565  -13.2076   19.8617 C   0  0  2  0  0  0
  -28.7006  -13.0530   20.9910 C   0  0  0  0  0  0
  -25.2590  -13.8143   20.5628 C   0  0  0  0  0  0
  -24.1866  -13.0425   20.9169 C   0  0  0  0  0  0
  -24.6423  -11.6901   20.8775 C   0  0  0  0  0  0
  -23.9081  -10.4289   21.0444 C   0  0  0  0  0  0
  -24.3626   -9.4199   21.9215 C   0  0  0  0  0  0
  -23.6309   -8.2230   22.0768 C   0  0  0  0  0  0
  -22.4281   -8.0282   21.3564 C   0  0  0  0  0  0
  -21.9926   -9.0265   20.4669 C   0  0  0  0  0  0
  -22.7254  -10.2151   20.3092 C   0  0  0  0  0  0
  -21.6835   -6.0761   22.5284 C   0  0  0  0  0  0
  -21.4007   -6.5663   23.8222 C   0  0  0  0  0  0
  -21.3649   -5.6805   24.9176 C   0  0  0  0  0  0
  -21.6037   -4.3063   24.7227 C   0  0  0  0  0  0
  -21.8820   -3.8171   23.4336 C   0  0  0  0  0  0
  -21.9199   -4.6995   22.3398 C   0  0  0  0  0  0
  -22.7888  -13.5236   21.1832 C   0  0  0  0  0  0
  -22.1670   -4.2185   21.0981 F   0  0  0  0  0  0
  -21.5633   -3.4547   25.7737 F   0  0  0  0  0  0
  -30.0190  -13.3680   20.4238 N   0  0  0  0  0  0
  -26.3011  -12.9316   20.3321 N   0  0  0  0  0  0
  -25.9365  -11.6481   20.5827 N   0  0  0  0  0  0
  -22.0530  -12.8235   22.0370 N   0  0  0  0  0  0
  -25.4284  -15.1839   20.3919 N   0  0  0  0  0  0
  -31.8178  -14.7296   20.1271 O   0  0  0  0  0  0
  -21.6632   -6.8899   21.4238 O   0  0  0  0  0  0
  -22.3587  -14.5547   20.6672 O   0  0  0  0  0  0
  -24.6235  -31.8579   23.2029 C   0  0  0  0  0  0
  -25.9080  -32.4775   23.8346 C   0  0  1  0  0  0
  -27.2311  -27.3259   20.1166 C   0  0  0  0  0  0
  -25.5900  -33.8582   24.2254 N   0  0  0  0  0  0
  -23.4186  -30.4784   21.5443 C   0  0  2  0  0  0
  -24.8670  -28.9299   20.1119 C   0  0  0  0  0  0
  -22.7456  -29.4597   22.4951 C   0  0  0  0  0  0
  -18.0273  -28.1422   22.8453 C   0  0  0  0  0  0
  -24.1498  -36.7315   23.2646 C   0  0  0  0  0  0
  -25.9578  -30.7881   21.3754 C   0  0  0  0  0  0
  -26.0311  -29.4162   20.7178 C   0  0  0  0  0  0
  -27.2128  -28.6234   20.7117 C   0  0  0  0  0  0
  -26.0454  -26.8842   19.4904 C   0  0  0  0  0  0
  -24.8736  -27.6693   19.4930 C   0  0  0  0  0  0
  -23.6348  -29.8085   20.1603 C   0  0  0  0  0  0
  -25.4120  -36.3090   24.0321 C   0  0  1  0  0  0
  -20.5876  -28.3641   23.1293 C   0  0  2  0  0  0
  -20.6759  -26.9341   22.5434 C   0  0  0  0  0  0
  -19.5733  -26.6288   21.5240 C   0  0  0  0  0  0
  -18.1877  -26.7968   22.1565 C   0  0  0  0  0  0
  -19.1536  -28.8846   23.2878 C   0  0  0  0  0  0
  -18.9488  -30.1448   23.8914 C   0  0  0  0  0  0
  -17.6498  -30.6592   24.0612 C   0  0  0  0  0  0
  -25.9052  -34.9447   23.5093 C   0  0  0  0  0  0
  -16.5377  -29.9130   23.6366 C   0  0  0  0  0  0
  -16.7264  -28.6570   23.0328 C   0  0  0  0  0  0
  -26.4489  -31.6605   25.0724 C   0  0  0  0  0  0
  -25.3742  -31.3741   26.1471 C   0  0  0  0  0  0
  -27.0335  -30.3031   24.6183 C   0  0  0  0  0  0
  -27.6029  -32.4384   25.7491 C   0  0  0  0  0  0
  -27.5586  -37.1812   24.8449 C   0  0  0  0  0  0
  -21.4176  -29.2990   22.3665 N   0  0  0  0  0  0
  -26.4305  -37.3770   23.9398 N   0  0  0  0  0  0
  -24.6850  -31.0579   22.0983 N   0  0  0  0  0  0
  -23.4183  -28.8144   23.3023 O   0  0  0  0  0  0
  -28.3824  -26.5301   20.1654 O   0  0  0  0  0  0
  -26.5627  -34.8917   22.4671 O   0  0  0  0  0  0
  -23.5403  -32.1375   23.7374 O   0  0  0  0  0  0
  -27.8541  -22.7498   21.1913 C   0  0  0  0  0  0
  -29.9641  -22.9273   19.8688 C   0  0  0  0  0  0
  -27.5332  -24.2793   21.0339 C   0  0  0  0  0  0
  -29.7984  -24.4940   19.9170 C   0  0  0  0  0  0
  -28.6495  -22.1270   20.0124 C   0  0  1  0  0  0
  -28.3470  -25.0669   19.9591 C   0  0  2  0  0  0
  -27.2411  -20.0389   19.4946 C   0  0  0  0  0  0
  -29.0826  -19.8530   22.1895 C   0  0  0  0  0  0
  -30.2767  -17.0729   21.0060 C   0  0  0  0  0  0
  -29.2229  -18.1052   20.4382 C   0  0  0  0  0  0
  -28.6767  -20.5282   19.8008 C   0  0  2  0  0  0
  -29.8887  -15.6336   20.8731 N   0  0  0  0  0  0
  -29.3948  -19.5844   20.7650 N   0  3  1  0  0  0
  -31.4759  -12.4348   19.1576 H   0  0  0  0  0  0
  -30.3373  -11.3472   19.8903 H   0  0  0  0  0  0
  -29.7565  -11.7342   17.4658 H   0  0  0  0  0  0
  -29.6616  -13.4530   17.7534 H   0  0  0  0  0  0
  -27.8541  -11.2832   18.8635 H   0  0  0  0  0  0
  -27.3724  -12.5667   17.7923 H   0  0  0  0  0  0
  -27.6814  -14.2423   19.5198 H   0  0  0  0  0  0
  -28.7016  -12.0336   21.3789 H   0  0  0  0  0  0
  -28.4578  -13.6920   21.8392 H   0  0  0  0  0  0
  -25.2784   -9.5647   22.4782 H   0  0  0  0  0  0
  -24.0028   -7.4605   22.7467 H   0  0  0  0  0  0
  -21.0871   -8.8779   19.8965 H   0  0  0  0  0  0
  -22.3722  -10.9701   19.6197 H   0  0  0  0  0  0
  -21.1980   -7.6173   23.9724 H   0  0  0  0  0  0
  -21.1465   -6.0543   25.9078 H   0  0  0  0  0  0
  -22.0607   -2.7640   23.2822 H   0  0  0  0  0  0
  -22.4155  -11.9919   22.4784 H   0  0  0  0  0  0
  -21.1170  -13.1298   22.2598 H   0  0  0  0  0  0
  -24.6321  -15.8126   20.4094 H   0  0  0  0  0  0
  -26.2519  -15.5979   19.9742 H   0  0  0  0  0  0
  -26.7145  -32.5440   23.1095 H   0  0  0  0  0  0
  -24.9994  -33.9722   25.0363 H   0  0  0  0  0  0
  -22.7125  -31.2984   21.3992 H   0  0  0  0  0  0
  -23.3741  -35.9671   23.3315 H   0  0  0  0  0  0
  -24.3580  -36.8940   22.2059 H   0  0  0  0  0  0
  -23.7285  -37.6533   23.6676 H   0  0  0  0  0  0
  -26.0879  -31.5515   20.6076 H   0  0  0  0  0  0
  -26.8380  -30.8367   22.0018 H   0  0  0  0  0  0
  -28.1075  -28.9903   21.1924 H   0  0  0  0  0  0
  -26.0002  -25.9207   19.0028 H   0  0  0  0  0  0
  -23.9780  -27.2932   19.0167 H   0  0  0  0  0  0
  -23.7595  -30.5843   19.4041 H   0  0  0  0  0  0
  -22.7557  -29.2390   19.8563 H   0  0  0  0  0  0
  -25.1319  -36.1927   25.0814 H   0  0  0  0  0  0
  -20.9967  -28.3239   24.1429 H   0  0  0  0  0  0
  -20.5672  -26.2222   23.3635 H   0  0  0  0  0  0
  -21.6614  -26.7404   22.1197 H   0  0  0  0  0  0
  -19.6858  -25.6136   21.1387 H   0  0  0  0  0  0
  -19.6767  -27.3026   20.6718 H   0  0  0  0  0  0
  -17.4202  -26.6874   21.3873 H   0  0  0  0  0  0
  -18.0107  -26.0099   22.8921 H   0  0  0  0  0  0
  -19.7959  -30.7241   24.2323 H   0  0  0  0  0  0
  -17.5074  -31.6250   24.5274 H   0  0  0  0  0  0
  -15.5390  -30.3052   23.7724 H   0  0  0  0  0  0
  -15.8651  -28.0932   22.7011 H   0  0  0  0  0  0
  -24.5853  -30.7175   25.7803 H   0  0  0  0  0  0
  -24.9015  -32.2909   26.4998 H   0  0  0  0  0  0
  -25.8071  -30.8829   27.0187 H   0  0  0  0  0  0
  -26.2861  -29.6740   24.1328 H   0  0  0  0  0  0
  -27.4153  -29.7353   25.4675 H   0  0  0  0  0  0
  -27.8699  -30.4338   23.9309 H   0  0  0  0  0  0
  -27.2580  -33.3634   26.2131 H   0  0  0  0  0  0
  -28.3783  -32.7042   25.0294 H   0  0  0  0  0  0
  -28.0768  -31.8499   26.5355 H   0  0  0  0  0  0
  -28.2594  -38.0114   24.7483 H   0  0  0  0  0  0
  -28.1091  -36.2640   24.6287 H   0  0  0  0  0  0
  -27.2304  -37.1479   25.8852 H   0  0  0  0  0  0
  -20.9378  -29.8652   21.6807 H   0  0  0  0  0  0
  -26.0180  -38.2859   24.1361 H   0  0  0  0  0  0
  -26.9279  -22.2024   21.3611 H   0  0  0  0  0  0
  -28.4296  -22.6364   22.1093 H   0  0  0  0  0  0
  -30.6487  -22.6285   20.6638 H   0  0  0  0  0  0
  -30.4577  -22.6424   18.9390 H   0  0  0  0  0  0
  -27.6783  -24.7499   22.0047 H   0  0  0  0  0  0
  -26.4703  -24.3892   20.8219 H   0  0  0  0  0  0
  -30.3240  -24.9286   19.0665 H   0  0  0  0  0  0
  -30.3336  -24.8556   20.7962 H   0  0  0  0  0  0
  -28.0824  -22.4462   19.1362 H   0  0  0  0  0  0
  -27.9149  -24.8636   18.9785 H   0  0  0  0  0  0
  -27.2232  -19.0543   19.0270 H   0  0  0  0  0  0
  -26.7425  -20.6993   18.7874 H   0  0  0  0  0  0
  -26.6277  -19.9934   20.3943 H   0  0  0  0  0  0
  -29.5089  -20.8015   22.5113 H   0  0  0  0  0  0
  -29.5045  -19.0947   22.8478 H   0  0  0  0  0  0
  -28.0061  -19.8716   22.3632 H   0  0  0  0  0  0
  -30.4503  -17.2457   22.0669 H   0  0  0  0  0  0
  -31.2360  -17.2429   20.5134 H   0  0  0  0  0  0
  -28.2194  -17.8005   20.7360 H   0  0  0  0  0  0
  -29.2577  -17.9960   19.3546 H   0  0  0  0  0  0
  -29.2234  -20.3901   18.8653 H   0  0  0  0  0  0
  -28.9387  -15.4043   21.1286 H   0  0  0  0  0  0
  -30.3789  -19.7784   20.6523 H   0  0  0  0  0  0
  1 25  1  0  0  0
  1 30  2  0  0  0
  1 82  1  0  0  0
  2  3  1  0  0  0
  2 25  1  0  0  0
  2 84  1  0  0  0
  2 85  1  0  0  0
  3  4  1  0  0  0
  3 86  1  0  0  0
  3 87  1  0  0  0
  4  5  1  0  0  0
  4 88  1  0  0  0
  4 89  1  0  0  0
  5  6  1  0  0  0
  5 26  1  0  0  0
  5 90  1  0  0  0
  6 25  1  0  0  0
  6 91  1  0  0  0
  6 92  1  0  0  0
  7  8  2  0  0  0
  7 26  1  0  0  0
  7 29  1  0  0  0
  8  9  1  0  0  0
  8 22  1  0  0  0
  9 10  1  0  0  0
  9 27  2  0  0  0
 10 11  2  0  0  0
 10 15  1  0  0  0
 11 12  1  0  0  0
 11 93  1  0  0  0
 12 13  2  0  0  0
 12 94  1  0  0  0
 13 14  1  0  0  0
 13 31  1  0  0  0
 14 15  2  0  0  0
 14 95  1  0  0  0
 15 96  1  0  0  0
 16 17  2  0  0  0
 16 21  1  0  0  0
 16 31  1  0  0  0
 17 18  1  0  0  0
 17 97  1  0  0  0
 18 19  2  0  0  0
 18 98  1  0  0  0
 19 20  1  0  0  0
 19 24  1  0  0  0
 20 21  2  0  0  0
 20 99  1  0  0  0
 21 23  1  0  0  0
 22 28  1  0  0  0
 22 32  2  0  0  0
 26 27  1  0  0  0
 28100  1  0  0  0
 28101  1  0  0  0
 29102  1  0  0  0
 29103  1  0  0  0
 33 34  1  0  0  0
 33 66  1  0  0  0
 33 70  2  0  0  0
 34 36  1  0  0  0
 34 59  1  0  0  0
 34104  1  0  0  0
 35 44  2  0  0  0
 35 45  1  0  0  0
 35 68  1  0  0  0
 36 56  1  0  0  0
 36105  1  0  0  0
 37 39  1  0  0  0
 37 47  1  0  0  0
 37 66  1  0  0  0
 37106  1  0  0  0
 38 43  2  0  0  0
 38 46  1  0  0  0
 38 47  1  0  0  0
 39 64  1  0  0  0
 39 67  2  0  0  0
 40 52  1  0  0  0
 40 53  2  0  0  0
 40 58  1  0  0  0
 41107  1  0  0  0
 41108  1  0  0  0
 41109  1  0  0  0
 41 48  1  0  0  0
 42 43  1  0  0  0
 42 66  1  0  0  0
 42110  1  0  0  0
 42111  1  0  0  0
 43 44  1  0  0  0
 44112  1  0  0  0
 45 46  2  0  0  0
 45113  1  0  0  0
 46114  1  0  0  0
 47115  1  0  0  0
 47116  1  0  0  0
 48 56  1  0  0  0
 48 65  1  0  0  0
 48117  1  0  0  0
 49 50  1  0  0  0
 49 53  1  0  0  0
 49 64  1  0  0  0
 49118  1  0  0  0
 50 51  1  0  0  0
 50119  1  0  0  0
 50120  1  0  0  0
 51 52  1  0  0  0
 51121  1  0  0  0
 51122  1  0  0  0
 52123  1  0  0  0
 52124  1  0  0  0
 53 54  1  0  0  0
 54 55  2  0  0  0
 54125  1  0  0  0
 55 57  1  0  0  0
 55126  1  0  0  0
 56 69  2  0  0  0
 57 58  2  0  0  0
 57127  1  0  0  0
 58128  1  0  0  0
 59 60  1  0  0  0
 59 61  1  0  0  0
 59 62  1  0  0  0
 60129  1  0  0  0
 60130  1  0  0  0
 60131  1  0  0  0
 61132  1  0  0  0
 61133  1  0  0  0
 61134  1  0  0  0
 62135  1  0  0  0
 62136  1  0  0  0
 62137  1  0  0  0
 63 65  1  0  0  0
 63138  1  0  0  0
 63139  1  0  0  0
 63140  1  0  0  0
 64141  1  0  0  0
 65142  1  0  0  0
 68 76  1  0  0  0
 71 73  1  0  0  0
 71143  1  0  0  0
 71144  1  0  0  0
 71 75  1  0  0  0
 72 74  1  0  0  0
 72 75  1  0  0  0
 72145  1  0  0  0
 72146  1  0  0  0
 73 76  1  0  0  0
 73147  1  0  0  0
 73148  1  0  0  0
 74 76  1  0  0  0
 74149  1  0  0  0
 74150  1  0  0  0
 75 81  1  0  0  0
 75151  1  0  0  0
 76152  1  0  0  0
 77153  1  0  0  0
 77154  1  0  0  0
 77155  1  0  0  0
 77 81  1  0  0  0
 78156  1  0  0  0
 78157  1  0  0  0
 78158  1  0  0  0
 78 83  1  0  0  0
 79 80  1  0  0  0
 79 82  1  0  0  0
 79159  1  0  0  0
 79160  1  0  0  0
 80 83  1  0  0  0
 80161  1  0  0  0
 80162  1  0  0  0
 81 83  1  0  0  0
 81163  1  0  0  0
 82164  1  0  0  0
 83165  1  0  0  0
M  CHG  1  83   1
M  ISO  4   1 100  68 101  76 101  82 100
M  END
> <chiral flag>
0

> <version>
0

> <s_m_source_file>
/data/baiqing/PycharmProjects/Reinvent-master-3.2/result/LINK_invent/BTK/process_docking_weight1_custom_sum_contain_oxygen_bond_distance_aromatic_linkinvent_7_9_3/rearranged_h_0105.sdf

> <i_m_source_file_index>
92

> <r_mmod_Potential_Energy-OPLS-2005>
-25.3138961791992

> <r_mmod_Stretch_Energy-OPLS-2005>
74.8594207763672

> <r_mmod_Bend_Energy-OPLS-2005>
160.604461669922

> <r_mmod_Torsional_Energy-OPLS-2005>
275.489501953125

> <r_mmod_Improper_Torsional_Energy-OPLS-2005>
4.75412464141846

> <r_mmod_Van_der_Waal_Energy-OPLS-2005>
134.228439331055

> <r_mmod_Electrostatic_Energy-OPLS-2005>
-259.829437255859

> <r_mmod_Solvation_Energy-OPLS-2005>
-451.650482177734

> <b_mmod_Minimization_Converged-OPLS-2005>
0

> <r_mmod_RMS_Derivative-OPLS-2005>
3.91872978210449

$$$$
92
                    3D
 Structure written by MMmdl.
159167  0  0  1  0            999 V2000
  -30.7057  -14.5990   20.4955 C   0  0  0  0  0  0
  -30.4277  -12.3800   19.4303 C   0  0  0  0  0  0
  -29.4869  -12.5029   18.2113 C   0  0  0  0  0  0
  -28.0168  -12.3473   18.6435 C   0  0  0  0  0  0
  -27.6555  -13.2281   19.8695 C   0  0  2  0  0  0
  -28.7144  -13.0853   20.9890 C   0  0  0  0  0  0
  -25.2562  -13.8208   20.5735 C   0  0  0  0  0  0
  -24.1803  -13.0446   20.9225 C   0  0  0  0  0  0
  -24.6377  -11.6940   20.8786 C   0  0  0  0  0  0
  -23.9051  -10.4287   21.0434 C   0  0  0  0  0  0
  -24.3591   -9.4191   21.9198 C   0  0  0  0  0  0
  -23.6270   -8.2238   22.0747 C   0  0  0  0  0  0
  -22.4260   -8.0278   21.3540 C   0  0  0  0  0  0
  -21.9893   -9.0251   20.4656 C   0  0  0  0  0  0
  -22.7224  -10.2136   20.3076 C   0  0  0  0  0  0
  -21.6835   -6.0726   22.5271 C   0  0  0  0  0  0
  -21.3992   -6.5630   23.8202 C   0  0  0  0  0  0
  -21.3661   -5.6786   24.9165 C   0  0  0  0  0  0
  -21.6058   -4.3051   24.7218 C   0  0  0  0  0  0
  -21.8819   -3.8143   23.4336 C   0  0  0  0  0  0
  -21.9180   -4.6955   22.3390 C   0  0  0  0  0  0
  -22.7836  -13.5253   21.1878 C   0  0  0  0  0  0
  -22.1658   -4.2144   21.0975 F   0  0  0  0  0  0
  -21.5637   -3.4545   25.7735 F   0  0  0  0  0  0
  -30.0274  -13.4111   20.4103 N   0  0  0  0  0  0
  -26.3007  -12.9418   20.3449 N   0  0  0  0  0  0
  -25.9333  -11.6562   20.5862 N   0  0  0  0  0  0
  -22.0491  -12.8200   22.0435 N   0  0  0  0  0  0
  -25.4322  -15.1904   20.4119 N   0  0  0  0  0  0
  -31.8708  -14.6983   20.1088 O   0  0  0  0  0  0
  -21.6633   -6.8871   21.4234 O   0  0  0  0  0  0
  -22.3513  -14.5558   20.6752 O   0  0  0  0  0  0
  -24.6332  -31.8584   23.1981 C   0  0  0  0  0  0
  -25.9146  -32.4788   23.8313 C   0  0  1  0  0  0
  -27.1960  -27.2846   20.0982 C   0  0  0  0  0  0
  -25.5913  -33.8582   24.2250 N   0  0  0  0  0  0
  -23.4238  -30.4889   21.5482 C   0  0  2  0  0  0
  -24.8641  -28.9583   20.1088 C   0  0  0  0  0  0
  -22.7528  -29.4632   22.4938 C   0  0  0  0  0  0
  -18.0288  -28.1417   22.8472 C   0  0  0  0  0  0
  -24.1466  -36.7334   23.2639 C   0  0  0  0  0  0
  -25.9681  -30.7921   21.3562 C   0  0  0  0  0  0
  -26.0424  -29.4117   20.7124 C   0  0  0  0  0  0
  -27.2126  -28.5821   20.7126 C   0  0  0  0  0  0
  -25.9933  -26.9379   19.4239 C   0  0  0  0  0  0
  -24.8412  -27.7223   19.4635 C   0  0  0  0  0  0
  -23.6329  -29.8312   20.1638 C   0  0  0  0  0  0
  -25.4062  -36.3091   24.0343 C   0  0  1  0  0  0
  -20.5894  -28.3703   23.1272 C   0  0  2  0  0  0
  -20.6785  -26.9422   22.5381 C   0  0  0  0  0  0
  -19.5737  -26.6386   21.5218 C   0  0  0  0  0  0
  -18.1906  -26.7944   22.1627 C   0  0  0  0  0  0
  -19.1551  -28.8873   23.2861 C   0  0  0  0  0  0
  -18.9489  -30.1474   23.8881 C   0  0  0  0  0  0
  -17.6505  -30.6612   24.0572 C   0  0  0  0  0  0
  -25.9022  -34.9475   23.5079 C   0  0  0  0  0  0
  -16.5385  -29.9117   23.6373 C   0  0  0  0  0  0
  -16.7282  -28.6559   23.0329 C   0  0  0  0  0  0
  -26.4519  -31.6589   25.0685 C   0  0  0  0  0  0
  -25.3748  -31.3699   26.1407 C   0  0  0  0  0  0
  -27.0369  -30.3067   24.5978 C   0  0  0  0  0  0
  -27.6040  -32.4348   25.7475 C   0  0  0  0  0  0
  -27.5528  -37.1786   24.8473 C   0  0  0  0  0  0
  -21.4229  -29.3093   22.3716 N   0  0  0  0  0  0
  -26.4232  -37.3785   23.9430 N   0  0  0  0  0  0
  -24.6978  -31.0563   22.0959 N   0  0  0  0  0  0
  -23.4267  -28.8114   23.2972 O   0  0  0  0  0  0
  -28.2332  -26.3196   20.1990 O   0  0  0  0  0  0
  -26.5605  -34.8961   22.4661 O   0  0  0  0  0  0
  -23.5490  -32.1386   23.7301 O   0  0  0  0  0  0
  -28.1983  -21.1343   21.0110 C   0  0  0  0  0  0
  -30.2624  -22.0651   20.2677 C   0  0  0  0  0  0
  -27.6148  -22.4319   20.8432 C   0  0  0  0  0  0
  -29.5577  -20.9002   20.6907 C   0  0  0  0  0  0
  -28.4217  -23.5393   20.3929 C   0  0  0  0  0  0
  -23.7775  -21.7614   21.7795 C   0  0  0  0  0  0
  -26.1021  -22.6277   21.0786 C   0  0  0  0  0  0
  -27.7570  -24.9186   19.9563 C   0  0  0  0  0  0
  -25.2822  -21.4429   21.6382 C   0  0  0  0  0  0
  -30.4706  -17.1340   20.5134 C   0  0  0  0  0  0
  -29.6444  -18.3577   21.1007 C   0  0  0  0  0  0
  -29.7294  -23.3170   20.1139 N   0  0  0  0  0  0
  -30.0015  -15.7273   20.7935 N   0  0  0  0  0  0
  -30.2289  -19.6537   20.7207 O   0  0  0  0  0  0
  -31.4679  -12.4748   19.1112 H   0  0  0  0  0  0
  -30.3556  -11.3911   19.8812 H   0  0  0  0  0  0
  -29.7381  -11.7545   17.4592 H   0  0  0  0  0  0
  -29.6185  -13.4735   17.7311 H   0  0  0  0  0  0
  -27.8491  -11.2970   18.8856 H   0  0  0  0  0  0
  -27.3484  -12.5701   17.8123 H   0  0  0  0  0  0
  -27.6701  -14.2629   19.5240 H   0  0  0  0  0  0
  -28.7245  -12.0581   21.3576 H   0  0  0  0  0  0
  -28.4868  -13.7190   21.8473 H   0  0  0  0  0  0
  -25.2722   -9.5672   22.4785 H   0  0  0  0  0  0
  -23.9986   -7.4609   22.7436 H   0  0  0  0  0  0
  -21.0837   -8.8763   19.8940 H   0  0  0  0  0  0
  -22.3672  -10.9679   19.6193 H   0  0  0  0  0  0
  -21.1972   -7.6140   23.9689 H   0  0  0  0  0  0
  -21.1500   -6.0533   25.9067 H   0  0  0  0  0  0
  -22.0603   -2.7615   23.2842 H   0  0  0  0  0  0
  -22.4105  -11.9784   22.4682 H   0  0  0  0  0  0
  -21.1162  -13.1283   22.2809 H   0  0  0  0  0  0
  -24.6711  -15.8574   20.4724 H   0  0  0  0  0  0
  -26.2942  -15.6040   20.0791 H   0  0  0  0  0  0
  -26.7215  -32.5509   23.1070 H   0  0  0  0  0  0
  -25.0102  -33.9694   25.0422 H   0  0  0  0  0  0
  -22.7213  -31.3118   21.4019 H   0  0  0  0  0  0
  -23.3723  -35.9671   23.3312 H   0  0  0  0  0  0
  -24.3562  -36.8940   22.2047 H   0  0  0  0  0  0
  -23.7239  -37.6533   23.6689 H   0  0  0  0  0  0
  -26.0418  -31.5328   20.5590 H   0  0  0  0  0  0
  -26.8740  -30.8863   21.9444 H   0  0  0  0  0  0
  -28.1024  -28.9132   21.2277 H   0  0  0  0  0  0
  -25.8566  -26.0110   18.8897 H   0  0  0  0  0  0
  -23.9350  -27.3680   18.9904 H   0  0  0  0  0  0
  -23.7402  -30.6034   19.4023 H   0  0  0  0  0  0
  -22.7572  -29.2483   19.8694 H   0  0  0  0  0  0
  -25.1221  -36.1906   25.0826 H   0  0  0  0  0  0
  -20.9955  -28.3242   24.1412 H   0  0  0  0  0  0
  -20.5704  -26.2300   23.3570 H   0  0  0  0  0  0
  -21.6628  -26.7454   22.1113 H   0  0  0  0  0  0
  -19.6886  -25.6296   21.1237 H   0  0  0  0  0  0
  -19.6658  -27.3220   20.6764 H   0  0  0  0  0  0
  -17.4152  -26.6722   21.4037 H   0  0  0  0  0  0
  -18.0286  -26.0082   22.9024 H   0  0  0  0  0  0
  -19.7977  -30.7274   24.2220 H   0  0  0  0  0  0
  -17.5081  -31.6295   24.5163 H   0  0  0  0  0  0
  -15.5389  -30.3029   23.7713 H   0  0  0  0  0  0
  -15.8669  -28.0914   22.7019 H   0  0  0  0  0  0
  -24.5939  -30.7007   25.7760 H   0  0  0  0  0  0
  -24.8932  -32.2872   26.4839 H   0  0  0  0  0  0
  -25.8084  -30.8888   27.0191 H   0  0  0  0  0  0
  -26.2911  -29.6830   24.1030 H   0  0  0  0  0  0
  -27.4237  -29.7253   25.4356 H   0  0  0  0  0  0
  -27.8677  -30.4475   23.9054 H   0  0  0  0  0  0
  -27.2633  -33.3710   26.1929 H   0  0  0  0  0  0
  -28.3937  -32.6796   25.0361 H   0  0  0  0  0  0
  -28.0609  -31.8538   26.5505 H   0  0  0  0  0  0
  -28.2514  -38.0107   24.7536 H   0  0  0  0  0  0
  -28.1043  -36.2640   24.6277 H   0  0  0  0  0  0
  -27.2271  -37.1401   25.8879 H   0  0  0  0  0  0
  -20.9406  -29.8950   21.7027 H   0  0  0  0  0  0
  -26.0127  -38.2831   24.1510 H   0  0  0  0  0  0
  -27.5931  -20.3025   21.3404 H   0  0  0  0  0  0
  -31.3030  -21.9822   19.9884 H   0  0  0  0  0  0
  -23.2290  -20.9013   22.1649 H   0  0  0  0  0  0
  -23.3217  -22.0228   20.8224 H   0  0  0  0  0  0
  -23.5924  -22.5913   22.4664 H   0  0  0  0  0  0
  -25.6630  -22.9343   20.1267 H   0  0  0  0  0  0
  -25.9776  -23.4606   21.7698 H   0  0  0  0  0  0
  -26.8031  -24.8988   20.4691 H   0  0  0  0  0  0
  -27.5719  -24.8168   18.8830 H   0  0  0  0  0  0
  -25.3902  -20.5747   20.9891 H   0  0  0  0  0  0
  -25.6725  -21.1571   22.6157 H   0  0  0  0  0  0
  -31.5027  -17.2245   20.8572 H   0  0  0  0  0  0
  -30.5289  -17.2565   19.4296 H   0  0  0  0  0  0
  -29.6666  -18.2740   22.1883 H   0  0  0  0  0  0
  -28.5991  -18.2681   20.8037 H   0  0  0  0  0  0
  -29.0502  -15.5996   21.1000 H   0  0  0  0  0  0
  1 25  1  0  0  0
  1 30  2  0  0  0
  1 83  1  0  0  0
  2  3  1  0  0  0
  2 25  1  0  0  0
  2 85  1  0  0  0
  2 86  1  0  0  0
  3  4  1  0  0  0
  3 87  1  0  0  0
  3 88  1  0  0  0
  4  5  1  0  0  0
  4 89  1  0  0  0
  4 90  1  0  0  0
  5  6  1  0  0  0
  5 26  1  0  0  0
  5 91  1  0  0  0
  6 25  1  0  0  0
  6 92  1  0  0  0
  6 93  1  0  0  0
  7  8  2  0  0  0
  7 26  1  0  0  0
  7 29  1  0  0  0
  8  9  1  0  0  0
  8 22  1  0  0  0
  9 10  1  0  0  0
  9 27  2  0  0  0
 10 11  2  0  0  0
 10 15  1  0  0  0
 11 12  1  0  0  0
 11 94  1  0  0  0
 12 13  2  0  0  0
 12 95  1  0  0  0
 13 14  1  0  0  0
 13 31  1  0  0  0
 14 15  2  0  0  0
 14 96  1  0  0  0
 15 97  1  0  0  0
 16 17  2  0  0  0
 16 21  1  0  0  0
 16 31  1  0  0  0
 17 18  1  0  0  0
 17 98  1  0  0  0
 18 19  2  0  0  0
 18 99  1  0  0  0
 19 20  1  0  0  0
 19 24  1  0  0  0
 20 21  2  0  0  0
 20100  1  0  0  0
 21 23  1  0  0  0
 22 28  1  0  0  0
 22 32  2  0  0  0
 26 27  1  0  0  0
 28101  1  0  0  0
 28102  1  0  0  0
 29103  1  0  0  0
 29104  1  0  0  0
 33 34  1  0  0  0
 33 66  1  0  0  0
 33 70  2  0  0  0
 34 36  1  0  0  0
 34 59  1  0  0  0
 34105  1  0  0  0
 35 44  2  0  0  0
 35 45  1  0  0  0
 35 68  1  0  0  0
 36 56  1  0  0  0
 36106  1  0  0  0
 37 39  1  0  0  0
 37 47  1  0  0  0
 37 66  1  0  0  0
 37107  1  0  0  0
 38 43  2  0  0  0
 38 46  1  0  0  0
 38 47  1  0  0  0
 39 64  1  0  0  0
 39 67  2  0  0  0
 40 52  1  0  0  0
 40 53  2  0  0  0
 40 58  1  0  0  0
 41108  1  0  0  0
 41109  1  0  0  0
 41110  1  0  0  0
 41 48  1  0  0  0
 42 43  1  0  0  0
 42 66  1  0  0  0
 42111  1  0  0  0
 42112  1  0  0  0
 43 44  1  0  0  0
 44113  1  0  0  0
 45 46  2  0  0  0
 45114  1  0  0  0
 46115  1  0  0  0
 47116  1  0  0  0
 47117  1  0  0  0
 48 56  1  0  0  0
 48 65  1  0  0  0
 48118  1  0  0  0
 49 50  1  0  0  0
 49 53  1  0  0  0
 49 64  1  0  0  0
 49119  1  0  0  0
 50 51  1  0  0  0
 50120  1  0  0  0
 50121  1  0  0  0
 51 52  1  0  0  0
 51122  1  0  0  0
 51123  1  0  0  0
 52124  1  0  0  0
 52125  1  0  0  0
 53 54  1  0  0  0
 54 55  2  0  0  0
 54126  1  0  0  0
 55 57  1  0  0  0
 55127  1  0  0  0
 56 69  2  0  0  0
 57 58  2  0  0  0
 57128  1  0  0  0
 58129  1  0  0  0
 59 60  1  0  0  0
 59 61  1  0  0  0
 59 62  1  0  0  0
 60130  1  0  0  0
 60131  1  0  0  0
 60132  1  0  0  0
 61133  1  0  0  0
 61134  1  0  0  0
 61135  1  0  0  0
 62136  1  0  0  0
 62137  1  0  0  0
 62138  1  0  0  0
 63 65  1  0  0  0
 63139  1  0  0  0
 63140  1  0  0  0
 63141  1  0  0  0
 64142  1  0  0  0
 65143  1  0  0  0
 68 78  1  0  0  0
 71 73  2  0  0  0
 71 74  1  0  0  0
 71144  1  0  0  0
 72 74  2  0  0  0
 72 82  1  0  0  0
 72145  1  0  0  0
 73 75  1  0  0  0
 73 77  1  0  0  0
 74 84  1  0  0  0
 75 78  1  0  0  0
 75 82  2  0  0  0
 76 79  1  0  0  0
 76146  1  0  0  0
 76147  1  0  0  0
 76148  1  0  0  0
 77 79  1  0  0  0
 77149  1  0  0  0
 77150  1  0  0  0
 78151  1  0  0  0
 78152  1  0  0  0
 79153  1  0  0  0
 79154  1  0  0  0
 80 81  1  0  0  0
 80 83  1  0  0  0
 80155  1  0  0  0
 80156  1  0  0  0
 81 84  1  0  0  0
 81157  1  0  0  0
 81158  1  0  0  0
 83159  1  0  0  0
M  ISO  4   1 100  68 101  78 101  83 100
M  END
> <chiral flag>
0

> <version>
0

> <s_m_source_file>
/data/baiqing/PycharmProjects/Reinvent-master-3.2/result/LINK_invent/BTK/process_docking_weight1_custom_sum_contain_oxygen_bond_distance_aromatic_linkinvent_7_9_3/rearranged_h_0105.sdf

> <i_m_source_file_index>
93

> <r_mmod_Potential_Energy-OPLS-2005>
34.2759895324707

> <r_mmod_Stretch_Energy-OPLS-2005>
95.561393737793

> <r_mmod_Bend_Energy-OPLS-2005>
179.68522644043

> <r_mmod_Torsional_Energy-OPLS-2005>
207.927993774414

> <r_mmod_Improper_Torsional_Energy-OPLS-2005>
7.23514270782471

> <r_mmod_Van_der_Waal_Energy-OPLS-2005>
171.701110839844

> <r_mmod_Electrostatic_Energy-OPLS-2005>
-456.813323974609

> <r_mmod_Solvation_Energy-OPLS-2005>
-233.01708984375

> <b_mmod_Minimization_Converged-OPLS-2005>
0

> <r_mmod_RMS_Derivative-OPLS-2005>
7.19845819473267

$$$$
93
                    3D
 Structure written by MMmdl.
167175  0  0  1  0            999 V2000
  -30.6217  -14.4637   20.2381 C   0  0  0  0  0  0
  -30.4296  -12.1878   19.4319 C   0  0  0  0  0  0
  -29.3926  -12.1460   18.2762 C   0  0  0  0  0  0
  -27.9509  -11.9894   18.8735 C   0  0  0  0  0  0
  -27.7131  -13.0783   19.9548 C   0  0  2  0  0  0
  -28.7822  -13.0519   21.0480 C   0  0  0  0  0  0
  -25.4637  -14.7782   20.5620 C   0  0  0  0  0  0
  -24.3790  -13.7030   20.9736 C   0  0  0  0  0  0
  -24.6794  -12.2140   20.9473 C   0  0  0  0  0  0
  -23.9470  -10.7845   21.0704 C   0  0  0  0  0  0
  -24.3966   -9.6993   21.9072 C   0  0  0  0  0  0
  -23.7071   -8.4453   22.0570 C   0  0  0  0  0  0
  -22.5051   -8.1746   21.3572 C   0  0  0  0  0  0
  -22.0762   -9.1899   20.4737 C   0  0  0  0  0  0
  -22.7697  -10.4341   20.3348 C   0  0  0  0  0  0
  -21.7509   -6.1412   22.5147 C   0  0  0  0  0  0
  -21.4503   -6.6075   23.8145 C   0  0  0  0  0  0
  -21.3827   -5.7068   24.9022 C   0  0  0  0  0  0
  -21.6032   -4.3328   24.7013 C   0  0  0  0  0  0
  -21.8747   -3.8538   23.4088 C   0  0  0  0  0  0
  -21.9377   -4.7496   22.3204 C   0  0  0  0  0  0
  -22.8747  -13.8214   21.2593 C   0  0  0  0  0  0
  -22.1749   -4.2588   21.0808 F   0  0  0  0  0  0
  -21.5495   -3.4715   25.7467 F   0  0  0  0  0  0
  -30.0627  -13.2493   20.3796 N   0  0  0  0  0  0
  -26.3436  -13.4439   20.4837 N   0  0  0  0  0  0
  -25.9268  -12.1656   20.7785 N   0  0  0  0  0  0
  -22.3031  -12.9970   22.1488 N   0  0  0  0  0  0
  -25.6966  -16.9862   19.0610 N   0  0  0  0  0  0
  -31.8369  -14.6485   20.2717 O   0  0  0  0  0  0
  -21.7744   -6.9878   21.4158 O   0  0  0  0  0  0
  -22.1284  -14.5851   20.6871 O   0  0  0  0  0  0
  -24.6880  -31.7936   23.1559 C   0  0  0  0  0  0
  -25.9471  -32.4409   23.8030 C   0  0  1  0  0  0
  -26.7124  -26.3892   20.3921 C   0  0  0  0  0  0
  -25.6047  -33.8268   24.1877 N   0  0  0  0  0  0
  -23.4983  -30.4289   21.5112 C   0  0  2  0  0  0
  -24.8829  -28.7574   20.0894 C   0  0  0  0  0  0
  -22.7725  -29.4344   22.4580 C   0  0  0  0  0  0
  -18.0339  -28.1438   22.8426 C   0  0  0  0  0  0
  -24.1499  -36.7145   23.2642 C   0  0  0  0  0  0
  -26.0814  -30.4142   21.4752 C   0  0  0  0  0  0
  -26.0514  -28.9669   20.8238 C   0  0  0  0  0  0
  -26.9831  -27.7964   20.9459 C   0  0  0  0  0  0
  -25.6733  -26.4938   19.4654 C   0  0  0  0  0  0
  -24.7687  -27.5758   19.3527 C   0  0  0  0  0  0
  -23.7450  -29.7809   20.1215 C   0  0  0  0  0  0
  -25.4170  -36.2884   24.0247 C   0  0  1  0  0  0
  -20.5944  -28.3817   23.1088 C   0  0  2  0  0  0
  -20.6809  -26.9467   22.5388 C   0  0  0  0  0  0
  -19.5787  -26.6356   21.5215 C   0  0  0  0  0  0
  -18.1967  -26.7963   22.1592 C   0  0  0  0  0  0
  -19.1591  -28.8967   23.2729 C   0  0  0  0  0  0
  -18.9486  -30.1533   23.8810 C   0  0  0  0  0  0
  -17.6475  -30.6608   24.0570 C   0  0  0  0  0  0
  -25.9155  -34.9278   23.4897 C   0  0  0  0  0  0
  -16.5375  -29.9073   23.6358 C   0  0  0  0  0  0
  -16.7310  -28.6498   23.0359 C   0  0  0  0  0  0
  -26.4601  -31.6566   25.0744 C   0  0  0  0  0  0
  -25.3566  -31.4011   26.1292 C   0  0  0  0  0  0
  -27.0613  -30.2889   24.6904 C   0  0  0  0  0  0
  -27.6046  -32.4506   25.7509 C   0  0  0  0  0  0
  -27.5577  -37.1727   24.8435 C   0  0  0  0  0  0
  -21.4371  -29.3032   22.3353 N   0  0  0  0  0  0
  -26.4280  -37.3664   23.9378 N   0  0  0  0  0  0
  -24.7853  -30.9264   22.0912 N   0  0  0  0  0  0
  -23.4192  -28.7923   23.2901 O   0  0  0  0  0  0
  -27.1926  -24.8938   20.6135 O   0  0  0  0  0  0
  -26.5828  -34.8862   22.4530 O   0  0  0  0  0  0
  -23.5893  -32.1148   23.6467 O   0  0  0  0  0  0
  -23.9092  -16.5402   20.3217 C   0  0  0  0  0  0
  -24.1959  -15.3655   18.7686 C   0  0  0  0  0  0
  -26.0670  -14.9161   18.3490 C   0  0  0  0  0  0
  -25.3351  -17.3882   21.2438 C   0  0  0  0  0  0
  -27.4044  -15.6774   19.6041 C   0  0  0  0  0  0
  -23.0147  -14.9879   17.8829 C   0  0  0  0  0  0
  -27.6735  -15.4300   16.4235 C   0  0  0  0  0  0
  -25.3532  -14.8972   15.8881 C   0  0  0  0  0  0
  -25.4321  -23.6178   21.9918 C   0  0  0  0  0  0
  -25.4000  -19.3779   21.2570 C   0  0  0  0  0  0
  -28.8802  -16.0835   19.3433 C   0  0  0  0  0  0
  -26.4180  -21.1592   20.8947 C   0  0  0  0  0  0
  -26.4663  -14.5999   16.8975 C   0  0  0  0  0  0
  -26.3073  -23.2415   20.7843 C   0  0  2  0  0  0
  -26.8961  -16.6786   20.9709 N   0  0  0  0  0  0
  -29.9872  -15.1278   19.2576 N   0  0  0  0  0  0
  -31.4337  -12.3360   19.0346 H   0  0  0  0  0  0
  -30.4456  -11.2312   19.9563 H   0  0  0  0  0  0
  -29.6074  -11.3104   17.6109 H   0  0  0  0  0  0
  -29.4645  -13.0322   17.6460 H   0  0  0  0  0  0
  -27.8786  -11.0048   19.3337 H   0  0  0  0  0  0
  -27.1879  -12.0054   18.0995 H   0  0  0  0  0  0
  -28.0085  -13.6808   19.1415 H   0  0  0  0  0  0
  -28.7710  -12.1055   21.5950 H   0  0  0  0  0  0
  -28.6072  -13.8465   21.7775 H   0  0  0  0  0  0
  -25.2966   -9.8575   22.4837 H   0  0  0  0  0  0
  -24.1175   -7.7000   22.7244 H   0  0  0  0  0  0
  -21.1843   -9.0255   19.8853 H   0  0  0  0  0  0
  -22.3617  -11.1677   19.6555 H   0  0  0  0  0  0
  -21.2730   -7.6586   23.9843 H   0  0  0  0  0  0
  -21.1626   -6.0727   25.8956 H   0  0  0  0  0  0
  -22.0265   -2.7965   23.2456 H   0  0  0  0  0  0
  -22.8452  -12.3246   22.6738 H   0  0  0  0  0  0
  -21.3083  -13.0351   22.3007 H   0  0  0  0  0  0
  -24.7507  -17.2426   19.3396 H   0  0  0  0  0  0
  -26.3747  -17.3174   19.7601 H   0  0  0  0  0  0
  -26.7533  -32.4725   23.0671 H   0  0  0  0  0  0
  -25.0009  -33.9308   24.9912 H   0  0  0  0  0  0
  -22.8237  -31.2741   21.3528 H   0  0  0  0  0  0
  -23.3797  -35.9415   23.3199 H   0  0  0  0  0  0
  -24.3552  -36.8942   22.2067 H   0  0  0  0  0  0
  -23.7177  -37.6269   23.6795 H   0  0  0  0  0  0
  -26.3578  -31.1147   20.6886 H   0  0  0  0  0  0
  -26.9164  -30.4407   22.1609 H   0  0  0  0  0  0
  -27.8252  -27.9089   21.6167 H   0  0  0  0  0  0
  -25.4196  -25.5994   18.9151 H   0  0  0  0  0  0
  -23.9067  -27.4356   18.7168 H   0  0  0  0  0  0
  -23.9827  -30.5587   19.3952 H   0  0  0  0  0  0
  -22.8233  -29.3199   19.7627 H   0  0  0  0  0  0
  -25.1360  -36.1637   25.0731 H   0  0  0  0  0  0
  -21.0054  -28.3504   24.1197 H   0  0  0  0  0  0
  -20.5704  -26.2452   23.3665 H   0  0  0  0  0  0
  -21.6666  -26.7429   22.1184 H   0  0  0  0  0  0
  -19.6922  -25.6233   21.1314 H   0  0  0  0  0  0
  -19.6723  -27.3118   20.6709 H   0  0  0  0  0  0
  -17.4230  -26.6714   21.3996 H   0  0  0  0  0  0
  -18.0328  -26.0153   22.9029 H   0  0  0  0  0  0
  -19.7963  -30.7372   24.2123 H   0  0  0  0  0  0
  -17.5024  -31.6276   24.5187 H   0  0  0  0  0  0
  -15.5366  -30.2945   23.7745 H   0  0  0  0  0  0
  -15.8706  -28.0815   22.7085 H   0  0  0  0  0  0
  -24.5724  -30.7438   25.7522 H   0  0  0  0  0  0
  -24.8773  -32.3290   26.4437 H   0  0  0  0  0  0
  -25.7558  -30.9290   27.0271 H   0  0  0  0  0  0
  -26.3381  -29.6363   24.2018 H   0  0  0  0  0  0
  -27.4019  -29.7540   25.5776 H   0  0  0  0  0  0
  -27.9380  -30.3991   24.0513 H   0  0  0  0  0  0
  -27.2632  -33.3953   26.1760 H   0  0  0  0  0  0
  -28.3972  -32.6859   25.0390 H   0  0  0  0  0  0
  -28.0600  -31.8880   26.5673 H   0  0  0  0  0  0
  -28.2511  -38.0118   24.7594 H   0  0  0  0  0  0
  -28.1179  -36.2642   24.6136 H   0  0  0  0  0  0
  -27.2309  -37.1201   25.8847 H   0  0  0  0  0  0
  -20.9655  -29.8741   21.6495 H   0  0  0  0  0  0
  -26.0111  -38.2707   24.1415 H   0  0  0  0  0  0
  -22.9227  -16.9665   20.4289 H   0  0  0  0  0  0
  -22.0691  -15.1970   18.3747 H   0  0  0  0  0  0
  -23.0206  -13.9241   17.6370 H   0  0  0  0  0  0
  -23.0041  -15.5861   16.9723 H   0  0  0  0  0  0
  -28.5911  -15.1562   16.9362 H   0  0  0  0  0  0
  -27.4943  -16.4969   16.5737 H   0  0  0  0  0  0
  -27.8710  -15.2875   15.3621 H   0  0  0  0  0  0
  -24.5123  -14.2205   15.9950 H   0  0  0  0  0  0
  -25.6904  -14.7607   14.8620 H   0  0  0  0  0  0
  -25.0223  -15.9357   15.9881 H   0  0  0  0  0  0
  -24.6910  -22.8479   22.2095 H   0  0  0  0  0  0
  -24.8835  -24.5424   21.8053 H   0  0  0  0  0  0
  -26.0290  -23.7689   22.8894 H   0  0  0  0  0  0
  -24.9726  -19.5686   22.2403 H   0  0  0  0  0  0
  -24.5594  -19.5313   20.5801 H   0  0  0  0  0  0
  -28.9087  -16.6926   18.4462 H   0  0  0  0  0  0
  -29.1768  -16.7982   20.1129 H   0  0  0  0  0  0
  -26.8640  -20.9350   19.9269 H   0  0  0  0  0  0
  -27.2526  -21.0439   21.5869 H   0  0  0  0  0  0
  -26.7243  -13.5528   16.7977 H   0  0  0  0  0  0
  -25.6484  -23.3276   19.9201 H   0  0  0  0  0  0
  -30.6584  -15.4359   18.5739 H   0  0  0  0  0  0
  1 25  1  0  0  0
  1 30  2  0  0  0
  1 86  1  0  0  0
  2  3  1  0  0  0
  2 25  1  0  0  0
  2 87  1  0  0  0
  2 88  1  0  0  0
  3  4  1  0  0  0
  3 89  1  0  0  0
  3 90  1  0  0  0
  4  5  1  0  0  0
  4 91  1  0  0  0
  4 92  1  0  0  0
  5  6  1  0  0  0
  5 26  1  0  0  0
  5 93  1  0  0  0
  6 25  1  0  0  0
  6 94  1  0  0  0
  6 95  1  0  0  0
  7  8  2  0  0  0
  7 26  1  0  0  0
  7 29  1  0  0  0
  8  9  1  0  0  0
  8 22  1  0  0  0
  9 10  1  0  0  0
  9 27  2  0  0  0
 10 11  2  0  0  0
 10 15  1  0  0  0
 11 12  1  0  0  0
 11 96  1  0  0  0
 12 13  2  0  0  0
 12 97  1  0  0  0
 13 14  1  0  0  0
 13 31  1  0  0  0
 14 15  2  0  0  0
 14 98  1  0  0  0
 15 99  1  0  0  0
 16 17  2  0  0  0
 16 21  1  0  0  0
 16 31  1  0  0  0
 17 18  1  0  0  0
 17100  1  0  0  0
 18 19  2  0  0  0
 18101  1  0  0  0
 19 20  1  0  0  0
 19 24  1  0  0  0
 20 21  2  0  0  0
 20102  1  0  0  0
 21 23  1  0  0  0
 22 28  1  0  0  0
 22 32  2  0  0  0
 26 27  1  0  0  0
 28103  1  0  0  0
 28104  1  0  0  0
 29105  1  0  0  0
 29106  1  0  0  0
 33 34  1  0  0  0
 33 66  1  0  0  0
 33 70  2  0  0  0
 34 36  1  0  0  0
 34 59  1  0  0  0
 34107  1  0  0  0
 35 44  2  0  0  0
 35 45  1  0  0  0
 35 68  1  0  0  0
 36 56  1  0  0  0
 36108  1  0  0  0
 37 39  1  0  0  0
 37 47  1  0  0  0
 37 66  1  0  0  0
 37109  1  0  0  0
 38 43  2  0  0  0
 38 46  1  0  0  0
 38 47  1  0  0  0
 39 64  1  0  0  0
 39 67  2  0  0  0
 40 52  1  0  0  0
 40 53  2  0  0  0
 40 58  1  0  0  0
 41110  1  0  0  0
 41111  1  0  0  0
 41112  1  0  0  0
 41 48  1  0  0  0
 42 43  1  0  0  0
 42 66  1  0  0  0
 42113  1  0  0  0
 42114  1  0  0  0
 43 44  1  0  0  0
 44115  1  0  0  0
 45 46  2  0  0  0
 45116  1  0  0  0
 46117  1  0  0  0
 47118  1  0  0  0
 47119  1  0  0  0
 48 56  1  0  0  0
 48 65  1  0  0  0
 48120  1  0  0  0
 49 50  1  0  0  0
 49 53  1  0  0  0
 49 64  1  0  0  0
 49121  1  0  0  0
 50 51  1  0  0  0
 50122  1  0  0  0
 50123  1  0  0  0
 51 52  1  0  0  0
 51124  1  0  0  0
 51125  1  0  0  0
 52126  1  0  0  0
 52127  1  0  0  0
 53 54  1  0  0  0
 54 55  2  0  0  0
 54128  1  0  0  0
 55 57  1  0  0  0
 55129  1  0  0  0
 56 69  2  0  0  0
 57 58  2  0  0  0
 57130  1  0  0  0
 58131  1  0  0  0
 59 60  1  0  0  0
 59 61  1  0  0  0
 59 62  1  0  0  0
 60132  1  0  0  0
 60133  1  0  0  0
 60134  1  0  0  0
 61135  1  0  0  0
 61136  1  0  0  0
 61137  1  0  0  0
 62138  1  0  0  0
 62139  1  0  0  0
 62140  1  0  0  0
 63 65  1  0  0  0
 63141  1  0  0  0
 63142  1  0  0  0
 63143  1  0  0  0
 64144  1  0  0  0
 65145  1  0  0  0
 68 84  1  0  0  0
 71 72  2  0  0  0
 71 74  1  0  0  0
 71146  1  0  0  0
 72 73  1  0  0  0
 72 76  1  0  0  0
 73 75  2  0  0  0
 73 83  1  0  0  0
 74 80  1  0  0  0
 74 85  2  0  0  0
 75 81  1  0  0  0
 75 85  1  0  0  0
 76147  1  0  0  0
 76148  1  0  0  0
 76149  1  0  0  0
 77150  1  0  0  0
 77151  1  0  0  0
 77152  1  0  0  0
 77 83  1  0  0  0
 78 83  1  0  0  0
 78153  1  0  0  0
 78154  1  0  0  0
 78155  1  0  0  0
 79156  1  0  0  0
 79157  1  0  0  0
 79158  1  0  0  0
 79 84  1  0  0  0
 80 82  1  0  0  0
 80159  1  0  0  0
 80160  1  0  0  0
 81 86  1  0  0  0
 81161  1  0  0  0
 81162  1  0  0  0
 82 84  1  0  0  0
 82163  1  0  0  0
 82164  1  0  0  0
 83165  1  0  0  0
 84166  1  0  0  0
 86167  1  0  0  0
M  ISO  4   1 100  68 101  84 101  86 100
M  END
> <chiral flag>
0

> <version>
0

> <s_m_source_file>
/data/baiqing/PycharmProjects/Reinvent-master-3.2/result/LINK_invent/BTK/process_docking_weight1_custom_sum_contain_oxygen_bond_distance_aromatic_linkinvent_7_9_3/rearranged_h_0105.sdf

> <i_m_source_file_index>
94

> <r_mmod_Potential_Energy-OPLS-2005>
13165.177734375

> <r_mmod_Stretch_Energy-OPLS-2005>
7808.71875

> <r_mmod_Bend_Energy-OPLS-2005>
1023.70971679688

> <r_mmod_Torsional_Energy-OPLS-2005>
507.003051757812

> <r_mmod_Improper_Torsional_Energy-OPLS-2005>
99.8125

> <r_mmod_Van_der_Waal_Energy-OPLS-2005>
2814.05517578125

> <r_mmod_Electrostatic_Energy-OPLS-2005>
-696.526733398438

> <r_mmod_Solvation_Energy-OPLS-2005>
-193.265487670898

> <b_mmod_Minimization_Converged-OPLS-2005>
0

> <r_mmod_RMS_Derivative-OPLS-2005>
12.6549520492554

$$$$
94
                    3D
 Structure written by MMmdl.
161168  0  0  1  0            999 V2000
  -30.4053  -15.2498   20.4076 C   0  0  0  0  0  0
  -30.4397  -12.8050   19.5401 C   0  0  0  0  0  0
  -29.5360  -12.5839   18.2983 C   0  0  0  0  0  0
  -28.0823  -12.3026   18.7171 C   0  0  0  0  0  0
  -27.6103  -13.2698   19.8305 C   0  0  2  0  0  0
  -28.6343  -13.4125   20.9762 C   0  0  0  0  0  0
  -25.2385  -13.8241   20.5737 C   0  0  0  0  0  0
  -24.1736  -13.0441   20.9289 C   0  0  0  0  0  0
  -24.6387  -11.6928   20.8792 C   0  0  0  0  0  0
  -23.9077  -10.4299   21.0442 C   0  0  0  0  0  0
  -24.3630   -9.4201   21.9215 C   0  0  0  0  0  0
  -23.6314   -8.2227   22.0743 C   0  0  0  0  0  0
  -22.4291   -8.0286   21.3552 C   0  0  0  0  0  0
  -21.9938   -9.0251   20.4645 C   0  0  0  0  0  0
  -22.7258  -10.2144   20.3071 C   0  0  0  0  0  0
  -21.6850   -6.0744   22.5300 C   0  0  0  0  0  0
  -21.4011   -6.5644   23.8236 C   0  0  0  0  0  0
  -21.3642   -5.6804   24.9203 C   0  0  0  0  0  0
  -21.6040   -4.3066   24.7261 C   0  0  0  0  0  0
  -21.8819   -3.8153   23.4384 C   0  0  0  0  0  0
  -21.9199   -4.6963   22.3432 C   0  0  0  0  0  0
  -22.7757  -13.5173   21.1954 C   0  0  0  0  0  0
  -22.1665   -4.2137   21.1019 F   0  0  0  0  0  0
  -21.5615   -3.4547   25.7777 F   0  0  0  0  0  0
  -29.8708  -13.9319   20.3710 N   0  0  0  0  0  0
  -26.2788  -12.9486   20.3204 N   0  0  0  0  0  0
  -25.9309  -11.6603   20.5730 N   0  0  0  0  0  0
  -22.0402  -12.8143   22.0494 N   0  0  0  0  0  0
  -25.4082  -15.1984   20.4152 N   0  0  0  0  0  0
  -31.6150  -15.2837   20.1426 O   0  0  0  0  0  0
  -21.6641   -6.8885   21.4262 O   0  0  0  0  0  0
  -22.3424  -14.5492   20.6819 O   0  0  0  0  0  0
  -24.6621  -31.8255   23.1725 C   0  0  0  0  0  0
  -25.9297  -32.4601   23.8193 C   0  0  1  0  0  0
  -27.2114  -26.9413   20.1781 C   0  0  0  0  0  0
  -25.5965  -33.8424   24.2119 N   0  0  0  0  0  0
  -23.4748  -30.4383   21.5219 C   0  0  2  0  0  0
  -24.9288  -28.8333   20.0988 C   0  0  0  0  0  0
  -22.7668  -29.4421   22.4785 C   0  0  0  0  0  0
  -18.0308  -28.1392   22.8431 C   0  0  0  0  0  0
  -24.1493  -36.7216   23.2655 C   0  0  0  0  0  0
  -26.0430  -30.6336   21.4025 C   0  0  0  0  0  0
  -26.1079  -29.2279   20.7407 C   0  0  0  0  0  0
  -27.2428  -28.3022   20.7563 C   0  0  0  0  0  0
  -26.0145  -26.7007   19.4664 C   0  0  0  0  0  0
  -24.9108  -27.5927   19.4384 C   0  0  0  0  0  0
  -23.7122  -29.7607   20.1430 C   0  0  0  0  0  0
  -25.4132  -36.2991   24.0322 C   0  0  1  0  0  0
  -20.5935  -28.3728   23.1168 C   0  0  2  0  0  0
  -20.6768  -26.9397   22.5397 C   0  0  0  0  0  0
  -19.5758  -26.6352   21.5191 C   0  0  0  0  0  0
  -18.1947  -26.7908   22.1606 C   0  0  0  0  0  0
  -19.1570  -28.8883   23.2782 C   0  0  0  0  0  0
  -18.9485  -30.1482   23.8808 C   0  0  0  0  0  0
  -17.6474  -30.6570   24.0552 C   0  0  0  0  0  0
  -25.9109  -34.9363   23.5049 C   0  0  0  0  0  0
  -16.5367  -29.9055   23.6349 C   0  0  0  0  0  0
  -16.7286  -28.6496   23.0319 C   0  0  0  0  0  0
  -26.4535  -31.6533   25.0718 C   0  0  0  0  0  0
  -25.3639  -31.3742   26.1362 C   0  0  0  0  0  0
  -27.0455  -30.2907   24.6489 C   0  0  0  0  0  0
  -27.6083  -32.4313   25.7434 C   0  0  0  0  0  0
  -27.5588  -37.1750   24.8467 C   0  0  0  0  0  0
  -21.4344  -29.3008   22.3532 N   0  0  0  0  0  0
  -26.4277  -37.3740   23.9433 N   0  0  0  0  0  0
  -24.7474  -30.9930   22.0850 N   0  0  0  0  0  0
  -23.4207  -28.7994   23.3035 O   0  0  0  0  0  0
  -28.2094  -25.8488   20.3371 O   0  0  0  0  0  0
  -26.5723  -34.8868   22.4653 O   0  0  0  0  0  0
  -23.5699  -32.1229   23.6829 O   0  0  0  0  0  0
  -25.8221  -21.8050   20.2481 C   0  0  0  0  0  0
  -26.1525  -23.6941   21.8166 C   0  0  0  0  0  0
  -26.8196  -21.4535   22.5289 C   0  0  0  0  0  0
  -30.3855  -21.4484   19.8810 C   0  0  0  0  0  0
  -29.7650  -18.1304   20.2073 C   0  0  0  0  0  0
  -28.8303  -19.6065   20.6820 C   0  0  0  0  0  0
  -28.2456  -24.2552   19.8894 C   0  0  0  0  0  0
  -28.2502  -22.6304   20.7020 C   0  0  1  0  0  0
  -26.7976  -22.3844   21.2958 C   0  0  0  0  0  0
  -29.6050  -16.4951   20.5388 N   0  0  0  0  0  0
  -28.9517  -21.1943   20.1386 N   0  3  1  0  0  0
  -31.4589  -13.0208   19.2142 H   0  0  0  0  0  0
  -30.5181  -11.8906   20.1291 H   0  0  0  0  0  0
  -29.9172  -11.7600   17.6954 H   0  0  0  0  0  0
  -29.5615  -13.4710   17.6646 H   0  0  0  0  0  0
  -28.0393  -11.2769   19.0827 H   0  0  0  0  0  0
  -27.4142  -12.3503   17.8560 H   0  0  0  0  0  0
  -27.5351  -14.2392   19.3382 H   0  0  0  0  0  0
  -28.7947  -12.4578   21.4798 H   0  0  0  0  0  0
  -28.2675  -14.1071   21.7342 H   0  0  0  0  0  0
  -25.2765   -9.5664   22.4795 H   0  0  0  0  0  0
  -24.0034   -7.4597   22.7435 H   0  0  0  0  0  0
  -21.0872   -8.8777   19.8933 H   0  0  0  0  0  0
  -22.3730  -10.9691   19.6177 H   0  0  0  0  0  0
  -21.1987   -7.6150   23.9735 H   0  0  0  0  0  0
  -21.1451   -6.0539   25.9112 H   0  0  0  0  0  0
  -22.0603   -2.7605   23.2900 H   0  0  0  0  0  0
  -22.4057  -11.9830   22.4901 H   0  0  0  0  0  0
  -21.0982  -13.1105   22.2668 H   0  0  0  0  0  0
  -24.6396  -15.8512   20.5236 H   0  0  0  0  0  0
  -26.2351  -15.6253   20.0179 H   0  0  0  0  0  0
  -26.7365  -32.5138   23.0898 H   0  0  0  0  0  0
  -24.9991  -33.9520   25.0182 H   0  0  0  0  0  0
  -22.7845  -31.2707   21.3560 H   0  0  0  0  0  0
  -23.3786  -35.9513   23.3264 H   0  0  0  0  0  0
  -24.3587  -36.8931   22.2087 H   0  0  0  0  0  0
  -23.7204  -37.6373   23.6734 H   0  0  0  0  0  0
  -26.2343  -31.3784   20.6292 H   0  0  0  0  0  0
  -26.8992  -30.6763   22.0644 H   0  0  0  0  0  0
  -28.1325  -28.6015   21.2935 H   0  0  0  0  0  0
  -25.8833  -25.7499   18.9686 H   0  0  0  0  0  0
  -24.0217  -27.2942   18.9012 H   0  0  0  0  0  0
  -23.8611  -30.5357   19.3884 H   0  0  0  0  0  0
  -22.8183  -29.2190   19.8313 H   0  0  0  0  0  0
  -25.1318  -36.1820   25.0813 H   0  0  0  0  0  0
  -21.0010  -28.3334   24.1300 H   0  0  0  0  0  0
  -20.5640  -26.2342   23.3646 H   0  0  0  0  0  0
  -21.6634  -26.7384   22.1217 H   0  0  0  0  0  0
  -19.6935  -25.6259   21.1243 H   0  0  0  0  0  0
  -19.6698  -27.3138   20.6699 H   0  0  0  0  0  0
  -17.4215  -26.6632   21.4014 H   0  0  0  0  0  0
  -18.0358  -26.0070   22.9031 H   0  0  0  0  0  0
  -19.7969  -30.7329   24.2113 H   0  0  0  0  0  0
  -17.5031  -31.6236   24.5175 H   0  0  0  0  0  0
  -15.5365  -30.2924   23.7730 H   0  0  0  0  0  0
  -15.8689  -28.0831   22.7006 H   0  0  0  0  0  0
  -24.5790  -30.7169   25.7604 H   0  0  0  0  0  0
  -24.8825  -32.2898   26.4794 H   0  0  0  0  0  0
  -25.7804  -30.8842   27.0166 H   0  0  0  0  0  0
  -26.3149  -29.6512   24.1520 H   0  0  0  0  0  0
  -27.3999  -29.7369   25.5197 H   0  0  0  0  0  0
  -27.9069  -30.4117   23.9916 H   0  0  0  0  0  0
  -27.2757  -33.3676   26.1913 H   0  0  0  0  0  0
  -28.3841  -32.6786   25.0173 H   0  0  0  0  0  0
  -28.0777  -31.8496   26.5379 H   0  0  0  0  0  0
  -28.2577  -38.0084   24.7562 H   0  0  0  0  0  0
  -28.1103  -36.2608   24.6202 H   0  0  0  0  0  0
  -27.2304  -37.1292   25.8870 H   0  0  0  0  0  0
  -20.9617  -29.8749   21.6698 H   0  0  0  0  0  0
  -26.0141  -38.2811   24.1424 H   0  0  0  0  0  0
  -24.8159  -21.7121   20.6644 H   0  0  0  0  0  0
  -26.1058  -20.8102   19.9110 H   0  0  0  0  0  0
  -25.7351  -22.4432   19.3704 H   0  0  0  0  0  0
  -25.1647  -23.5143   22.2476 H   0  0  0  0  0  0
  -25.9737  -24.4175   21.0253 H   0  0  0  0  0  0
  -26.7525  -24.1786   22.5871 H   0  0  0  0  0  0
  -25.8894  -21.5142   23.0945 H   0  0  0  0  0  0
  -27.6218  -21.7120   23.2199 H   0  0  0  0  0  0
  -26.9173  -20.4059   22.2701 H   0  0  0  0  0  0
  -30.5454  -22.4146   19.4074 H   0  0  0  0  0  0
  -30.8108  -20.6991   19.2118 H   0  0  0  0  0  0
  -30.9514  -21.4331   20.8148 H   0  0  0  0  0  0
  -29.7571  -18.1486   19.1192 H   0  0  0  0  0  0
  -30.8024  -18.3459   20.4645 H   0  0  0  0  0  0
  -28.9512  -19.6664   21.7643 H   0  0  0  0  0  0
  -27.7838  -19.3452   20.5287 H   0  0  0  0  0  0
  -27.5271  -24.1727   19.0764 H   0  0  0  0  0  0
  -29.1977  -24.2562   19.3604 H   0  0  0  0  0  0
  -28.8764  -22.8273   21.5731 H   0  0  0  0  0  0
  -28.6585  -16.2662   20.7987 H   0  0  0  0  0  0
  -28.5516  -21.1178   19.2138 H   0  0  0  0  0  0
  1 25  1  0  0  0
  1 30  2  0  0  0
  1 80  1  0  0  0
  2  3  1  0  0  0
  2 25  1  0  0  0
  2 82  1  0  0  0
  2 83  1  0  0  0
  3  4  1  0  0  0
  3 84  1  0  0  0
  3 85  1  0  0  0
  4  5  1  0  0  0
  4 86  1  0  0  0
  4 87  1  0  0  0
  5  6  1  0  0  0
  5 26  1  0  0  0
  5 88  1  0  0  0
  6 25  1  0  0  0
  6 89  1  0  0  0
  6 90  1  0  0  0
  7  8  2  0  0  0
  7 26  1  0  0  0
  7 29  1  0  0  0
  8  9  1  0  0  0
  8 22  1  0  0  0
  9 10  1  0  0  0
  9 27  2  0  0  0
 10 11  2  0  0  0
 10 15  1  0  0  0
 11 12  1  0  0  0
 11 91  1  0  0  0
 12 13  2  0  0  0
 12 92  1  0  0  0
 13 14  1  0  0  0
 13 31  1  0  0  0
 14 15  2  0  0  0
 14 93  1  0  0  0
 15 94  1  0  0  0
 16 17  2  0  0  0
 16 21  1  0  0  0
 16 31  1  0  0  0
 17 18  1  0  0  0
 17 95  1  0  0  0
 18 19  2  0  0  0
 18 96  1  0  0  0
 19 20  1  0  0  0
 19 24  1  0  0  0
 20 21  2  0  0  0
 20 97  1  0  0  0
 21 23  1  0  0  0
 22 28  1  0  0  0
 22 32  2  0  0  0
 26 27  1  0  0  0
 28 98  1  0  0  0
 28 99  1  0  0  0
 29100  1  0  0  0
 29101  1  0  0  0
 33 34  1  0  0  0
 33 66  1  0  0  0
 33 70  2  0  0  0
 34 36  1  0  0  0
 34 59  1  0  0  0
 34102  1  0  0  0
 35 44  2  0  0  0
 35 45  1  0  0  0
 35 68  1  0  0  0
 36 56  1  0  0  0
 36103  1  0  0  0
 37 39  1  0  0  0
 37 47  1  0  0  0
 37 66  1  0  0  0
 37104  1  0  0  0
 38 43  2  0  0  0
 38 46  1  0  0  0
 38 47  1  0  0  0
 39 64  1  0  0  0
 39 67  2  0  0  0
 40 52  1  0  0  0
 40 53  2  0  0  0
 40 58  1  0  0  0
 41105  1  0  0  0
 41106  1  0  0  0
 41107  1  0  0  0
 41 48  1  0  0  0
 42 43  1  0  0  0
 42 66  1  0  0  0
 42108  1  0  0  0
 42109  1  0  0  0
 43 44  1  0  0  0
 44110  1  0  0  0
 45 46  2  0  0  0
 45111  1  0  0  0
 46112  1  0  0  0
 47113  1  0  0  0
 47114  1  0  0  0
 48 56  1  0  0  0
 48 65  1  0  0  0
 48115  1  0  0  0
 49 50  1  0  0  0
 49 53  1  0  0  0
 49 64  1  0  0  0
 49116  1  0  0  0
 50 51  1  0  0  0
 50117  1  0  0  0
 50118  1  0  0  0
 51 52  1  0  0  0
 51119  1  0  0  0
 51120  1  0  0  0
 52121  1  0  0  0
 52122  1  0  0  0
 53 54  1  0  0  0
 54 55  2  0  0  0
 54123  1  0  0  0
 55 57  1  0  0  0
 55124  1  0  0  0
 56 69  2  0  0  0
 57 58  2  0  0  0
 57125  1  0  0  0
 58126  1  0  0  0
 59 60  1  0  0  0
 59 61  1  0  0  0
 59 62  1  0  0  0
 60127  1  0  0  0
 60128  1  0  0  0
 60129  1  0  0  0
 61130  1  0  0  0
 61131  1  0  0  0
 61132  1  0  0  0
 62133  1  0  0  0
 62134  1  0  0  0
 62135  1  0  0  0
 63 65  1  0  0  0
 63136  1  0  0  0
 63137  1  0  0  0
 63138  1  0  0  0
 64139  1  0  0  0
 65140  1  0  0  0
 68 77  1  0  0  0
 71141  1  0  0  0
 71142  1  0  0  0
 71143  1  0  0  0
 71 79  1  0  0  0
 72 79  1  0  0  0
 72144  1  0  0  0
 72145  1  0  0  0
 72146  1  0  0  0
 73 79  1  0  0  0
 73147  1  0  0  0
 73148  1  0  0  0
 73149  1  0  0  0
 74150  1  0  0  0
 74151  1  0  0  0
 74152  1  0  0  0
 74 81  1  0  0  0
 75 76  1  0  0  0
 75 80  1  0  0  0
 75153  1  0  0  0
 75154  1  0  0  0
 76 81  1  0  0  0
 76155  1  0  0  0
 76156  1  0  0  0
 77157  1  0  0  0
 77158  1  0  0  0
 77 78  1  0  0  0
 78 79  1  0  0  0
 78 81  1  0  0  0
 78159  1  0  0  0
 80160  1  0  0  0
 81161  1  0  0  0
M  CHG  1  81   1
M  ISO  4   1 100  68 101  77 101  80 100
M  END
> <chiral flag>
0

> <version>
0

> <s_m_source_file>
/data/baiqing/PycharmProjects/Reinvent-master-3.2/result/LINK_invent/BTK/process_docking_weight1_custom_sum_contain_oxygen_bond_distance_aromatic_linkinvent_7_9_3/rearranged_h_0105.sdf

> <i_m_source_file_index>
95

> <r_mmod_Potential_Energy-OPLS-2005>
1246.87487792969

> <r_mmod_Stretch_Energy-OPLS-2005>
639.818664550781

> <r_mmod_Bend_Energy-OPLS-2005>
469.717193603516

> <r_mmod_Torsional_Energy-OPLS-2005>
245.344421386719

> <r_mmod_Improper_Torsional_Energy-OPLS-2005>
4.61221885681152

> <r_mmod_Van_der_Waal_Energy-OPLS-2005>
113.321006774902

> <r_mmod_Electrostatic_Energy-OPLS-2005>
-229.344161987305

> <r_mmod_Solvation_Energy-OPLS-2005>
-442.594116210938

> <b_mmod_Minimization_Converged-OPLS-2005>
0

> <r_mmod_RMS_Derivative-OPLS-2005>
4.44482374191284

$$$$
95
                    3D
 Structure written by MMmdl.
179187  0  0  1  0            999 V2000
  -30.6926  -14.5204   20.3616 C   0  0  0  0  0  0
  -30.4282  -12.2805   19.4410 C   0  0  0  0  0  0
  -29.5049  -12.4120   18.2146 C   0  0  0  0  0  0
  -28.0219  -12.3133   18.6268 C   0  0  0  0  0  0
  -27.6550  -13.2047   19.8451 C   0  0  2  0  0  0
  -28.7091  -13.0910   20.9704 C   0  0  0  0  0  0
  -25.2615  -13.8142   20.5678 C   0  0  0  0  0  0
  -24.1852  -13.0418   20.9183 C   0  0  0  0  0  0
  -24.6413  -11.6875   20.8754 C   0  0  0  0  0  0
  -23.9079  -10.4259   21.0425 C   0  0  0  0  0  0
  -24.3622   -9.4172   21.9195 C   0  0  0  0  0  0
  -23.6285   -8.2209   22.0751 C   0  0  0  0  0  0
  -22.4270   -8.0271   21.3530 C   0  0  0  0  0  0
  -21.9907   -9.0250   20.4636 C   0  0  0  0  0  0
  -22.7267  -10.2120   20.3057 C   0  0  0  0  0  0
  -21.6849   -6.0725   22.5267 C   0  0  0  0  0  0
  -21.4012   -6.5609   23.8208 C   0  0  0  0  0  0
  -21.3675   -5.6776   24.9168 C   0  0  0  0  0  0
  -21.6060   -4.3035   24.7220 C   0  0  0  0  0  0
  -21.8828   -3.8127   23.4342 C   0  0  0  0  0  0
  -21.9186   -4.6937   22.3398 C   0  0  0  0  0  0
  -22.7875  -13.5210   21.1856 C   0  0  0  0  0  0
  -22.1673   -4.2130   21.0978 F   0  0  0  0  0  0
  -21.5634   -3.4529   25.7744 F   0  0  0  0  0  0
  -30.0337  -13.3342   20.3812 N   0  0  0  0  0  0
  -26.3029  -12.9304   20.3295 N   0  0  0  0  0  0
  -25.9335  -11.6472   20.5764 N   0  0  0  0  0  0
  -22.0500  -12.8186   22.0391 N   0  0  0  0  0  0
  -25.4381  -15.1876   20.4091 N   0  0  0  0  0  0
  -31.9164  -14.6080   20.3222 O   0  0  0  0  0  0
  -21.6622   -6.8865   21.4236 O   0  0  0  0  0  0
  -22.3556  -14.5523   20.6723 O   0  0  0  0  0  0
  -24.6151  -31.8693   23.2118 C   0  0  0  0  0  0
  -25.9050  -32.4827   23.8398 C   0  0  1  0  0  0
  -27.2456  -27.4433   20.0960 C   0  0  0  0  0  0
  -25.5911  -33.8623   24.2340 N   0  0  0  0  0  0
  -23.4022  -30.4925   21.5537 C   0  0  2  0  0  0
  -24.8493  -28.9565   20.1218 C   0  0  0  0  0  0
  -22.7403  -29.4672   22.5020 C   0  0  0  0  0  0
  -18.0262  -28.1387   22.8501 C   0  0  0  0  0  0
  -24.1477  -36.7302   23.2635 C   0  0  0  0  0  0
  -25.9277  -30.8359   21.3651 C   0  0  0  0  0  0
  -26.0075  -29.4676   20.7211 C   0  0  0  0  0  0
  -27.2079  -28.7197   20.7138 C   0  0  0  0  0  0
  -26.0666  -26.9496   19.5018 C   0  0  0  0  0  0
  -24.8708  -27.6910   19.5125 C   0  0  0  0  0  0
  -23.6114  -29.8240   20.1687 C   0  0  0  0  0  0
  -25.4096  -36.3104   24.0337 C   0  0  1  0  0  0
  -20.5855  -28.3679   23.1312 C   0  0  2  0  0  0
  -20.6762  -26.9419   22.5411 C   0  0  0  0  0  0
  -19.5742  -26.6401   21.5205 C   0  0  0  0  0  0
  -18.1919  -26.7947   22.1614 C   0  0  0  0  0  0
  -19.1521  -28.8850   23.2906 C   0  0  0  0  0  0
  -18.9454  -30.1455   23.8909 C   0  0  0  0  0  0
  -17.6457  -30.6596   24.0573 C   0  0  0  0  0  0
  -25.9024  -34.9472   23.5139 C   0  0  0  0  0  0
  -16.5343  -29.9096   23.6328 C   0  0  0  0  0  0
  -16.7258  -28.6517   23.0349 C   0  0  0  0  0  0
  -26.4474  -31.6599   25.0725 C   0  0  0  0  0  0
  -25.3745  -31.3715   26.1491 C   0  0  0  0  0  0
  -27.0314  -30.3037   24.6107 C   0  0  0  0  0  0
  -27.6048  -32.4323   25.7486 C   0  0  0  0  0  0
  -27.5573  -37.1813   24.8468 C   0  0  0  0  0  0
  -21.4139  -29.3042   22.3725 N   0  0  0  0  0  0
  -26.4284  -37.3788   23.9416 N   0  0  0  0  0  0
  -24.6663  -31.0800   22.1023 N   0  0  0  0  0  0
  -23.4172  -28.8214   23.3071 O   0  0  0  0  0  0
  -28.3507  -26.6222   19.9710 O   0  0  0  0  0  0
  -26.5579  -34.8926   22.4691 O   0  0  0  0  0  0
  -23.5345  -32.1460   23.7508 O   0  0  0  0  0  0
  -28.4938  -21.1019   21.1553 C   0  0  0  0  0  0
  -28.5785  -19.7196   20.8736 C   0  0  0  0  0  0
  -29.2774  -19.2868   19.7137 C   0  0  0  0  0  0
  -29.1128  -22.0294   20.2991 C   0  0  0  0  0  0
  -29.9266  -20.3040   18.9531 C   0  0  0  0  0  0
  -27.8418  -18.7489   21.7794 C   0  0  0  0  0  0
  -30.7214  -20.0278   17.6947 C   0  0  0  0  0  0
  -32.1985  -15.8388   17.6661 C   0  0  0  0  0  0
  -29.7717  -15.8662   16.9033 C   0  0  0  0  0  0
  -30.7716  -26.1032   22.8236 C   0  0  0  0  0  0
  -28.3394  -25.6462   22.7653 C   0  0  0  0  0  0
  -29.1318  -17.8223   19.2175 C   0  0  0  0  0  0
  -28.9037  -23.5405   20.4706 C   0  0  0  0  0  0
  -29.9583  -24.2452   21.3565 C   0  0  0  0  0  0
  -29.5064  -26.7644   20.7902 C   0  0  0  0  0  0
  -30.8308  -16.5303   17.8104 C   0  0  0  0  0  0
  -30.3390  -16.8148   19.2788 C   0  0  2  0  0  0
  -29.6136  -25.6744   21.8989 C   0  0  0  0  0  0
  -29.8540  -21.6233   19.2504 N   0  0  0  0  0  0
  -29.9240  -15.5572   19.9649 N   0  0  0  0  0  0
  -31.4766  -12.3635   19.1439 H   0  0  0  0  0  0
  -30.3183  -11.2991   19.9049 H   0  0  0  0  0  0
  -29.7416  -11.6437   17.4776 H   0  0  0  0  0  0
  -29.6969  -13.3539   17.7162 H   0  0  0  0  0  0
  -27.8228  -11.2676   18.8623 H   0  0  0  0  0  0
  -27.3790  -12.5536   17.7792 H   0  0  0  0  0  0
  -27.6599  -14.2293   19.4769 H   0  0  0  0  0  0
  -28.6778  -12.1035   21.4316 H   0  0  0  0  0  0
  -28.5020  -13.8089   21.7653 H   0  0  0  0  0  0
  -25.2774   -9.5607   22.4768 H   0  0  0  0  0  0
  -23.9974   -7.4577   22.7460 H   0  0  0  0  0  0
  -21.0838   -8.8786   19.8935 H   0  0  0  0  0  0
  -22.3746  -10.9658   19.6152 H   0  0  0  0  0  0
  -21.2008   -7.6114   23.9711 H   0  0  0  0  0  0
  -21.1514   -6.0487   25.9077 H   0  0  0  0  0  0
  -22.0599   -2.7586   23.2847 H   0  0  0  0  0  0
  -22.4101  -11.9848   22.4791 H   0  0  0  0  0  0
  -21.1116  -13.1193   22.2609 H   0  0  0  0  0  0
  -24.6851  -15.8549   20.5297 H   0  0  0  0  0  0
  -26.3088  -15.6278   20.1455 H   0  0  0  0  0  0
  -26.7139  -32.5551   23.1176 H   0  0  0  0  0  0
  -25.0117  -33.9782   25.0530 H   0  0  0  0  0  0
  -22.6914  -31.3094   21.4142 H   0  0  0  0  0  0
  -23.3729  -35.9646   23.3328 H   0  0  0  0  0  0
  -24.3563  -36.8883   22.2041 H   0  0  0  0  0  0
  -23.7244  -37.6519   23.6632 H   0  0  0  0  0  0
  -26.0385  -31.5967   20.5909 H   0  0  0  0  0  0
  -26.8123  -30.8930   21.9850 H   0  0  0  0  0  0
  -28.0845  -29.1529   21.1669 H   0  0  0  0  0  0
  -26.0761  -25.9780   19.0282 H   0  0  0  0  0  0
  -23.9827  -27.2849   19.0472 H   0  0  0  0  0  0
  -23.7255  -30.5976   19.4092 H   0  0  0  0  0  0
  -22.7334  -29.2475   19.8723 H   0  0  0  0  0  0
  -25.1273  -36.1969   25.0826 H   0  0  0  0  0  0
  -20.9952  -28.3262   24.1429 H   0  0  0  0  0  0
  -20.5647  -26.2293   23.3592 H   0  0  0  0  0  0
  -21.6634  -26.7467   22.1205 H   0  0  0  0  0  0
  -19.6886  -25.6311   21.1226 H   0  0  0  0  0  0
  -19.6669  -27.3208   20.6726 H   0  0  0  0  0  0
  -17.4181  -26.6701   21.4014 H   0  0  0  0  0  0
  -18.0311  -26.0076   22.8992 H   0  0  0  0  0  0
  -19.7929  -30.7276   24.2281 H   0  0  0  0  0  0
  -17.5005  -31.6269   24.5185 H   0  0  0  0  0  0
  -15.5340  -30.2993   23.7654 H   0  0  0  0  0  0
  -15.8658  -28.0826   22.7063 H   0  0  0  0  0  0
  -24.5896  -30.7086   25.7839 H   0  0  0  0  0  0
  -24.8969  -32.2881   26.4962 H   0  0  0  0  0  0
  -25.8100  -30.8871   27.0243 H   0  0  0  0  0  0
  -26.2882  -29.6795   24.1142 H   0  0  0  0  0  0
  -27.4063  -29.7268   25.4570 H   0  0  0  0  0  0
  -27.8709  -30.4334   23.9275 H   0  0  0  0  0  0
  -27.2657  -33.3604   26.2096 H   0  0  0  0  0  0
  -28.3828  -32.6930   25.0299 H   0  0  0  0  0  0
  -28.0751  -31.8446   26.5377 H   0  0  0  0  0  0
  -28.2616  -38.0086   24.7497 H   0  0  0  0  0  0
  -28.1047  -36.2629   24.6316 H   0  0  0  0  0  0
  -27.2302  -37.1494   25.8873 H   0  0  0  0  0  0
  -20.9309  -29.8746   21.6923 H   0  0  0  0  0  0
  -26.0175  -38.2866   24.1415 H   0  0  0  0  0  0
  -27.9129  -21.4570   21.9947 H   0  0  0  0  0  0
  -28.4680  -17.8913   22.0238 H   0  0  0  0  0  0
  -26.9354  -18.3899   21.2915 H   0  0  0  0  0  0
  -27.5510  -19.2225   22.7173 H   0  0  0  0  0  0
  -30.1255  -19.4899   16.9573 H   0  0  0  0  0  0
  -31.6247  -19.4699   17.9380 H   0  0  0  0  0  0
  -31.0531  -20.9524   17.2193 H   0  0  0  0  0  0
  -32.9347  -16.2653   18.3492 H   0  0  0  0  0  0
  -32.5953  -15.9684   16.6576 H   0  0  0  0  0  0
  -32.1358  -14.7659   17.8385 H   0  0  0  0  0  0
  -30.2193  -15.1429   16.2206 H   0  0  0  0  0  0
  -29.2709  -16.6085   16.2802 H   0  0  0  0  0  0
  -28.9899  -15.3647   17.4700 H   0  0  0  0  0  0
  -30.9024  -25.4066   23.6526 H   0  0  0  0  0  0
  -30.5950  -27.0888   23.2554 H   0  0  0  0  0  0
  -31.7181  -26.1530   22.2833 H   0  0  0  0  0  0
  -28.4367  -24.9276   23.5802 H   0  0  0  0  0  0
  -27.4486  -25.3840   22.1968 H   0  0  0  0  0  0
  -28.1419  -26.6207   23.2091 H   0  0  0  0  0  0
  -28.7770  -17.9107   18.1906 H   0  0  0  0  0  0
  -28.2715  -17.3614   19.7002 H   0  0  0  0  0  0
  -27.9033  -23.6890   20.8739 H   0  0  0  0  0  0
  -28.8915  -24.0170   19.4884 H   0  0  0  0  0  0
  -30.9056  -24.2688   20.8168 H   0  0  0  0  0  0
  -30.1353  -23.5983   22.2173 H   0  0  0  0  0  0
  -30.3637  -26.6722   20.1226 H   0  0  0  0  0  0
  -29.5964  -27.7582   21.2217 H   0  0  0  0  0  0
  -31.0178  -17.4904   17.3496 H   0  0  0  0  0  0
  -31.1464  -17.2609   19.8630 H   0  0  0  0  0  0
  -28.9372  -15.3604   19.9591 H   0  0  0  0  0  0
  1 25  1  0  0  0
  1 30  2  0  0  0
  1 90  1  0  0  0
  2  3  1  0  0  0
  2 25  1  0  0  0
  2 91  1  0  0  0
  2 92  1  0  0  0
  3  4  1  0  0  0
  3 93  1  0  0  0
  3 94  1  0  0  0
  4  5  1  0  0  0
  4 95  1  0  0  0
  4 96  1  0  0  0
  5  6  1  0  0  0
  5 26  1  0  0  0
  5 97  1  0  0  0
  6 25  1  0  0  0
  6 98  1  0  0  0
  6 99  1  0  0  0
  7  8  2  0  0  0
  7 26  1  0  0  0
  7 29  1  0  0  0
  8  9  1  0  0  0
  8 22  1  0  0  0
  9 10  1  0  0  0
  9 27  2  0  0  0
 10 11  2  0  0  0
 10 15  1  0  0  0
 11 12  1  0  0  0
 11100  1  0  0  0
 12 13  2  0  0  0
 12101  1  0  0  0
 13 14  1  0  0  0
 13 31  1  0  0  0
 14 15  2  0  0  0
 14102  1  0  0  0
 15103  1  0  0  0
 16 17  2  0  0  0
 16 21  1  0  0  0
 16 31  1  0  0  0
 17 18  1  0  0  0
 17104  1  0  0  0
 18 19  2  0  0  0
 18105  1  0  0  0
 19 20  1  0  0  0
 19 24  1  0  0  0
 20 21  2  0  0  0
 20106  1  0  0  0
 21 23  1  0  0  0
 22 28  1  0  0  0
 22 32  2  0  0  0
 26 27  1  0  0  0
 28107  1  0  0  0
 28108  1  0  0  0
 29109  1  0  0  0
 29110  1  0  0  0
 33 34  1  0  0  0
 33 66  1  0  0  0
 33 70  2  0  0  0
 34 36  1  0  0  0
 34 59  1  0  0  0
 34111  1  0  0  0
 35 44  2  0  0  0
 35 45  1  0  0  0
 35 68  1  0  0  0
 36 56  1  0  0  0
 36112  1  0  0  0
 37 39  1  0  0  0
 37 47  1  0  0  0
 37 66  1  0  0  0
 37113  1  0  0  0
 38 43  2  0  0  0
 38 46  1  0  0  0
 38 47  1  0  0  0
 39 64  1  0  0  0
 39 67  2  0  0  0
 40 52  1  0  0  0
 40 53  2  0  0  0
 40 58  1  0  0  0
 41114  1  0  0  0
 41115  1  0  0  0
 41116  1  0  0  0
 41 48  1  0  0  0
 42 43  1  0  0  0
 42 66  1  0  0  0
 42117  1  0  0  0
 42118  1  0  0  0
 43 44  1  0  0  0
 44119  1  0  0  0
 45 46  2  0  0  0
 45120  1  0  0  0
 46121  1  0  0  0
 47122  1  0  0  0
 47123  1  0  0  0
 48 56  1  0  0  0
 48 65  1  0  0  0
 48124  1  0  0  0
 49 50  1  0  0  0
 49 53  1  0  0  0
 49 64  1  0  0  0
 49125  1  0  0  0
 50 51  1  0  0  0
 50126  1  0  0  0
 50127  1  0  0  0
 51 52  1  0  0  0
 51128  1  0  0  0
 51129  1  0  0  0
 52130  1  0  0  0
 52131  1  0  0  0
 53 54  1  0  0  0
 54 55  2  0  0  0
 54132  1  0  0  0
 55 57  1  0  0  0
 55133  1  0  0  0
 56 69  2  0  0  0
 57 58  2  0  0  0
 57134  1  0  0  0
 58135  1  0  0  0
 59 60  1  0  0  0
 59 61  1  0  0  0
 59 62  1  0  0  0
 60136  1  0  0  0
 60137  1  0  0  0
 60138  1  0  0  0
 61139  1  0  0  0
 61140  1  0  0  0
 61141  1  0  0  0
 62142  1  0  0  0
 62143  1  0  0  0
 62144  1  0  0  0
 63 65  1  0  0  0
 63145  1  0  0  0
 63146  1  0  0  0
 63147  1  0  0  0
 64148  1  0  0  0
 65149  1  0  0  0
 68 85  1  0  0  0
 71 72  2  0  0  0
 71 74  1  0  0  0
 71150  1  0  0  0
 72 73  1  0  0  0
 72 76  1  0  0  0
 73 75  2  0  0  0
 73 82  1  0  0  0
 74 83  1  0  0  0
 74 89  2  0  0  0
 75 77  1  0  0  0
 75 89  1  0  0  0
 76151  1  0  0  0
 76152  1  0  0  0
 76153  1  0  0  0
 77154  1  0  0  0
 77155  1  0  0  0
 77156  1  0  0  0
 78157  1  0  0  0
 78158  1  0  0  0
 78159  1  0  0  0
 78 86  1  0  0  0
 79 86  1  0  0  0
 79160  1  0  0  0
 79161  1  0  0  0
 79162  1  0  0  0
 80163  1  0  0  0
 80164  1  0  0  0
 80165  1  0  0  0
 80 88  1  0  0  0
 81 88  1  0  0  0
 81166  1  0  0  0
 81167  1  0  0  0
 81168  1  0  0  0
 82169  1  0  0  0
 82170  1  0  0  0
 82 87  1  0  0  0
 83 84  1  0  0  0
 83171  1  0  0  0
 83172  1  0  0  0
 84 88  1  0  0  0
 84173  1  0  0  0
 84174  1  0  0  0
 85 88  1  0  0  0
 85175  1  0  0  0
 85176  1  0  0  0
 86 87  1  0  0  0
 86177  1  0  0  0
 87 90  1  0  0  0
 87178  1  0  0  0
 90179  1  0  0  0
M  ISO  4   1 100  68 101  85 101  90 100
M  END
> <chiral flag>
0

> <version>
0

> <s_m_source_file>
/data/baiqing/PycharmProjects/Reinvent-master-3.2/result/LINK_invent/BTK/process_docking_weight1_custom_sum_contain_oxygen_bond_distance_aromatic_linkinvent_7_9_3/rearranged_h_0105.sdf

> <i_m_source_file_index>
96

> <r_mmod_Potential_Energy-OPLS-2005>
-152.776351928711

> <r_mmod_Stretch_Energy-OPLS-2005>
47.3304100036621

> <r_mmod_Bend_Energy-OPLS-2005>
143.132415771484

> <r_mmod_Torsional_Energy-OPLS-2005>
267.676605224609

> <r_mmod_Improper_Torsional_Energy-OPLS-2005>
13.475643157959

> <r_mmod_Van_der_Waal_Energy-OPLS-2005>
151.639190673828

> <r_mmod_Electrostatic_Energy-OPLS-2005>
-601.077209472656

> <r_mmod_Solvation_Energy-OPLS-2005>
-211.755081176758

> <b_mmod_Minimization_Converged-OPLS-2005>
0

> <r_mmod_RMS_Derivative-OPLS-2005>
3.50769114494324

$$$$
96
                    3D
 Structure written by MMmdl.
154162  0  0  1  0            999 V2000
  -30.5191  -15.0522   20.4567 C   0  0  0  0  0  0
  -30.4582  -12.6610   19.5185 C   0  0  0  0  0  0
  -29.5207  -12.5358   18.2844 C   0  0  0  0  0  0
  -28.0743  -12.2740   18.7298 C   0  0  0  0  0  0
  -27.6390  -13.2412   19.8565 C   0  0  2  0  0  0
  -28.6827  -13.3046   21.0020 C   0  0  0  0  0  0
  -25.2523  -13.8191   20.5733 C   0  0  0  0  0  0
  -24.1841  -13.0433   20.9174 C   0  0  0  0  0  0
  -24.6442  -11.6899   20.8816 C   0  0  0  0  0  0
  -23.9118  -10.4261   21.0424 C   0  0  0  0  0  0
  -24.3628   -9.4175   21.9202 C   0  0  0  0  0  0
  -23.6255   -8.2230   22.0772 C   0  0  0  0  0  0
  -22.4273   -8.0293   21.3537 C   0  0  0  0  0  0
  -21.9936   -9.0300   20.4651 C   0  0  0  0  0  0
  -22.7283  -10.2140   20.3055 C   0  0  0  0  0  0
  -21.6855   -6.0708   22.5255 C   0  0  0  0  0  0
  -21.4009   -6.5633   23.8188 C   0  0  0  0  0  0
  -21.3655   -5.6807   24.9175 C   0  0  0  0  0  0
  -21.6024   -4.3061   24.7212 C   0  0  0  0  0  0
  -21.8821   -3.8150   23.4371 C   0  0  0  0  0  0
  -21.9192   -4.6946   22.3428 C   0  0  0  0  0  0
  -22.7856  -13.5176   21.1826 C   0  0  0  0  0  0
  -22.1658   -4.2148   21.0981 F   0  0  0  0  0  0
  -21.5642   -3.4543   25.7726 F   0  0  0  0  0  0
  -29.9553  -13.7601   20.4192 N   0  0  0  0  0  0
  -26.2949  -12.9434   20.3341 N   0  0  0  0  0  0
  -25.9387  -11.6566   20.5835 N   0  0  0  0  0  0
  -22.0473  -12.8210   22.0389 N   0  0  0  0  0  0
  -25.4212  -15.1927   20.4035 N   0  0  0  0  0  0
  -31.6660  -15.1404   20.0173 O   0  0  0  0  0  0
  -21.6655   -6.8894   21.4230 O   0  0  0  0  0  0
  -22.3564  -14.5526   20.6695 O   0  0  0  0  0  0
  -24.6492  -31.8399   23.1759 C   0  0  0  0  0  0
  -25.9235  -32.4659   23.8191 C   0  0  1  0  0  0
  -27.2307  -27.0444   20.2164 C   0  0  0  0  0  0
  -25.5963  -33.8456   24.2138 N   0  0  0  0  0  0
  -23.4641  -30.4501   21.5232 C   0  0  2  0  0  0
  -24.9259  -28.8629   20.1086 C   0  0  0  0  0  0
  -22.7664  -29.4496   22.4790 C   0  0  0  0  0  0
  -18.0324  -28.1414   22.8438 C   0  0  0  0  0  0
  -24.1482  -36.7240   23.2649 C   0  0  0  0  0  0
  -26.0253  -30.6922   21.3880 C   0  0  0  0  0  0
  -26.1035  -29.2875   20.7452 C   0  0  0  0  0  0
  -27.2499  -28.3940   20.7795 C   0  0  0  0  0  0
  -26.0332  -26.7525   19.5170 C   0  0  0  0  0  0
  -24.9071  -27.6115   19.4716 C   0  0  0  0  0  0
  -23.7013  -29.7736   20.1429 C   0  0  0  0  0  0
  -25.4138  -36.3009   24.0327 C   0  0  1  0  0  0
  -20.5937  -28.3708   23.1185 C   0  0  2  0  0  0
  -20.6794  -26.9376   22.5439 C   0  0  0  0  0  0
  -19.5764  -26.6371   21.5197 C   0  0  0  0  0  0
  -18.1920  -26.7965   22.1580 C   0  0  0  0  0  0
  -19.1567  -28.8876   23.2799 C   0  0  0  0  0  0
  -18.9527  -30.1470   23.8829 C   0  0  0  0  0  0
  -17.6515  -30.6595   24.0521 C   0  0  0  0  0  0
  -25.9064  -34.9369   23.5018 C   0  0  0  0  0  0
  -16.5389  -29.9113   23.6337 C   0  0  0  0  0  0
  -16.7293  -28.6526   23.0318 C   0  0  0  0  0  0
  -26.4516  -31.6536   25.0656 C   0  0  0  0  0  0
  -25.3682  -31.3767   26.1345 C   0  0  0  0  0  0
  -27.0401  -30.2948   24.6290 C   0  0  0  0  0  0
  -27.6073  -32.4273   25.7426 C   0  0  0  0  0  0
  -27.5575  -37.1766   24.8487 C   0  0  0  0  0  0
  -21.4310  -29.3044   22.3570 N   0  0  0  0  0  0
  -26.4291  -37.3740   23.9418 N   0  0  0  0  0  0
  -24.7331  -31.0163   22.0842 N   0  0  0  0  0  0
  -23.4254  -28.7971   23.2931 O   0  0  0  0  0  0
  -28.2545  -26.0022   20.2885 O   0  0  0  0  0  0
  -26.5707  -34.8873   22.4650 O   0  0  0  0  0  0
  -23.5596  -32.1278   23.6970 O   0  0  0  0  0  0
  -29.5342  -21.4404   19.2405 C   0  0  0  0  0  0
  -28.9864  -21.9981   21.2494 C   0  0  0  0  0  0
  -29.4828  -20.8409   20.5516 C   0  0  0  0  0  0
  -29.0321  -22.7399   19.1780 C   0  0  0  0  0  0
  -28.7652  -23.6262   18.0039 C   0  0  0  0  0  0
  -29.5949  -17.7529   20.2969 C   0  0  0  0  0  0
  -27.8920  -24.5712   20.7860 C   0  0  0  0  0  0
  -30.0193  -19.2657   20.9861 C   0  0  2  0  0  0
  -28.6802  -23.1973   20.4425 N   0  0  0  0  0  0
  -29.7780  -16.2343   20.8239 N   0  0  0  0  0  0
  -30.2754  -19.1612   22.4417 N   0  3  0  0  0  0
  -31.4791  -12.8490   19.1757 H   0  0  0  0  0  0
  -30.5048  -11.7138   20.0659 H   0  0  0  0  0  0
  -29.8619  -11.7291   17.6366 H   0  0  0  0  0  0
  -29.5698  -13.4555   17.6953 H   0  0  0  0  0  0
  -28.0317  -11.2513   19.1033 H   0  0  0  0  0  0
  -27.3945  -12.3208   17.8822 H   0  0  0  0  0  0
  -27.6031  -14.2308   19.4005 H   0  0  0  0  0  0
  -28.8027  -12.3287   21.4823 H   0  0  0  0  0  0
  -28.3602  -13.9999   21.7804 H   0  0  0  0  0  0
  -25.2750   -9.5675   22.4792 H   0  0  0  0  0  0
  -23.9967   -7.4656   22.7523 H   0  0  0  0  0  0
  -21.0842   -8.8790   19.8972 H   0  0  0  0  0  0
  -22.3719  -10.9676   19.6177 H   0  0  0  0  0  0
  -21.1989   -7.6127   23.9695 H   0  0  0  0  0  0
  -21.1475   -6.0524   25.9066 H   0  0  0  0  0  0
  -22.0607   -2.7594   23.2855 H   0  0  0  0  0  0
  -22.4092  -11.9838   22.4719 H   0  0  0  0  0  0
  -21.1099  -13.1262   22.2595 H   0  0  0  0  0  0
  -24.6583  -15.8475   20.5263 H   0  0  0  0  0  0
  -26.2592  -15.6224   20.0337 H   0  0  0  0  0  0
  -26.7348  -32.5250   23.0961 H   0  0  0  0  0  0
  -25.0074  -33.9552   25.0274 H   0  0  0  0  0  0
  -22.7689  -31.2755   21.3586 H   0  0  0  0  0  0
  -23.3724  -35.9570   23.3356 H   0  0  0  0  0  0
  -24.3601  -36.8860   22.2039 H   0  0  0  0  0  0
  -23.7236  -37.6458   23.6706 H   0  0  0  0  0  0
  -26.1821  -31.4360   20.5990 H   0  0  0  0  0  0
  -26.8930  -30.7533   22.0338 H   0  0  0  0  0  0
  -28.1276  -28.7120   21.3178 H   0  0  0  0  0  0
  -25.9340  -25.7992   19.0299 H   0  0  0  0  0  0
  -24.0146  -27.2733   18.9554 H   0  0  0  0  0  0
  -23.8400  -30.5466   19.3816 H   0  0  0  0  0  0
  -22.8106  -29.2164   19.8279 H   0  0  0  0  0  0
  -25.1305  -36.1862   25.0822 H   0  0  0  0  0  0
  -21.0011  -28.3334   24.1298 H   0  0  0  0  0  0
  -20.5672  -26.2288   23.3679 H   0  0  0  0  0  0
  -21.6656  -26.7428   22.1166 H   0  0  0  0  0  0
  -19.6954  -25.6296   21.1214 H   0  0  0  0  0  0
  -19.6725  -27.3204   20.6737 H   0  0  0  0  0  0
  -17.4214  -26.6708   21.3945 H   0  0  0  0  0  0
  -18.0278  -26.0138   22.9017 H   0  0  0  0  0  0
  -19.8016  -30.7278   24.2153 H   0  0  0  0  0  0
  -17.5086  -31.6273   24.5169 H   0  0  0  0  0  0
  -15.5365  -30.2953   23.7764 H   0  0  0  0  0  0
  -15.8701  -28.0853   22.7027 H   0  0  0  0  0  0
  -24.6010  -30.6921   25.7707 H   0  0  0  0  0  0
  -24.8619  -32.2871   26.4514 H   0  0  0  0  0  0
  -25.7900  -30.9187   27.0294 H   0  0  0  0  0  0
  -26.3040  -29.6640   24.1319 H   0  0  0  0  0  0
  -27.4050  -29.7293   25.4880 H   0  0  0  0  0  0
  -27.8901  -30.4177   23.9584 H   0  0  0  0  0  0
  -27.2858  -33.3795   26.1674 H   0  0  0  0  0  0
  -28.4014  -32.6506   25.0273 H   0  0  0  0  0  0
  -28.0584  -31.8596   26.5550 H   0  0  0  0  0  0
  -28.2583  -38.0069   24.7503 H   0  0  0  0  0  0
  -28.1045  -36.2584   24.6339 H   0  0  0  0  0  0
  -27.2268  -37.1445   25.8880 H   0  0  0  0  0  0
  -20.9589  -29.8825   21.6787 H   0  0  0  0  0  0
  -26.0154  -38.2807   24.1433 H   0  0  0  0  0  0
  -29.9018  -20.9199   18.3709 H   0  0  0  0  0  0
  -28.7779  -22.0844   22.3147 H   0  0  0  0  0  0
  -28.9485  -23.1109   17.0645 H   0  0  0  0  0  0
  -29.3758  -24.5248   18.0413 H   0  0  0  0  0  0
  -27.7220  -23.9418   18.0055 H   0  0  0  0  0  0
  -29.9210  -17.7570   19.2532 H   0  0  0  0  0  0
  -28.5098  -17.8365   20.2160 H   0  0  0  0  0  0
  -27.8295  -24.6314   21.8756 H   0  0  0  0  0  0
  -26.8724  -24.3713   20.4620 H   0  0  0  0  0  0
  -31.0552  -19.3373   20.6590 H   0  0  0  0  0  0
  -28.9972  -15.9737   21.4100 H   0  0  0  0  0  0
  -29.4498  -19.0830   23.0079 H   0  0  0  0  0  0
  -30.7821  -19.9641   22.7719 H   0  0  0  0  0  0
  -30.8554  -18.3735   22.6422 H   0  0  0  0  0  0
  1 25  1  0  0  0
  1 30  2  0  0  0
  1 80  1  0  0  0
  2  3  1  0  0  0
  2 25  1  0  0  0
  2 82  1  0  0  0
  2 83  1  0  0  0
  3  4  1  0  0  0
  3 84  1  0  0  0
  3 85  1  0  0  0
  4  5  1  0  0  0
  4 86  1  0  0  0
  4 87  1  0  0  0
  5  6  1  0  0  0
  5 26  1  0  0  0
  5 88  1  0  0  0
  6 25  1  0  0  0
  6 89  1  0  0  0
  6 90  1  0  0  0
  7  8  2  0  0  0
  7 26  1  0  0  0
  7 29  1  0  0  0
  8  9  1  0  0  0
  8 22  1  0  0  0
  9 10  1  0  0  0
  9 27  2  0  0  0
 10 11  2  0  0  0
 10 15  1  0  0  0
 11 12  1  0  0  0
 11 91  1  0  0  0
 12 13  2  0  0  0
 12 92  1  0  0  0
 13 14  1  0  0  0
 13 31  1  0  0  0
 14 15  2  0  0  0
 14 93  1  0  0  0
 15 94  1  0  0  0
 16 17  2  0  0  0
 16 21  1  0  0  0
 16 31  1  0  0  0
 17 18  1  0  0  0
 17 95  1  0  0  0
 18 19  2  0  0  0
 18 96  1  0  0  0
 19 20  1  0  0  0
 19 24  1  0  0  0
 20 21  2  0  0  0
 20 97  1  0  0  0
 21 23  1  0  0  0
 22 28  1  0  0  0
 22 32  2  0  0  0
 26 27  1  0  0  0
 28 98  1  0  0  0
 28 99  1  0  0  0
 29100  1  0  0  0
 29101  1  0  0  0
 33 34  1  0  0  0
 33 66  1  0  0  0
 33 70  2  0  0  0
 34 36  1  0  0  0
 34 59  1  0  0  0
 34102  1  0  0  0
 35 44  2  0  0  0
 35 45  1  0  0  0
 35 68  1  0  0  0
 36 56  1  0  0  0
 36103  1  0  0  0
 37 39  1  0  0  0
 37 47  1  0  0  0
 37 66  1  0  0  0
 37104  1  0  0  0
 38 43  2  0  0  0
 38 46  1  0  0  0
 38 47  1  0  0  0
 39 64  1  0  0  0
 39 67  2  0  0  0
 40 52  1  0  0  0
 40 53  2  0  0  0
 40 58  1  0  0  0
 41105  1  0  0  0
 41106  1  0  0  0
 41107  1  0  0  0
 41 48  1  0  0  0
 42 43  1  0  0  0
 42 66  1  0  0  0
 42108  1  0  0  0
 42109  1  0  0  0
 43 44  1  0  0  0
 44110  1  0  0  0
 45 46  2  0  0  0
 45111  1  0  0  0
 46112  1  0  0  0
 47113  1  0  0  0
 47114  1  0  0  0
 48 56  1  0  0  0
 48 65  1  0  0  0
 48115  1  0  0  0
 49 50  1  0  0  0
 49 53  1  0  0  0
 49 64  1  0  0  0
 49116  1  0  0  0
 50 51  1  0  0  0
 50117  1  0  0  0
 50118  1  0  0  0
 51 52  1  0  0  0
 51119  1  0  0  0
 51120  1  0  0  0
 52121  1  0  0  0
 52122  1  0  0  0
 53 54  1  0  0  0
 54 55  2  0  0  0
 54123  1  0  0  0
 55 57  1  0  0  0
 55124  1  0  0  0
 56 69  2  0  0  0
 57 58  2  0  0  0
 57125  1  0  0  0
 58126  1  0  0  0
 59 60  1  0  0  0
 59 61  1  0  0  0
 59 62  1  0  0  0
 60127  1  0  0  0
 60128  1  0  0  0
 60129  1  0  0  0
 61130  1  0  0  0
 61131  1  0  0  0
 61132  1  0  0  0
 62133  1  0  0  0
 62134  1  0  0  0
 62135  1  0  0  0
 63 65  1  0  0  0
 63136  1  0  0  0
 63137  1  0  0  0
 63138  1  0  0  0
 64139  1  0  0  0
 65140  1  0  0  0
 68 77  1  0  0  0
 71 73  1  0  0  0
 71 74  2  0  0  0
 71141  1  0  0  0
 72 73  2  0  0  0
 72 79  1  0  0  0
 72142  1  0  0  0
 73 78  1  0  0  0
 74 75  1  0  0  0
 74 79  1  0  0  0
 75143  1  0  0  0
 75144  1  0  0  0
 75145  1  0  0  0
 76 78  1  0  0  0
 76 80  1  0  0  0
 76146  1  0  0  0
 76147  1  0  0  0
 77 79  1  0  0  0
 77148  1  0  0  0
 77149  1  0  0  0
 78 81  1  0  0  0
 78150  1  0  0  0
 80151  1  0  0  0
 81152  1  0  0  0
 81153  1  0  0  0
 81154  1  0  0  0
M  CHG  1  81   1
M  ISO  4   1 100  68 101  77 101  80 100
M  END
> <chiral flag>
0

> <version>
0

> <s_m_source_file>
/data/baiqing/PycharmProjects/Reinvent-master-3.2/result/LINK_invent/BTK/process_docking_weight1_custom_sum_contain_oxygen_bond_distance_aromatic_linkinvent_7_9_3/rearranged_h_0105.sdf

> <i_m_source_file_index>
97

> <r_mmod_Potential_Energy-OPLS-2005>
422.067169189453

> <r_mmod_Stretch_Energy-OPLS-2005>
358.831176757812

> <r_mmod_Bend_Energy-OPLS-2005>
341.23193359375

> <r_mmod_Torsional_Energy-OPLS-2005>
269.700653076172

> <r_mmod_Improper_Torsional_Energy-OPLS-2005>
6.84969520568848

> <r_mmod_Van_der_Waal_Energy-OPLS-2005>
104.32836151123

> <r_mmod_Electrostatic_Energy-OPLS-2005>
-419.380035400391

> <r_mmod_Solvation_Energy-OPLS-2005>
-518.221984863281

> <b_mmod_Minimization_Converged-OPLS-2005>
0

> <r_mmod_RMS_Derivative-OPLS-2005>
14.5314388275146

$$$$
97
                    3D
 Structure written by MMmdl.
164171  0  0  1  0            999 V2000
  -30.7353  -14.3994   20.6027 C   0  0  0  0  0  0
  -30.4147  -12.2900   19.3737 C   0  0  0  0  0  0
  -29.4830  -12.5233   18.1695 C   0  0  0  0  0  0
  -27.9988  -12.4131   18.5794 C   0  0  0  0  0  0
  -27.6651  -13.2102   19.8688 C   0  0  2  0  0  0
  -28.7115  -12.9491   20.9740 C   0  0  0  0  0  0
  -25.2632  -13.8158   20.5681 C   0  0  0  0  0  0
  -24.1869  -13.0417   20.9181 C   0  0  0  0  0  0
  -24.6442  -11.6906   20.8708 C   0  0  0  0  0  0
  -23.9057  -10.4308   21.0368 C   0  0  0  0  0  0
  -24.3608   -9.4264   21.9183 C   0  0  0  0  0  0
  -23.6300   -8.2293   22.0769 C   0  0  0  0  0  0
  -22.4296   -8.0296   21.3555 C   0  0  0  0  0  0
  -21.9905   -9.0271   20.4669 C   0  0  0  0  0  0
  -22.7207  -10.2163   20.3061 C   0  0  0  0  0  0
  -21.6878   -6.0741   22.5281 C   0  0  0  0  0  0
  -21.4020   -6.5640   23.8197 C   0  0  0  0  0  0
  -21.3683   -5.6800   24.9181 C   0  0  0  0  0  0
  -21.6044   -4.3060   24.7241 C   0  0  0  0  0  0
  -21.8819   -3.8155   23.4369 C   0  0  0  0  0  0
  -21.9222   -4.6969   22.3414 C   0  0  0  0  0  0
  -22.7904  -13.5242   21.1821 C   0  0  0  0  0  0
  -22.1664   -4.2126   21.1008 F   0  0  0  0  0  0
  -21.5650   -3.4549   25.7773 F   0  0  0  0  0  0
  -30.0401  -13.2528   20.4174 N   0  0  0  0  0  0
  -26.3067  -12.9331   20.3343 N   0  0  0  0  0  0
  -25.9358  -11.6479   20.5671 N   0  0  0  0  0  0
  -22.0512  -12.8281   22.0391 N   0  0  0  0  0  0
  -25.4292  -15.1864   20.4101 N   0  0  0  0  0  0
  -31.8461  -14.6045   20.1073 O   0  0  0  0  0  0
  -21.6699   -6.8881   21.4233 O   0  0  0  0  0  0
  -22.3586  -14.5537   20.6675 O   0  0  0  0  0  0
  -24.6100  -31.8742   23.2123 C   0  0  0  0  0  0
  -25.9030  -32.4857   23.8395 C   0  0  1  0  0  0
  -27.2513  -27.4864   20.1060 C   0  0  0  0  0  0
  -25.5894  -33.8650   24.2352 N   0  0  0  0  0  0
  -23.3928  -30.5000   21.5502 C   0  0  2  0  0  0
  -24.8427  -28.9673   20.1110 C   0  0  0  0  0  0
  -22.7383  -29.4743   22.4993 C   0  0  0  0  0  0
  -18.0264  -28.1437   22.8500 C   0  0  0  0  0  0
  -24.1468  -36.7329   23.2637 C   0  0  0  0  0  0
  -25.9106  -30.8652   21.3444 C   0  0  0  0  0  0
  -25.9924  -29.4964   20.7057 C   0  0  0  0  0  0
  -27.1927  -28.7637   20.6984 C   0  0  0  0  0  0
  -26.0875  -26.9646   19.4929 C   0  0  0  0  0  0
  -24.8860  -27.7016   19.4957 C   0  0  0  0  0  0
  -23.5999  -29.8283   20.1638 C   0  0  0  0  0  0
  -25.4094  -36.3140   24.0335 C   0  0  1  0  0  0
  -20.5864  -28.3735   23.1299 C   0  0  2  0  0  0
  -20.6762  -26.9460   22.5431 C   0  0  0  0  0  0
  -19.5748  -26.6433   21.5223 C   0  0  0  0  0  0
  -18.1929  -26.7980   22.1639 C   0  0  0  0  0  0
  -19.1529  -28.8884   23.2921 C   0  0  0  0  0  0
  -18.9449  -30.1485   23.8955 C   0  0  0  0  0  0
  -17.6461  -30.6636   24.0576 C   0  0  0  0  0  0
  -25.9009  -34.9521   23.5131 C   0  0  0  0  0  0
  -16.5342  -29.9144   23.6328 C   0  0  0  0  0  0
  -16.7264  -28.6568   23.0322 C   0  0  0  0  0  0
  -26.4478  -31.6595   25.0666 C   0  0  0  0  0  0
  -25.3735  -31.3686   26.1383 C   0  0  0  0  0  0
  -27.0286  -30.3073   24.5944 C   0  0  0  0  0  0
  -27.6104  -32.4252   25.7433 C   0  0  0  0  0  0
  -27.5584  -37.1812   24.8477 C   0  0  0  0  0  0
  -21.4127  -29.3095   22.3696 N   0  0  0  0  0  0
  -26.4304  -37.3810   23.9417 N   0  0  0  0  0  0
  -24.6572  -31.0911   22.0983 N   0  0  0  0  0  0
  -23.4181  -28.8297   23.3021 O   0  0  0  0  0  0
  -28.4679  -26.8489   20.1661 O   0  0  0  0  0  0
  -26.5593  -34.8965   22.4704 O   0  0  0  0  0  0
  -23.5332  -32.1450   23.7579 O   0  0  0  0  0  0
  -30.4477  -18.9020   22.6361 C   0  0  0  0  0  0
  -26.6085  -21.8597   19.5674 C   0  0  0  0  0  0
  -28.0178  -19.2775   20.6825 C   0  0  0  0  0  0
  -29.0653  -18.1276   20.6271 C   0  0  0  0  0  0
  -27.9944  -24.4504   20.6353 C   0  0  0  0  0  0
  -30.7235  -16.5671   21.7961 C   0  0  0  0  0  0
  -28.6428  -20.6602   20.3662 C   0  0  0  0  0  0
  -28.6219  -23.0753   20.3137 C   0  0  0  0  0  0
  -28.6368  -25.5148   19.7219 C   0  0  0  0  0  0
  -29.7153  -17.7243   21.9749 C   0  0  1  0  0  0
  -30.1036  -15.3339   21.3255 N   0  0  0  0  0  0
  -27.7676  -21.8653   20.5017 N   0  3  1  0  0  0
  -31.4562  -12.3936   19.0620 H   0  0  0  0  0  0
  -30.3119  -11.2709   19.7477 H   0  0  0  0  0  0
  -29.7072  -11.8068   17.3786 H   0  0  0  0  0  0
  -29.6822  -13.5084   17.7430 H   0  0  0  0  0  0
  -27.7628  -11.3567   18.7168 H   0  0  0  0  0  0
  -27.3675  -12.7654   17.7614 H   0  0  0  0  0  0
  -27.7177  -14.2664   19.6015 H   0  0  0  0  0  0
  -28.6870  -11.9058   21.2919 H   0  0  0  0  0  0
  -28.4771  -13.5240   21.8699 H   0  0  0  0  0  0
  -25.2753   -9.5784   22.4744 H   0  0  0  0  0  0
  -24.0030   -7.4704   22.7480 H   0  0  0  0  0  0
  -21.0841   -8.8791   19.8959 H   0  0  0  0  0  0
  -22.3638  -10.9714   19.6185 H   0  0  0  0  0  0
  -21.1952   -7.6133   23.9695 H   0  0  0  0  0  0
  -21.1496   -6.0537   25.9073 H   0  0  0  0  0  0
  -22.0568   -2.7606   23.2903 H   0  0  0  0  0  0
  -22.4114  -11.9982   22.4839 H   0  0  0  0  0  0
  -21.1098  -13.1327   22.2425 H   0  0  0  0  0  0
  -24.6545  -15.8321   20.5107 H   0  0  0  0  0  0
  -26.2735  -15.6374   20.0826 H   0  0  0  0  0  0
  -26.7109  -32.5621   23.1194 H   0  0  0  0  0  0
  -24.9994  -33.9814   25.0452 H   0  0  0  0  0  0
  -22.6782  -31.3163   21.4134 H   0  0  0  0  0  0
  -23.3736  -35.9662   23.3343 H   0  0  0  0  0  0
  -24.3552  -36.8895   22.2048 H   0  0  0  0  0  0
  -23.7209  -37.6536   23.6628 H   0  0  0  0  0  0
  -25.9842  -31.6268   20.5658 H   0  0  0  0  0  0
  -26.8168  -30.9457   21.9341 H   0  0  0  0  0  0
  -28.0833  -29.1864   21.1437 H   0  0  0  0  0  0
  -26.0944  -26.0058   18.9967 H   0  0  0  0  0  0
  -24.0074  -27.2911   19.0171 H   0  0  0  0  0  0
  -23.6936  -30.6058   19.4031 H   0  0  0  0  0  0
  -22.7269  -29.2377   19.8747 H   0  0  0  0  0  0
  -25.1257  -36.2027   25.0824 H   0  0  0  0  0  0
  -20.9960  -28.3335   24.1409 H   0  0  0  0  0  0
  -20.5656  -26.2341   23.3634 H   0  0  0  0  0  0
  -21.6627  -26.7499   22.1214 H   0  0  0  0  0  0
  -19.6891  -25.6339   21.1262 H   0  0  0  0  0  0
  -19.6679  -27.3241   20.6761 H   0  0  0  0  0  0
  -17.4169  -26.6734   21.4065 H   0  0  0  0  0  0
  -18.0343  -26.0120   22.9046 H   0  0  0  0  0  0
  -19.7917  -30.7294   24.2349 H   0  0  0  0  0  0
  -17.5003  -31.6308   24.5207 H   0  0  0  0  0  0
  -15.5354  -30.3055   23.7620 H   0  0  0  0  0  0
  -15.8666  -28.0915   22.6966 H   0  0  0  0  0  0
  -24.5945  -30.6999   25.7676 H   0  0  0  0  0  0
  -24.8865  -32.2816   26.4823 H   0  0  0  0  0  0
  -25.8041  -30.8840   27.0148 H   0  0  0  0  0  0
  -26.2787  -29.6835   24.1032 H   0  0  0  0  0  0
  -27.4162  -29.7285   25.4348 H   0  0  0  0  0  0
  -27.8571  -30.4458   23.8981 H   0  0  0  0  0  0
  -27.2822  -33.3579   26.2056 H   0  0  0  0  0  0
  -28.3911  -32.6753   25.0216 H   0  0  0  0  0  0
  -28.0757  -31.8278   26.5297 H   0  0  0  0  0  0
  -28.2620  -38.0094   24.7483 H   0  0  0  0  0  0
  -28.1054  -36.2619   24.6336 H   0  0  0  0  0  0
  -27.2291  -37.1469   25.8877 H   0  0  0  0  0  0
  -20.9285  -29.8745   21.6846 H   0  0  0  0  0  0
  -26.0207  -38.2899   24.1396 H   0  0  0  0  0  0
  -31.1005  -18.5636   23.4410 H   0  0  0  0  0  0
  -29.7424  -19.6075   23.0742 H   0  0  0  0  0  0
  -31.0801  -19.4330   21.9224 H   0  0  0  0  0  0
  -26.9432  -21.9208   18.5293 H   0  0  0  0  0  0
  -25.9545  -22.7145   19.7394 H   0  0  0  0  0  0
  -25.9809  -20.9752   19.6758 H   0  0  0  0  0  0
  -27.4918  -19.2823   21.6386 H   0  0  0  0  0  0
  -27.2602  -19.0520   19.9316 H   0  0  0  0  0  0
  -29.8587  -18.3846   19.9206 H   0  0  0  0  0  0
  -28.5872  -17.2482   20.1889 H   0  0  0  0  0  0
  -28.1722  -24.6874   21.6838 H   0  0  0  0  0  0
  -26.9161  -24.4669   20.5111 H   0  0  0  0  0  0
  -31.5115  -16.8810   21.1089 H   0  0  0  0  0  0
  -31.2172  -16.3344   22.7417 H   0  0  0  0  0  0
  -29.0385  -20.6448   19.3510 H   0  0  0  0  0  0
  -29.5110  -20.8039   21.0073 H   0  0  0  0  0  0
  -29.5230  -23.0062   20.9264 H   0  0  0  0  0  0
  -28.9703  -23.0537   19.2787 H   0  0  0  0  0  0
  -28.3053  -25.4037   18.6909 H   0  0  0  0  0  0
  -29.7177  -25.3583   19.7105 H   0  0  0  0  0  0
  -28.9277  -17.3952   22.6577 H   0  0  0  0  0  0
  -29.1539  -15.1407   21.6078 H   0  0  0  0  0  0
  -27.4008  -21.8797   21.4430 H   0  0  0  0  0  0
  1 25  1  0  0  0
  1 30  2  0  0  0
  1 81  1  0  0  0
  2  3  1  0  0  0
  2 25  1  0  0  0
  2 83  1  0  0  0
  2 84  1  0  0  0
  3  4  1  0  0  0
  3 85  1  0  0  0
  3 86  1  0  0  0
  4  5  1  0  0  0
  4 87  1  0  0  0
  4 88  1  0  0  0
  5  6  1  0  0  0
  5 26  1  0  0  0
  5 89  1  0  0  0
  6 25  1  0  0  0
  6 90  1  0  0  0
  6 91  1  0  0  0
  7  8  2  0  0  0
  7 26  1  0  0  0
  7 29  1  0  0  0
  8  9  1  0  0  0
  8 22  1  0  0  0
  9 10  1  0  0  0
  9 27  2  0  0  0
 10 11  2  0  0  0
 10 15  1  0  0  0
 11 12  1  0  0  0
 11 92  1  0  0  0
 12 13  2  0  0  0
 12 93  1  0  0  0
 13 14  1  0  0  0
 13 31  1  0  0  0
 14 15  2  0  0  0
 14 94  1  0  0  0
 15 95  1  0  0  0
 16 17  2  0  0  0
 16 21  1  0  0  0
 16 31  1  0  0  0
 17 18  1  0  0  0
 17 96  1  0  0  0
 18 19  2  0  0  0
 18 97  1  0  0  0
 19 20  1  0  0  0
 19 24  1  0  0  0
 20 21  2  0  0  0
 20 98  1  0  0  0
 21 23  1  0  0  0
 22 28  1  0  0  0
 22 32  2  0  0  0
 26 27  1  0  0  0
 28 99  1  0  0  0
 28100  1  0  0  0
 29101  1  0  0  0
 29102  1  0  0  0
 33 34  1  0  0  0
 33 66  1  0  0  0
 33 70  2  0  0  0
 34 36  1  0  0  0
 34 59  1  0  0  0
 34103  1  0  0  0
 35 44  2  0  0  0
 35 45  1  0  0  0
 35 68  1  0  0  0
 36 56  1  0  0  0
 36104  1  0  0  0
 37 39  1  0  0  0
 37 47  1  0  0  0
 37 66  1  0  0  0
 37105  1  0  0  0
 38 43  2  0  0  0
 38 46  1  0  0  0
 38 47  1  0  0  0
 39 64  1  0  0  0
 39 67  2  0  0  0
 40 52  1  0  0  0
 40 53  2  0  0  0
 40 58  1  0  0  0
 41106  1  0  0  0
 41107  1  0  0  0
 41108  1  0  0  0
 41 48  1  0  0  0
 42 43  1  0  0  0
 42 66  1  0  0  0
 42109  1  0  0  0
 42110  1  0  0  0
 43 44  1  0  0  0
 44111  1  0  0  0
 45 46  2  0  0  0
 45112  1  0  0  0
 46113  1  0  0  0
 47114  1  0  0  0
 47115  1  0  0  0
 48 56  1  0  0  0
 48 65  1  0  0  0
 48116  1  0  0  0
 49 50  1  0  0  0
 49 53  1  0  0  0
 49 64  1  0  0  0
 49117  1  0  0  0
 50 51  1  0  0  0
 50118  1  0  0  0
 50119  1  0  0  0
 51 52  1  0  0  0
 51120  1  0  0  0
 51121  1  0  0  0
 52122  1  0  0  0
 52123  1  0  0  0
 53 54  1  0  0  0
 54 55  2  0  0  0
 54124  1  0  0  0
 55 57  1  0  0  0
 55125  1  0  0  0
 56 69  2  0  0  0
 57 58  2  0  0  0
 57126  1  0  0  0
 58127  1  0  0  0
 59 60  1  0  0  0
 59 61  1  0  0  0
 59 62  1  0  0  0
 60128  1  0  0  0
 60129  1  0  0  0
 60130  1  0  0  0
 61131  1  0  0  0
 61132  1  0  0  0
 61133  1  0  0  0
 62134  1  0  0  0
 62135  1  0  0  0
 62136  1  0  0  0
 63 65  1  0  0  0
 63137  1  0  0  0
 63138  1  0  0  0
 63139  1  0  0  0
 64140  1  0  0  0
 65141  1  0  0  0
 68 79  1  0  0  0
 71142  1  0  0  0
 71143  1  0  0  0
 71144  1  0  0  0
 71 80  1  0  0  0
 72145  1  0  0  0
 72146  1  0  0  0
 72147  1  0  0  0
 72 82  1  0  0  0
 73 74  1  0  0  0
 73 77  1  0  0  0
 73148  1  0  0  0
 73149  1  0  0  0
 74 80  1  0  0  0
 74150  1  0  0  0
 74151  1  0  0  0
 75 78  1  0  0  0
 75 79  1  0  0  0
 75152  1  0  0  0
 75153  1  0  0  0
 76 80  1  0  0  0
 76 81  1  0  0  0
 76154  1  0  0  0
 76155  1  0  0  0
 77 82  1  0  0  0
 77156  1  0  0  0
 77157  1  0  0  0
 78 82  1  0  0  0
 78158  1  0  0  0
 78159  1  0  0  0
 79160  1  0  0  0
 79161  1  0  0  0
 80162  1  0  0  0
 81163  1  0  0  0
 82164  1  0  0  0
M  CHG  1  82   1
M  ISO  4   1 100  68 101  79 101  81 100
M  END
> <chiral flag>
0

> <version>
0

> <s_m_source_file>
/data/baiqing/PycharmProjects/Reinvent-master-3.2/result/LINK_invent/BTK/process_docking_weight1_custom_sum_contain_oxygen_bond_distance_aromatic_linkinvent_7_9_3/rearranged_h_0105.sdf

> <i_m_source_file_index>
98

> <r_mmod_Potential_Energy-OPLS-2005>
-180.339569091797

> <r_mmod_Stretch_Energy-OPLS-2005>
32.7115631103516

> <r_mmod_Bend_Energy-OPLS-2005>
119.233993530273

> <r_mmod_Torsional_Energy-OPLS-2005>
215.931701660156

> <r_mmod_Improper_Torsional_Energy-OPLS-2005>
2.08594131469727

> <r_mmod_Van_der_Waal_Energy-OPLS-2005>
143.655456542969

> <r_mmod_Electrostatic_Energy-OPLS-2005>
-262.029205322266

> <r_mmod_Solvation_Energy-OPLS-2005>
-444.090454101562

> <b_mmod_Minimization_Converged-OPLS-2005>
0

> <r_mmod_RMS_Derivative-OPLS-2005>
6.25914096832275

$$$$
